REMARK  Name = ZINC39502599
REMARK  11 active torsions:
REMARK  status: ('A' for Active; 'I' for Inactive)
REMARK    1  A    between atoms: C_1  and  C_2
REMARK    2  A    between atoms: C_2  and  O_3
REMARK    3  A    between atoms: O_3  and  C_4
REMARK    4  A    between atoms: C_4  and  C_6
REMARK    5  A    between atoms: C_7  and  C_32
REMARK    6  A    between atoms: C_12  and  S_29
REMARK    7  A    between atoms: C_15  and  C_16
REMARK    8  A    between atoms: C_20  and  C_22
REMARK    9  A    between atoms: C_27  and  O_28
REMARK   10  A    between atoms: S_29  and  C_30
REMARK   11  A    between atoms: C_32  and  N_33
REMARK                            x       y       z     vdW  Elec       q    Type
REMARK                         _______ _______ _______ _____ _____    ______ ____
ROOT
ATOM      1  C   UNL     1       1.453  -2.346  -2.523  0.00  0.00    +0.072 A 
ATOM      2  C   UNL     1       2.835  -2.601  -2.486  0.00  0.00    -0.011 A 
ATOM      3  C   UNL     1       3.482  -3.104  -3.568  0.00  0.00    +0.015 A 
ATOM      4  C   UNL     1       2.776  -3.384  -4.754  0.00  0.00    -0.014 A 
ATOM      5  C   UNL     1       3.436  -3.906  -5.879  0.00  0.00    +0.048 A 
ATOM      6  C   UNL     1       2.737  -4.170  -7.017  0.00  0.00    +0.137 A 
ATOM      7  C   UNL     1       1.357  -3.927  -7.085  0.00  0.00    +0.043 A 
ATOM      8  C   UNL     1       0.681  -3.415  -5.999  0.00  0.00    +0.026 A 
ATOM      9  C   UNL     1       1.381  -3.136  -4.816  0.00  0.00    -0.008 A 
ATOM     10  C   UNL     1       0.717  -2.616  -3.682  0.00  0.00    +0.004 A 
ATOM     11  F   UNL     1       3.380  -4.672  -8.094  0.00  0.00    -0.204 F 
ENDROOT
BRANCH  10  12
ATOM     12  C   UNL     1      -0.739  -2.355  -3.721  0.00  0.00    -0.016 A 
ATOM     13  C   UNL     1      -1.602  -3.078  -2.894  0.00  0.00    +0.008 A 
ATOM     14  C   UNL     1      -2.960  -2.835  -2.932  0.00  0.00    +0.001 A 
ATOM     15  C   UNL     1      -3.474  -1.877  -3.785  0.00  0.00    +0.008 A 
ATOM     16  C   UNL     1      -2.622  -1.149  -4.615  0.00  0.00    -0.014 A 
ATOM     17  C   UNL     1      -1.251  -1.384  -4.580  0.00  0.00    +0.017 A 
BRANCH  16  18
ATOM     18  C   UNL     1      -3.176  -0.121  -5.530  0.00  0.00    +0.024 A 
ATOM     19  C   UNL     1      -2.624   1.157  -5.563  0.00  0.00    +0.012 A 
ATOM     20  C   UNL     1      -3.143   2.109  -6.417  0.00  0.00    +0.001 A 
ATOM     21  C   UNL     1      -4.210   1.799  -7.241  0.00  0.00    +0.004 A 
ATOM     22  C   UNL     1      -4.766   0.534  -7.216  0.00  0.00    +0.046 A 
ATOM     23  C   UNL     1      -4.251  -0.433  -6.368  0.00  0.00    +0.125 A 
BRANCH  23  24
ATOM     24  O   UNL     1      -4.792  -1.679  -6.346  0.00  0.00    -0.506 OA
ATOM     25  H   UNL     1      -5.514  -1.783  -5.711  0.00  0.00    +0.292 HD
ENDBRANCH  23  24
ENDBRANCH  16  18
ENDBRANCH  10  12
BRANCH   1  26
ATOM     26  C   UNL     1       0.776  -1.799  -1.335  0.00  0.00    +0.340 C 
ATOM     27  O   UNL     1       0.312  -2.550  -0.500  0.00  0.00    -0.245 OA
BRANCH  26  28
ATOM     28  O   UNL     1       0.671  -0.465  -1.174  0.00  0.00    -0.461 OA
BRANCH  28  30
ATOM     29  C   UNL     1      -0.019   1.526   0.010  0.00  0.00    +0.048 C 
ATOM     30  C   UNL     1       0.002  -0.004   0.002  0.00  0.00    +0.229 C 
ENDBRANCH  28  30
ENDBRANCH  26  28
ENDBRANCH   1  26
BRANCH   7  31
ATOM     31  S   UNL     1       0.481  -4.279  -8.573  0.00  0.00    -0.126 S 
ATOM     32  C   UNL     1      -1.231  -3.814  -8.194  0.00  0.00    +0.090 C 
ENDBRANCH   7  31
BRANCH   2  33
ATOM     33  C   UNL     1       3.610  -2.309  -1.227  0.00  0.00    +0.181 C 
BRANCH  33  34
ATOM     34  N   UNL     1       3.513  -3.454  -0.318  0.00  0.00    -0.248 N 
ATOM     35  C   UNL     1       4.533  -4.133   0.234  0.00  0.00    +0.219 A 
ATOM     36  N   UNL     1       4.032  -5.081   0.983  0.00  0.00    -0.223 NA
ATOM     37  C   UNL     1       2.701  -5.039   0.934  0.00  0.00    +0.245 A 
ATOM     38  N   UNL     1       2.335  -4.056   0.155  0.00  0.00    -0.158 NA
ENDBRANCH  33  34
ENDBRANCH   2  33
TORSDOF 9
