REMARK  Name = ZINC27549660
REMARK  9 active torsions:
REMARK  status: ('A' for Active; 'I' for Inactive)
REMARK    1  A    between atoms: C_1  and  C_2
REMARK    2  A    between atoms: C_5  and  O_9
REMARK    3  A    between atoms: C_6  and  C_8
REMARK    4  A    between atoms: O_9  and  C_10
REMARK    5  A    between atoms: C_10  and  C_11
REMARK    6  A    between atoms: C_11  and  O_12
REMARK    7  A    between atoms: O_12  and  C_13
REMARK    8  A    between atoms: C_17  and  C_19
REMARK    9  A    between atoms: C_29  and  C_31
REMARK                            x       y       z     vdW  Elec       q    Type
REMARK                         _______ _______ _______ _____ _____    ______ ____
ROOT
ATOM      1  C   UNL     1      -1.153  -8.244   0.073  0.00  0.00    +0.121 A 
ATOM      2  C   UNL     1      -0.272  -9.155  -0.498  0.00  0.00    +0.045 A 
ATOM      3  C   UNL     1      -0.583 -10.503  -0.529  0.00  0.00    +0.004 A 
ATOM      4  C   UNL     1      -1.770 -10.954   0.008  0.00  0.00    +0.008 A 
ATOM      5  C   UNL     1      -2.666 -10.045   0.586  0.00  0.00    -0.021 A 
ATOM      6  C   UNL     1      -2.345  -8.683   0.620  0.00  0.00    +0.053 A 
ENDROOT
BRANCH   5   7
ATOM      7  C   UNL     1      -3.931 -10.519   1.158  0.00  0.00    +0.024 C 
ATOM      8  C   UNL     1      -5.043  -9.730   1.103  0.00  0.00    +0.081 C 
ATOM      9  C   UNL     1      -5.070  -8.464   0.316  0.00  0.00    +0.153 C 
ATOM     10  N   UNL     1      -4.406  -8.296  -0.795  0.00  0.00    -0.283 NA
ATOM     11  N   UNL     1      -5.886  -7.465   0.890  0.00  0.00    -0.152 N 
ATOM     12  C   UNL     1      -6.891  -7.874   1.740  0.00  0.00    +0.181 C 
ATOM     13  N   UNL     1      -7.132  -9.089   2.165  0.00  0.00    -0.152 NA
ATOM     14  C   UNL     1      -6.294 -10.088   1.820  0.00  0.00    +0.273 C 
ATOM     15  O   UNL     1      -6.551 -11.250   2.092  0.00  0.00    -0.268 OA
ATOM     16  S   UNL     1      -7.718  -6.347   2.099  0.00  0.00    -0.029 S 
ATOM     17  C   UNL     1      -6.623  -5.267   1.188  0.00  0.00    +0.202 C 
ATOM     18  N   UNL     1      -5.776  -6.109   0.668  0.00  0.00    -0.160 NA
ATOM     19  H   UNL     1      -4.460  -7.452  -1.270  0.00  0.00    +0.188 HD
BRANCH  17  20
ATOM     20  C   UNL     1      -6.669  -3.767   1.055  0.00  0.00    +0.442 C 
ATOM     21  F   UNL     1      -5.613  -3.338   0.243  0.00  0.00    -0.164 F 
ATOM     22  F   UNL     1      -7.885  -3.387   0.477  0.00  0.00    -0.164 F 
ATOM     23  F   UNL     1      -6.552  -3.183   2.320  0.00  0.00    -0.164 F 
ENDBRANCH  17  20
ENDBRANCH   5   7
BRANCH   1  24
ATOM     24  O   UNL     1      -0.839  -6.922   0.098  0.00  0.00    -0.489 OA
BRANCH  24  25
ATOM     25  C   UNL     1       0.408  -6.539  -0.484  0.00  0.00    +0.270 C 
BRANCH  25  26
ATOM     26  C   UNL     1       0.585  -5.025  -0.362  0.00  0.00    +0.270 C 
BRANCH  26  27
ATOM     27  O   UNL     1       0.687  -4.667   1.018  0.00  0.00    -0.488 OA
BRANCH  27  32
ATOM     28  C   UNL     1       1.355   0.799   2.200  0.00  0.00    +0.044 C 
ATOM     29  C   UNL     1       1.177  -0.663   1.883  0.00  0.00    -0.050 A 
ATOM     30  C   UNL     1       1.072  -1.077   0.568  0.00  0.00    +0.007 A 
ATOM     31  C   UNL     1       0.908  -2.417   0.276  0.00  0.00    +0.046 A 
ATOM     32  C   UNL     1       0.849  -3.348   1.303  0.00  0.00    +0.124 A 
ATOM     33  C   UNL     1       0.954  -2.930   2.621  0.00  0.00    -0.009 A 
ATOM     34  C   UNL     1       1.123  -1.589   2.908  0.00  0.00    +0.010 A 
ATOM     35  C   UNL     1       0.890  -3.939   3.739  0.00  0.00    +0.047 C 
ENDBRANCH  27  32
ENDBRANCH  26  27
ENDBRANCH  25  26
ENDBRANCH  24  25
ENDBRANCH   1  24
TORSDOF 7
