REMARK  Name = ZINC44025435
REMARK  5 active torsions:
REMARK  status: ('A' for Active; 'I' for Inactive)
REMARK    1  A    between atoms: C_1  and  C_2
REMARK    2  A    between atoms: C_2  and  C_3
REMARK    3  A    between atoms: C_2  and  C_4
REMARK    4  A    between atoms: C_2  and  N_5
REMARK    5  A    between atoms: C_7  and  C_10
REMARK                            x       y       z     vdW  Elec       q    Type
REMARK                         _______ _______ _______ _____ _____    ______ ____
ROOT
ATOM      1  C   UNL     1       3.556  -1.166  -3.312  0.00  0.00    +0.018 C 
ATOM      2  C   UNL     1       3.630  -1.703  -4.547  0.00  0.00    -0.002 C 
ATOM      3  C   UNL     1       2.468  -2.164  -5.394  0.00  0.00    +0.060 C 
ATOM      4  C   UNL     1       3.111  -2.682  -6.687  0.00  0.00    +0.131 C 
ATOM      5  N   UNL     1       4.562  -2.503  -6.534  0.00  0.00    -0.292 N 
ATOM      6  C   UNL     1       4.858  -1.940  -5.321  0.00  0.00    +0.140 A 
ATOM      7  N   UNL     1       6.105  -1.678  -4.958  0.00  0.00    -0.229 NA
ATOM      8  C   UNL     1       7.156  -1.938  -5.751  0.00  0.00    +0.080 A 
ATOM      9  C   UNL     1       8.466  -1.654  -5.350  0.00  0.00    +0.048 A 
ATOM     10  C   UNL     1       9.513  -1.940  -6.198  0.00  0.00    +0.043 A 
ATOM     11  C   UNL     1       9.284  -2.507  -7.447  0.00  0.00    +0.021 A 
ATOM     12  C   UNL     1       8.013  -2.794  -7.861  0.00  0.00    +0.017 A 
ATOM     13  C   UNL     1       6.935  -2.516  -7.023  0.00  0.00    +0.065 A 
ATOM     14  C   UNL     1       5.551  -2.812  -7.412  0.00  0.00    +0.262 A 
ATOM     15  O   UNL     1       5.296  -3.306  -8.495  0.00  0.00    -0.267 OA
ATOM     16 CL   UNL     1      11.139  -1.588  -5.702  0.00  0.00    -0.083 Cl
ENDROOT
BRANCH   1  19
ATOM     17  N   UNL     1       0.688  -0.476  -1.203  0.00  0.00    -0.266 N 
ATOM     18  C   UNL     1       2.017  -0.458  -1.410  0.00  0.00    +0.116 A 
ATOM     19  C   UNL     1       2.247  -0.990  -2.664  0.00  0.00    +0.013 A 
ATOM     20  C   UNL     1       0.988  -1.333  -3.209  0.00  0.00    +0.142 A 
ATOM     21  N   UNL     1       0.071  -1.029  -2.332  0.00  0.00    -0.179 NA
BRANCH  17  23
ATOM     22  C   UNL     1      -0.019   1.526   0.010  0.00  0.00    +0.036 C 
ATOM     23  C   UNL     1       0.002  -0.004   0.002  0.00  0.00    +0.055 C 
ATOM     24  C   UNL     1       0.742  -0.511   1.242  0.00  0.00    +0.036 C 
ATOM     25  C   UNL     1      -1.433  -0.534   0.013  0.00  0.00    +0.036 C 
ENDBRANCH  17  23
ENDBRANCH   1  19
TORSDOF 2
