REMARK  Name = ZINC35342805
REMARK  10 active torsions:
REMARK  status: ('A' for Active; 'I' for Inactive)
REMARK    1  A    between atoms: C_1  and  C_2
REMARK    2  A    between atoms: C_2  and  C_3
REMARK    3  A    between atoms: C_8  and  N_9
REMARK    4  A    between atoms: N_12  and  C_13
REMARK    5  A    between atoms: N_12  and  C_31
REMARK    6  A    between atoms: C_13  and  C_14
REMARK    7  A    between atoms: C_16  and  C_19
REMARK    8  A    between atoms: N_21  and  C_22
REMARK    9  A    between atoms: C_31  and  C_32
REMARK   10  A    between atoms: C_31  and  C_33
REMARK                            x       y       z     vdW  Elec       q    Type
REMARK                         _______ _______ _______ _____ _____    ______ ____
ROOT
ATOM      1  C   UNL     1       7.108   0.663   0.874  0.00  0.00    +0.096 A 
ATOM      2  N   UNL     1       7.560   1.486   1.780  0.00  0.00    -0.238 NA
ATOM      3  C   UNL     1       8.274   2.543   1.379  0.00  0.00    +0.133 A 
ATOM      4  C   UNL     1       8.466   2.662   0.028  0.00  0.00    +0.080 A 
ATOM      5  S   UNL     1       7.659   1.315  -0.571  0.00  0.00    -0.078 S 
ENDROOT
BRANCH   3   6
ATOM      6  C   UNL     1       8.822   3.522   2.333  0.00  0.00    +0.264 C 
ATOM      7  O   UNL     1       9.466   4.471   1.928  0.00  0.00    -0.268 OA
ATOM      8  N   UNL     1       8.608   3.366   3.655  0.00  0.00    -0.299 N 
ATOM      9  H   UNL     1       8.094   2.610   3.977  0.00  0.00    +0.150 HD
BRANCH   8  10
ATOM     10  C   UNL     1       9.153   4.340   4.604  0.00  0.00    +0.159 C 
ATOM     11  C   UNL     1       8.320   4.329   5.888  0.00  0.00    +0.032 C 
ATOM     12  C   UNL     1       8.434   5.656   6.615  0.00  0.00    +0.004 C 
ATOM     13  C   UNL     1       9.821   5.935   7.167  0.00  0.00    +0.019 C 
ATOM     14  C   UNL     1      10.828   6.137   6.033  0.00  0.00    +0.104 C 
ATOM     15  N   UNL     1      11.350   4.822   5.627  0.00  0.00    -0.314 N 
ATOM     16  C   UNL     1      10.580   3.971   4.949  0.00  0.00    +0.233 C 
ATOM     17  O   UNL     1      11.024   2.893   4.613  0.00  0.00    -0.274 OA
ATOM     18  H   UNL     1      12.261   4.576   5.851  0.00  0.00    +0.149 HD
ENDBRANCH   8  10
ENDBRANCH   3   6
BRANCH   1  19
ATOM     19  C   UNL     1       6.288  -0.585   1.078  0.00  0.00    +0.172 C 
BRANCH  19  23
ATOM     20  N   UNL     1       2.915   0.140  -0.187  0.00  0.00    -0.269 N 
ATOM     21  C   UNL     1       4.197  -0.270  -0.133  0.00  0.00    +0.307 C 
ATOM     22  O   UNL     1       4.753  -0.663  -1.141  0.00  0.00    -0.252 OA
ATOM     23  N   UNL     1       4.864  -0.246   1.038  0.00  0.00    -0.277 N 
ATOM     24  H   UNL     1       2.492   0.516   0.600  0.00  0.00    +0.156 HD
BRANCH  20  30
ATOM     25  C   UNL     1       0.810  -0.104  -1.347  0.00  0.00    -0.026 A 
ATOM     26  C   UNL     1       0.100  -0.214  -2.527  0.00  0.00    +0.005 A 
ATOM     27  C   UNL     1       0.765  -0.203  -3.740  0.00  0.00    +0.000 A 
ATOM     28  C   UNL     1       2.142  -0.083  -3.776  0.00  0.00    +0.002 A 
ATOM     29  C   UNL     1       2.858   0.027  -2.600  0.00  0.00    +0.023 A 
ATOM     30  C   UNL     1       2.193   0.023  -1.381  0.00  0.00    +0.038 A 
BRANCH  25  32
ATOM     31  C   UNL     1      -0.183   1.322   0.421  0.00  0.00    +0.009 C 
ATOM     32  C   UNL     1       0.086  -0.116  -0.026  0.00  0.00    +0.033 C 
ENDBRANCH  25  32
ENDBRANCH  20  30
BRANCH  23  33
ATOM     33  C   UNL     1       4.164   0.121   2.272  0.00  0.00    +0.072 C 
ATOM     34  C   UNL     1       4.353  -0.984   3.313  0.00  0.00    +0.028 C 
ATOM     35  C   UNL     1       4.735   1.433   2.812  0.00  0.00    +0.028 C 
ENDBRANCH  23  33
ENDBRANCH  19  23
ENDBRANCH   1  19
TORSDOF 7
