REMARK  Name = ZINC10149406
REMARK  10 active torsions:
REMARK  status: ('A' for Active; 'I' for Inactive)
REMARK    1  A    between atoms: C_1  and  C_2
REMARK    2  A    between atoms: C_2  and  C_3
REMARK    3  A    between atoms: C_4  and  C_27
REMARK    4  A    between atoms: C_6  and  N_11
REMARK    5  A    between atoms: C_7  and  C_8
REMARK    6  A    between atoms: C_12  and  C_14
REMARK    7  A    between atoms: C_14  and  C_16
REMARK    8  A    between atoms: C_14  and  O_17
REMARK    9  A    between atoms: O_17  and  C_18
REMARK   10  A    between atoms: C_21  and  N_24
REMARK                            x       y       z     vdW  Elec       q    Type
REMARK                         _______ _______ _______ _____ _____    ______ ____
ROOT
ATOM      1  N   UNL     1       1.193   1.636  -0.337  0.00  0.00    -0.276 N 
ATOM      2  C   UNL     1      -0.004   1.044  -0.156  0.00  0.00    +0.258 C 
ATOM      3  O   UNL     1      -0.067  -0.152   0.030  0.00  0.00    -0.271 OA
ATOM      4  H   UNL     1       1.243   2.594  -0.486  0.00  0.00    +0.155 HD
ENDROOT
BRANCH   1   8
ATOM      5  C   UNL     1       4.690   0.287  -0.398  0.00  0.00    -0.024 A 
ATOM      6  C   UNL     1       4.287  -0.977  -0.176  0.00  0.00    -0.008 A 
ATOM      7  S   UNL     1       2.517  -0.828  -0.056  0.00  0.00    -0.078 S 
ATOM      8  C   UNL     1       2.353   0.877  -0.310  0.00  0.00    +0.084 A 
ATOM      9  C   UNL     1       3.666   1.301  -0.474  0.00  0.00    +0.068 A 
ATOM     10  C   UNL     1       5.131  -2.220  -0.051  0.00  0.00    +0.052 C 
BRANCH   9  11
ATOM     11  C   UNL     1       3.995   2.710  -0.714  0.00  0.00    +0.244 C 
ATOM     12  O   UNL     1       4.212   3.452   0.226  0.00  0.00    -0.270 OA
ATOM     13  N   UNL     1       4.059   3.182  -1.974  0.00  0.00    -0.325 N 
ATOM     14  H   UNL     1       3.887   2.590  -2.723  0.00  0.00    +0.145 HD
ATOM     15  H   UNL     1       4.277   4.114  -2.133  0.00  0.00    +0.145 HD
ENDBRANCH   9  11
BRANCH   5  17
ATOM     16  C   UNL     1       6.751   0.961   0.805  0.00  0.00    +0.009 C 
ATOM     17  C   UNL     1       6.149   0.629  -0.562  0.00  0.00    +0.033 C 
ENDBRANCH   5  17
ENDBRANCH   1   8
BRANCH   2  18
ATOM     18  C   UNL     1      -1.266   1.869  -0.192  0.00  0.00    +0.256 C 
ATOM     19  C   UNL     1      -1.270   2.846   0.986  0.00  0.00    +0.062 C 
BRANCH  18  20
ATOM     20  O   UNL     1      -2.401   1.006  -0.099  0.00  0.00    -0.480 OA
BRANCH  20  21
ATOM     21  C   UNL     1      -3.569   1.466  -0.619  0.00  0.00    +0.122 A 
ATOM     22  C   UNL     1      -4.680   0.637  -0.671  0.00  0.00    +0.048 A 
ATOM     23  C   UNL     1      -5.868   1.108  -1.197  0.00  0.00    +0.036 A 
ATOM     24  C   UNL     1      -5.947   2.401  -1.680  0.00  0.00    +0.126 A 
ATOM     25  C   UNL     1      -4.839   3.228  -1.634  0.00  0.00    +0.036 A 
ATOM     26  C   UNL     1      -3.651   2.763  -1.105  0.00  0.00    +0.048 A 
BRANCH  24  27
ATOM     27  N   UNL     1      -7.219   2.901  -2.248  0.00  0.00    +0.056 N 
ATOM     28  O   UNL     1      -7.289   4.040  -2.674  0.00  0.00    -0.126 OA
ATOM     29  O   UNL     1      -8.195   2.174  -2.289  0.00  0.00    -0.126 OA
ENDBRANCH  24  27
ENDBRANCH  20  21
ENDBRANCH  18  20
ENDBRANCH   2  18
TORSDOF 7
