REMARK  Name = ZINC03246124
REMARK  6 active torsions:
REMARK  status: ('A' for Active; 'I' for Inactive)
REMARK    1  A    between atoms: C_1  and  C_2
REMARK    2  A    between atoms: C_2  and  C_3
REMARK    3  A    between atoms: C_2  and  C_4
REMARK    4  A    between atoms: C_2  and  C_5
REMARK    5  A    between atoms: C_15  and  C_17
REMARK    6  A    between atoms: C_17  and  C_18
REMARK                            x       y       z     vdW  Elec       q    Type
REMARK                         _______ _______ _______ _____ _____    ______ ____
ROOT
ATOM      1  C   UNL     1       0.718  -0.497  -1.257  0.00  0.00    -0.000 C 
ATOM      2  C   UNL     1      -0.017   0.014  -2.499  0.00  0.00    +0.010 C 
ATOM      3  C   UNL     1       0.535  -0.666  -3.754  0.00  0.00    +0.056 C 
ATOM      4  C   UNL     1       2.048  -0.502  -3.772  0.00  0.00    +0.054 A 
ATOM      5  C   UNL     1       2.722  -0.185  -2.637  0.00  0.00    +0.015 A 
ATOM      6  S   UNL     1       4.402  -0.116  -3.191  0.00  0.00    -0.057 S 
ATOM      7  C   UNL     1       4.115  -0.493  -4.808  0.00  0.00    +0.165 A 
ATOM      8  N   UNL     1       2.811  -0.648  -4.852  0.00  0.00    -0.229 NA
ATOM      9  N   UNL     1       5.035  -0.613  -5.844  0.00  0.00    -0.264 N 
ATOM     10  C   UNL     1       4.614  -0.925  -7.086  0.00  0.00    +0.225 C 
ATOM     11  O   UNL     1       3.433  -1.102  -7.300  0.00  0.00    -0.275 OA
ATOM     12  C   UNL     1       2.159   0.039  -1.274  0.00  0.00    +0.048 C 
ATOM     13  H   UNL     1       5.979  -0.471  -5.673  0.00  0.00    +0.157 HD
ENDROOT
BRANCH   1  15
ATOM     14  C   UNL     1      -0.019   1.526   0.010  0.00  0.00    +0.011 C 
ATOM     15  C   UNL     1       0.002  -0.004   0.002  0.00  0.00    -0.035 C 
ATOM     16  C   UNL     1       0.742  -0.511   1.242  0.00  0.00    +0.011 C 
ATOM     17  C   UNL     1      -1.433  -0.534   0.013  0.00  0.00    +0.011 C 
ENDBRANCH   1  15
BRANCH  10  18
ATOM     18  C   UNL     1       5.611  -1.055  -8.209  0.00  0.00    +0.153 C 
BRANCH  18  19
ATOM     19  C   UNL     1       4.889  -1.408  -9.483  0.00  0.00    +0.069 A 
ATOM     20  C   UNL     1       4.964  -0.732 -10.642  0.00  0.00    +0.117 A 
ATOM     21  N   UNL     1       4.151  -1.383 -11.566  0.00  0.00    -0.300 N 
ATOM     22  C   UNL     1       3.775  -1.243 -12.884  0.00  0.00    +0.100 A 
ATOM     23  C   UNL     1       2.934  -2.108 -13.449  0.00  0.00    +0.067 A 
ATOM     24  S   UNL     1       2.599  -3.231 -12.102  0.00  0.00    -0.058 S 
ATOM     25  C   UNL     1       3.621  -2.444 -10.879  0.00  0.00    +0.178 A 
ATOM     26  N   UNL     1       4.065  -2.453  -9.655  0.00  0.00    -0.226 NA
ENDBRANCH  18  19
ENDBRANCH  10  18
TORSDOF 3
