REMARK  Name = ZINC08618657
REMARK  6 active torsions:
REMARK  status: ('A' for Active; 'I' for Inactive)
REMARK    1  A    between atoms: C_4  and  C_7
REMARK    2  A    between atoms: C_7  and  C_8
REMARK    3  A    between atoms: C_8  and  C_9
REMARK    4  A    between atoms: C_9  and  C_10
REMARK    5  A    between atoms: C_10  and  C_11
REMARK    6  A    between atoms: C_12  and  C_20
REMARK                            x       y       z     vdW  Elec       q    Type
REMARK                         _______ _______ _______ _____ _____    ______ ____
ROOT
ATOM      1  C   UNL     1       2.079  -3.042  -1.061  0.00  0.00    +0.043 A 
ATOM      2  C   UNL     1       1.483  -2.604   0.085  0.00  0.00    +0.057 A 
ATOM      3  N   UNL     1       0.808  -3.506   0.872  0.00  0.00    -0.327 N 
ATOM      4  H   UNL     1       0.329  -3.173   1.804  0.00  0.00    +0.169 HD
ATOM      5  C   UNL     1       0.730  -4.813   0.503  0.00  0.00    +0.194 A 
ATOM      6  N   UNL     1       1.302  -5.247  -0.600  0.00  0.00    -0.177 NA
ATOM      7  C   UNL     1       1.977  -4.411  -1.402  0.00  0.00    +0.278 A 
ATOM      8  O   UNL     1       2.502  -4.830  -2.423  0.00  0.00    -0.265 OA
ATOM      9  N   UNL     1       0.049  -5.695   1.298  0.00  0.00    -0.329 N 
ATOM     10  H   UNL     1      -0.021  -6.754   1.010  0.00  0.00    +0.145 HD
ATOM     11  H   UNL     1      -0.429  -5.345   2.225  0.00  0.00    +0.145 HD
ENDROOT
BRANCH   2  12
ATOM     12  C   UNL     1       1.566  -1.181   0.478  0.00  0.00    -0.001 A 
ATOM     13  C   UNL     1       1.176  -0.183  -0.417  0.00  0.00    +0.010 A 
ATOM     14  C   UNL     1       1.256   1.142  -0.044  0.00  0.00    +0.001 A 
ATOM     15  C   UNL     1       1.721   1.484   1.213  0.00  0.00    +0.000 A 
ATOM     16  C   UNL     1       2.108   0.500   2.105  0.00  0.00    +0.001 A 
ATOM     17  C   UNL     1       2.034  -0.830   1.745  0.00  0.00    +0.010 A 
ENDBRANCH   2  12
BRANCH   1  18
ATOM     18  C   UNL     1       2.833  -2.084  -1.948  0.00  0.00    +0.043 C 
BRANCH  18  19
ATOM     19  C   UNL     1       4.262  -1.924  -1.426  0.00  0.00    +0.005 C 
BRANCH  19  20
ATOM     20  C   UNL     1       5.065  -1.057  -2.398  0.00  0.00    +0.005 C 
BRANCH  20  21
ATOM     21  C   UNL     1       6.495  -0.896  -1.876  0.00  0.00    +0.035 C 
BRANCH  21  25
ATOM     22  C   UNL     1       8.737   1.524  -4.589  0.00  0.00    +0.000 A 
ATOM     23  C   UNL     1       8.044   2.114  -3.548  0.00  0.00    +0.000 A 
ATOM     24  C   UNL     1       7.318   1.330  -2.670  0.00  0.00    +0.003 A 
ATOM     25  C   UNL     1       7.285  -0.042  -2.833  0.00  0.00    -0.047 A 
ATOM     26  C   UNL     1       7.983  -0.631  -3.871  0.00  0.00    +0.003 A 
ATOM     27  C   UNL     1       8.705   0.152  -4.752  0.00  0.00    +0.000 A 
ENDBRANCH  21  25
ENDBRANCH  20  21
ENDBRANCH  19  20
ENDBRANCH  18  19
ENDBRANCH   1  18
TORSDOF 6
