REMARK  Name = ZINC38657818
REMARK  9 active torsions:
REMARK  status: ('A' for Active; 'I' for Inactive)
REMARK    1  A    between atoms: C_2  and  C_3
REMARK    2  A    between atoms: C_3  and  O_4
REMARK    3  A    between atoms: O_4  and  C_5
REMARK    4  A    between atoms: C_8  and  C_11
REMARK    5  A    between atoms: C_11  and  O_13
REMARK    6  A    between atoms: O_13  and  C_14
REMARK    7  A    between atoms: C_21  and  N_37
REMARK    8  A    between atoms: C_22  and  C_35
REMARK    9  A    between atoms: C_23  and  C_25
REMARK                            x       y       z     vdW  Elec       q    Type
REMARK                         _______ _______ _______ _____ _____    ______ ____
ROOT
ATOM      1  C   UNL     1      -6.890  -6.849  -2.375  0.00  0.00    +0.135 A 
ATOM      2  C   UNL     1      -7.956  -6.448  -1.581  0.00  0.00    +0.047 A 
ATOM      3  C   UNL     1      -9.145  -7.148  -1.619  0.00  0.00    +0.012 A 
ATOM      4  C   UNL     1      -9.281  -8.249  -2.446  0.00  0.00    +0.008 A 
ATOM      5  C   UNL     1      -8.220  -8.653  -3.241  0.00  0.00    +0.138 A 
ATOM      6  C   UNL     1      -7.024  -7.947  -3.208  0.00  0.00    +0.093 A 
ATOM      7  O   UNL     1      -8.334  -9.729  -4.058  0.00  0.00    -0.441 OA
ATOM      8  C   UNL     1      -9.550 -10.182  -4.405  0.00  0.00    +0.199 C 
ATOM      9  C   UNL     1     -10.660  -9.871  -3.694  0.00  0.00    +0.098 C 
ATOM     10  C   UNL     1     -10.587  -8.998  -2.473  0.00  0.00    +0.098 C 
ENDROOT
BRANCH  10  11
ATOM     11  C   UNL     1     -10.695  -9.856  -1.239  0.00  0.00    -0.027 A 
ATOM     12  C   UNL     1      -9.710 -10.746  -0.936  0.00  0.00    +0.005 A 
ATOM     13  C   UNL     1      -9.793 -11.548   0.201  0.00  0.00    +0.001 A 
ATOM     14  C   UNL     1     -10.861 -11.465   1.041  0.00  0.00    +0.008 A 
ATOM     15  C   UNL     1     -11.896 -10.558   0.761  0.00  0.00    -0.018 A 
ATOM     16  C   UNL     1     -11.809  -9.738  -0.392  0.00  0.00    -0.014 A 
ATOM     17  C   UNL     1     -12.843  -8.826  -0.668  0.00  0.00    +0.009 A 
ATOM     18  C   UNL     1     -13.907  -8.739   0.175  0.00  0.00    +0.001 A 
ATOM     19  C   UNL     1     -13.989  -9.540   1.312  0.00  0.00    +0.001 A 
ATOM     20  C   UNL     1     -13.014 -10.444   1.605  0.00  0.00    +0.008 A 
ENDBRANCH  10  11
BRANCH   8  21
ATOM     21  N   UNL     1      -9.671 -10.985  -5.512  0.00  0.00    -0.328 N 
ATOM     22  H   UNL     1      -8.885 -11.216  -6.031  0.00  0.00    +0.145 HD
ATOM     23  H   UNL     1     -10.542 -11.319  -5.775  0.00  0.00    +0.145 HD
ENDBRANCH   8  21
BRANCH   9  24
ATOM     24  C   UNL     1     -11.928 -10.385  -4.114  0.00  0.00    +0.101 C 
ATOM     25  N   UNL     1     -12.935 -10.793  -4.448  0.00  0.00    -0.191 NA
ENDBRANCH   9  24
BRANCH   1  26
ATOM     26  O   UNL     1      -5.718  -6.161  -2.340  0.00  0.00    -0.422 OA
BRANCH  26  27
ATOM     27  C   UNL     1      -5.448  -5.318  -3.356  0.00  0.00    +0.344 C 
ATOM     28  O   UNL     1      -6.198  -5.257  -4.311  0.00  0.00    -0.245 OA
BRANCH  27  32
ATOM     29  C   UNL     1      -1.980  -2.874  -3.222  0.00  0.00    +0.121 A 
ATOM     30  C   UNL     1      -2.836  -2.803  -4.316  0.00  0.00    +0.046 A 
ATOM     31  C   UNL     1      -3.961  -3.594  -4.363  0.00  0.00    +0.018 A 
ATOM     32  C   UNL     1      -4.243  -4.469  -3.310  0.00  0.00    +0.060 A 
ATOM     33  C   UNL     1      -3.380  -4.537  -2.212  0.00  0.00    +0.018 A 
ATOM     34  C   UNL     1      -2.253  -3.746  -2.175  0.00  0.00    +0.046 A 
BRANCH  29  35
ATOM     35  O   UNL     1      -0.871  -2.092  -3.180  0.00  0.00    -0.488 OA
BRANCH  35  36
ATOM     36  C   UNL     1      -0.650  -1.218  -4.288  0.00  0.00    +0.256 C 
BRANCH  36  38
ATOM     37  C   UNL     1       1.482  -0.297  -5.042  0.00  0.00    +0.007 C 
ATOM     38  C   UNL     1       0.618  -0.435  -4.066  0.00  0.00    +0.006 C 
ENDBRANCH  36  38
ENDBRANCH  35  36
ENDBRANCH  29  35
ENDBRANCH  27  32
ENDBRANCH  26  27
ENDBRANCH   1  26
TORSDOF 9
