REMARK  Name = ZINC59842455
REMARK  5 active torsions:
REMARK  status: ('A' for Active; 'I' for Inactive)
REMARK    1  A    between atoms: C_4  and  C_7
REMARK    2  A    between atoms: C_7  and  C_9
REMARK    3  A    between atoms: C_7  and  S_19
REMARK    4  A    between atoms: N_11  and  C_12
REMARK    5  A    between atoms: S_19  and  C_20
REMARK                            x       y       z     vdW  Elec       q    Type
REMARK                         _______ _______ _______ _____ _____    ______ ____
ROOT
ATOM      1  C   UNL     1       3.718  -0.708  -0.039  0.00  0.00    +0.169 C 
ENDROOT
BRANCH   1   5
ATOM      2  C   UNL     1       0.004   1.403  -0.002  0.00  0.00    +0.000 A 
ATOM      3  C   UNL     1       1.197   2.102  -0.009  0.00  0.00    +0.000 A 
ATOM      4  C   UNL     1       2.399   1.419  -0.020  0.00  0.00    +0.005 A 
ATOM      5  C   UNL     1       2.408   0.037  -0.025  0.00  0.00    -0.025 A 
ATOM      6  C   UNL     1       1.215  -0.662  -0.018  0.00  0.00    +0.005 A 
ATOM      7  C   UNL     1       0.014   0.021  -0.007  0.00  0.00    +0.000 A 
ENDBRANCH   1   5
BRANCH   1   8
ATOM      8  C   UNL     1       3.814  -1.578   1.188  0.00  0.00    +0.235 C 
ATOM      9  O   UNL     1       3.570  -2.764   1.111  0.00  0.00    -0.274 OA
ATOM     10  N   UNL     1       4.172  -1.039   2.370  0.00  0.00    -0.284 N 
ATOM     11  H   UNL     1       4.432  -0.106   2.418  0.00  0.00    +0.155 HD
BRANCH  10  12
ATOM     12  C   UNL     1       4.168  -1.825   3.528  0.00  0.00    +0.033 A 
ATOM     13  C   UNL     1       3.806  -1.266   4.747  0.00  0.00    +0.024 A 
ATOM     14  C   UNL     1       3.802  -2.045   5.888  0.00  0.00    +0.017 A 
ATOM     15  C   UNL     1       4.158  -3.380   5.817  0.00  0.00    +0.018 A 
ATOM     16  C   UNL     1       4.519  -3.939   4.604  0.00  0.00    +0.017 A 
ATOM     17  C   UNL     1       4.519  -3.167   3.459  0.00  0.00    +0.024 A 
ATOM     18 BR   UNL     1       4.152  -4.442   7.381  0.00  0.00    -0.050 Br
ENDBRANCH  10  12
ENDBRANCH   1   8
BRANCH   1  19
ATOM     19  S   UNL     1       3.808  -1.745  -1.524  0.00  0.00    -0.079 S 
BRANCH  19  20
ATOM     20  C   UNL     1       3.832  -0.587  -2.852  0.00  0.00    +0.161 A 
ATOM     21  N   UNL     1       3.801   0.731  -2.812  0.00  0.00    -0.133 NA
ATOM     22  N   UNL     1       3.829   1.452  -3.984  0.00  0.00    -0.125 NA
ATOM     23  C   UNL     1       3.888   0.822  -5.141  0.00  0.00    +0.180 A 
ATOM     24  S   UNL     1       3.914  -0.884  -4.612  0.00  0.00    -0.025 S 
ATOM     25  N   UNL     1       3.925   1.345  -6.428  0.00  0.00    -0.336 N 
ATOM     26  H   UNL     1       3.909   2.306  -6.561  0.00  0.00    +0.144 HD
ATOM     27  H   UNL     1       3.968   0.750  -7.192  0.00  0.00    +0.144 HD
ENDBRANCH  19  20
ENDBRANCH   1  19
TORSDOF 5
