REMARK  Name = ZINC09120950
REMARK  5 active torsions:
REMARK  status: ('A' for Active; 'I' for Inactive)
REMARK    1  A    between atoms: C_4  and  C_27
REMARK    2  A    between atoms: C_5  and  C_7
REMARK    3  A    between atoms: N_9  and  C_10
REMARK    4  A    between atoms: C_10  and  C_11
REMARK    5  A    between atoms: N_14  and  C_18
REMARK                            x       y       z     vdW  Elec       q    Type
REMARK                         _______ _______ _______ _____ _____    ______ ____
ROOT
ATOM      1  C   UNL     1       0.096   2.532   2.073  0.00  0.00    +0.150 C 
ENDROOT
BRANCH   1   2
ATOM      2  C   UNL     1      -0.789   1.610   1.232  0.00  0.00    +0.213 C 
ATOM      3  C   UNL     1      -0.013   1.086   0.008  0.00  0.00    +0.163 C 
ATOM      4  N   UNL     1      -0.775   1.599  -1.140  0.00  0.00    -0.234 N 
ATOM      5  C   UNL     1      -1.822   2.302  -0.687  0.00  0.00    +0.408 C 
ATOM      6  O   UNL     1      -2.626   2.842  -1.420  0.00  0.00    -0.226 OA
ATOM      7  O   UNL     1      -1.901   2.355   0.648  0.00  0.00    -0.444 OA
BRANCH   4   8
ATOM      8  C   UNL     1      -0.460   1.386  -2.489  0.00  0.00    +0.043 A 
ATOM      9  C   UNL     1       0.660   0.639  -2.830  0.00  0.00    +0.027 A 
ATOM     10  C   UNL     1       0.970   0.424  -4.160  0.00  0.00    +0.051 A 
ATOM     11  C   UNL     1       0.170   0.961  -5.156  0.00  0.00    +0.166 A 
ATOM     12  C   UNL     1      -0.951   1.715  -4.816  0.00  0.00    +0.168 A 
ATOM     13  C   UNL     1      -1.263   1.926  -3.484  0.00  0.00    +0.073 A 
ATOM     14  O   UNL     1      -1.564   2.126  -5.965  0.00  0.00    -0.453 OA
ATOM     15  C   UNL     1      -0.582   1.962  -7.005  0.00  0.00    +0.466 C 
ATOM     16  O   UNL     1       0.259   0.900  -6.517  0.00  0.00    -0.453 OA
ENDBRANCH   4   8
ENDBRANCH   1   2
BRANCH   1  19
ATOM     17  C   UNL     1      -0.034   3.737   4.187  0.00  0.00    +0.245 C 
ATOM     18  O   UNL     1       1.091   4.150   3.987  0.00  0.00    -0.270 OA
ATOM     19  N   UNL     1      -0.622   2.921   3.289  0.00  0.00    -0.308 N 
ATOM     20  H   UNL     1      -1.520   2.592   3.449  0.00  0.00    +0.149 HD
BRANCH  17  25
ATOM     21  C   UNL     1      -2.721   4.027   6.795  0.00  0.00    +0.001 A 
ATOM     22  C   UNL     1      -2.115   4.864   7.715  0.00  0.00    +0.001 A 
ATOM     23  C   UNL     1      -0.833   5.335   7.490  0.00  0.00    +0.013 A 
ATOM     24  C   UNL     1      -0.150   4.970   6.349  0.00  0.00    +0.067 A 
ATOM     25  C   UNL     1      -0.758   4.130   5.415  0.00  0.00    +0.048 A 
ATOM     26  C   UNL     1      -2.051   3.657   5.647  0.00  0.00    +0.013 A 
BRANCH  24  27
ATOM     27  C   UNL     1       1.247   5.480   6.108  0.00  0.00    +0.418 C 
ATOM     28  F   UNL     1       1.635   6.297   7.176  0.00  0.00    -0.166 F 
ATOM     29  F   UNL     1       2.127   4.398   6.005  0.00  0.00    -0.166 F 
ATOM     30  F   UNL     1       1.276   6.220   4.921  0.00  0.00    -0.166 F 
ENDBRANCH  24  27
ENDBRANCH  17  25
ENDBRANCH   1  19
TORSDOF 5
