REMARK  Name = ZINC37443599
REMARK  10 active torsions:
REMARK  status: ('A' for Active; 'I' for Inactive)
REMARK    1  A    between atoms: C_1  and  C_2
REMARK    2  A    between atoms: C_7  and  N_12
REMARK    3  A    between atoms: C_9  and  C_11
REMARK    4  A    between atoms: C_13  and  C_15
REMARK    5  A    between atoms: C_15  and  C_33
REMARK    6  A    between atoms: N_27  and  C_28
REMARK    7  A    between atoms: C_28  and  C_29
REMARK    8  A    between atoms: C_29  and  C_30
REMARK    9  A    between atoms: C_30  and  C_31
REMARK   10  A    between atoms: C_30  and  C_32
REMARK                            x       y       z     vdW  Elec       q    Type
REMARK                         _______ _______ _______ _____ _____    ______ ____
ROOT
ATOM      1  C   UNL     1      -2.287  -4.298   1.743  0.00  0.00    +0.128 C 
ATOM      2  C   UNL     1      -2.567  -4.994   0.412  0.00  0.00    +0.157 C 
ATOM      3  N   UNL     1      -2.727  -3.981  -0.636  0.00  0.00    -0.331 N 
ATOM      4  C   UNL     1      -2.466  -4.053  -1.971  0.00  0.00    +0.088 A 
ATOM      5  C   UNL     1      -1.987  -4.860  -3.032  0.00  0.00    +0.067 A 
ATOM      6  C   UNL     1      -2.057  -4.126  -4.155  0.00  0.00    +0.198 A 
ATOM      7  O   UNL     1      -2.550  -2.910  -3.865  0.00  0.00    -0.461 OA
ATOM      8  C   UNL     1      -2.808  -2.828  -2.542  0.00  0.00    +0.153 A 
ATOM      9  C   UNL     1      -3.281  -1.998  -1.515  0.00  0.00    +0.079 A 
ATOM     10  C   UNL     1      -3.221  -2.710  -0.353  0.00  0.00    +0.109 A 
ATOM     11  C   UNL     1      -3.568  -2.327   1.021  0.00  0.00    +0.264 C 
ATOM     12  O   UNL     1      -4.158  -1.291   1.268  0.00  0.00    -0.268 OA
ATOM     13  N   UNL     1      -3.197  -3.187   1.998  0.00  0.00    -0.281 N 
ATOM     14  C   UNL     1      -2.427  -5.321   2.873  0.00  0.00    +0.043 C 
ENDROOT
BRANCH   1  16
ATOM     15  N   UNL     1      -0.612  -2.548   1.244  0.00  0.00    -0.310 N 
ATOM     16  C   UNL     1      -0.873  -3.776   1.733  0.00  0.00    +0.238 C 
ATOM     17  O   UNL     1       0.030  -4.462   2.164  0.00  0.00    -0.273 OA
ATOM     18  H   UNL     1      -1.333  -2.000   0.898  0.00  0.00    +0.149 HD
BRANCH  15  24
ATOM     19  C   UNL     1      -0.019   1.526   0.010  0.00  0.00    +0.008 C 
ATOM     20  C   UNL     1       0.002  -0.004   0.002  0.00  0.00    -0.009 C 
ATOM     21  C   UNL     1       0.718  -0.497  -1.257  0.00  0.00    +0.003 C 
ATOM     22  C   UNL     1       0.739  -2.027  -1.265  0.00  0.00    +0.002 C 
ATOM     23  C   UNL     1       1.479  -2.534  -0.026  0.00  0.00    +0.022 C 
ATOM     24  C   UNL     1       0.763  -2.041   1.233  0.00  0.00    +0.076 C 
ATOM     25  C   UNL     1       0.742  -0.511   1.242  0.00  0.00    +0.009 C 
ATOM     26  C   UNL     1       0.026  -0.018   2.500  0.00  0.00    +0.009 C 
ENDBRANCH  15  24
ENDBRANCH   1  16
BRANCH  13  27
ATOM     27  C   UNL     1      -3.725  -2.997   3.351  0.00  0.00    +0.109 C 
BRANCH  27  28
ATOM     28  C   UNL     1      -2.787  -2.083   4.141  0.00  0.00    +0.022 C 
BRANCH  28  29
ATOM     29  C   UNL     1      -3.338  -1.885   5.554  0.00  0.00    -0.016 C 
ATOM     30  C   UNL     1      -2.339  -1.075   6.383  0.00  0.00    +0.007 C 
ATOM     31  C   UNL     1      -4.668  -1.132   5.481  0.00  0.00    +0.007 C 
ENDBRANCH  28  29
ENDBRANCH  27  28
ENDBRANCH  13  27
TORSDOF 5
