REMARK  Name = ZINC39964926
REMARK  13 active torsions:
REMARK  status: ('A' for Active; 'I' for Inactive)
REMARK    1  A    between atoms: C_1  and  C_2
REMARK    2  A    between atoms: C_2  and  O_3
REMARK    3  A    between atoms: O_3  and  C_4
REMARK    4  A    between atoms: C_4  and  C_6
REMARK    5  A    between atoms: C_8  and  N_17
REMARK    6  A    between atoms: C_18  and  C_20
REMARK    7  A    between atoms: C_20  and  S_21
REMARK    8  A    between atoms: S_21  and  C_22
REMARK    9  A    between atoms: C_25  and  C_28
REMARK   10  A    between atoms: C_30  and  O_36
REMARK   11  A    between atoms: C_32  and  O_34
REMARK   12  A    between atoms: O_34  and  C_35
REMARK   13  A    between atoms: O_36  and  C_37
REMARK                            x       y       z     vdW  Elec       q    Type
REMARK                         _______ _______ _______ _____ _____    ______ ____
ROOT
ATOM      1  N   UNL     1       1.468  -0.742   4.376  0.00  0.00    -0.301 N 
ATOM      2  C   UNL     1       0.737   0.305   4.806  0.00  0.00    +0.224 C 
ATOM      3  O   UNL     1      -0.472   0.282   4.708  0.00  0.00    -0.275 OA
ATOM      4  H   UNL     1       2.434  -0.724   4.454  0.00  0.00    +0.150 HD
ENDROOT
BRANCH   1   6
ATOM      5  C   UNL     1       1.516  -2.381   2.500  0.00  0.00    +0.155 C 
ATOM      6  C   UNL     1       0.803  -1.908   3.790  0.00  0.00    +0.153 C 
ATOM      7  S   UNL     1       1.052  -3.417   4.816  0.00  0.00    -0.106 S 
ATOM      8  C   UNL     1       1.318  -4.583   3.501  0.00  0.00    -0.013 C 
ATOM      9  C   UNL     1       1.528  -3.885   2.393  0.00  0.00    -0.044 C 
ATOM     10  C   UNL     1       1.774  -4.585   1.058  0.00  0.00    +0.032 C 
ATOM     11  C   UNL     1       2.196  -6.030   1.321  0.00  0.00    +0.005 C 
ATOM     12  C   UNL     1       1.175  -6.702   2.244  0.00  0.00    +0.005 C 
ATOM     13  C   UNL     1       1.302  -6.080   3.636  0.00  0.00    +0.042 C 
BRANCH   5  14
ATOM     14  C   UNL     1       0.801  -1.808   1.304  0.00  0.00    +0.317 C 
ATOM     15  O   UNL     1       0.324  -2.546   0.475  0.00  0.00    -0.250 OA
BRANCH  14  16
ATOM     16  O   UNL     1       0.693  -0.477   1.160  0.00  0.00    -0.464 OA
BRANCH  16  18
ATOM     17  C   UNL     1      -0.019   1.526   0.010  0.00  0.00    +0.048 C 
ATOM     18  C   UNL     1       0.002  -0.004   0.002  0.00  0.00    +0.229 C 
ENDBRANCH  16  18
ENDBRANCH  14  16
ENDBRANCH   5  14
ENDBRANCH   1   6
BRANCH   2  19
ATOM     19  C   UNL     1       1.421   1.505   5.409  0.00  0.00    +0.173 C 
BRANCH  19  20
ATOM     20  S   UNL     1       0.176   2.735   5.886  0.00  0.00    -0.077 S 
BRANCH  20  21
ATOM     21  C   UNL     1       1.121   4.058   6.565  0.00  0.00    +0.185 A 
ATOM     22  N   UNL     1       2.431   4.093   6.676  0.00  0.00    -0.201 NA
ATOM     23  H   UNL     1      -0.306   5.475   7.105  0.00  0.00    +0.191 HD
ATOM     24  C   UNL     1       2.804   5.253   7.237  0.00  0.00    +0.182 A 
ATOM     25  N   UNL     1       1.731   5.968   7.490  0.00  0.00    -0.152 NA
ATOM     26  N   UNL     1       0.627   5.216   7.057  0.00  0.00    -0.253 N 
BRANCH  24  27
ATOM     27  C   UNL     1       4.201   5.660   7.527  0.00  0.00    +0.028 A 
ATOM     28  C   UNL     1       5.257   4.811   7.206  0.00  0.00    +0.057 A 
ATOM     29  C   UNL     1       6.561   5.195   7.477  0.00  0.00    +0.124 A 
ATOM     30  C   UNL     1       6.814   6.424   8.069  0.00  0.00    +0.091 A 
ATOM     31  C   UNL     1       5.765   7.272   8.391  0.00  0.00    +0.124 A 
ATOM     32  C   UNL     1       4.459   6.896   8.116  0.00  0.00    +0.057 A 
BRANCH  31  33
ATOM     33  O   UNL     1       6.017   8.475   8.971  0.00  0.00    -0.495 OA
ATOM     34  C   UNL     1       7.386   8.800   9.220  0.00  0.00    +0.277 C 
ENDBRANCH  31  33
BRANCH  29  35
ATOM     35  O   UNL     1       7.591   4.367   7.164  0.00  0.00    -0.495 OA
ATOM     36  C   UNL     1       8.909   4.826   7.471  0.00  0.00    +0.277 C 
ENDBRANCH  29  35
ENDBRANCH  24  27
ENDBRANCH  20  21
ENDBRANCH  19  20
ENDBRANCH   2  19
TORSDOF 10
