REMARK  Name = ZINC03037227
REMARK  10 active torsions:
REMARK  status: ('A' for Active; 'I' for Inactive)
REMARK    1  A    between atoms: C_1  and  C_2
REMARK    2  A    between atoms: C_6  and  C_35
REMARK    3  A    between atoms: C_7  and  N_8
REMARK    4  A    between atoms: N_8  and  C_9
REMARK    5  A    between atoms: C_9  and  N_11
REMARK    6  A    between atoms: N_11  and  N_12
REMARK    7  A    between atoms: C_16  and  S_26
REMARK    8  A    between atoms: N_20  and  C_23
REMARK    9  A    between atoms: C_23  and  C_24
REMARK   10  A    between atoms: S_26  and  N_29
REMARK                            x       y       z     vdW  Elec       q    Type
REMARK                         _______ _______ _______ _____ _____    ______ ____
ROOT
ATOM      1  N   UNL     1      -0.109  -0.004   5.334  0.00  0.00    -0.175 NA
ATOM      2  C   UNL     1      -0.192   0.325   6.601  0.00  0.00    +0.153 C 
ATOM      3  C   UNL     1      -0.052   1.676   7.193  0.00  0.00    +0.030 A 
ATOM      4  C   UNL     1       0.194   2.933   6.650  0.00  0.00    +0.040 A 
ATOM      5  C   UNL     1       0.271   4.033   7.480  0.00  0.00    +0.106 A 
ATOM      6  C   UNL     1       0.106   3.885   8.847  0.00  0.00    +0.030 A 
ATOM      7  C   UNL     1      -0.138   2.642   9.395  0.00  0.00    +0.026 A 
ATOM      8  C   UNL     1      -0.220   1.522   8.575  0.00  0.00    +0.046 A 
ATOM      9  N   UNL     1      -0.451   0.181   8.862  0.00  0.00    -0.262 N 
ATOM     10  C   UNL     1      -0.452  -0.568   7.746  0.00  0.00    +0.272 C 
ATOM     11  O   UNL     1      -0.632  -1.770   7.691  0.00  0.00    -0.268 OA
ENDROOT
BRANCH   5  12
ATOM     12  S   UNL     1       0.582   5.629   6.799  0.00  0.00    +0.061 S 
ATOM     13  O   UNL     1       1.149   6.411   7.841  0.00  0.00    -0.153 OA
ATOM     14  O   UNL     1       1.241   5.419   5.558  0.00  0.00    -0.153 OA
BRANCH  12  15
ATOM     15  N   UNL     1      -0.888   6.305   6.447  0.00  0.00    -0.172 NA
ATOM     16  C   UNL     1      -1.517   6.107   5.131  0.00  0.00    +0.137 C 
ATOM     17  C   UNL     1      -2.959   5.636   5.351  0.00  0.00    +0.177 C 
ATOM     18  O   UNL     1      -3.619   6.540   6.240  0.00  0.00    -0.377 OA
ATOM     19  C   UNL     1      -3.042   6.601   7.547  0.00  0.00    +0.177 C 
ATOM     20  C   UNL     1      -1.607   7.117   7.441  0.00  0.00    +0.137 C 
ENDBRANCH  12  15
ENDBRANCH   5  12
BRANCH   1  21
ATOM     21  N   UNL     1      -0.274  -1.340   4.945  0.00  0.00    -0.217 N 
ATOM     22  H   UNL     1      -0.450  -2.021   5.613  0.00  0.00    +0.176 HD
BRANCH  21  23
ATOM     23  C   UNL     1      -0.189  -1.678   3.643  0.00  0.00    +0.154 C 
ATOM     24  S   UNL     1      -0.391  -3.311   3.168  0.00  0.00    -0.017 S 
BRANCH  23  25
ATOM     25  N   UNL     1       0.056  -0.732   2.716  0.00  0.00    -0.295 N 
ATOM     26  H   UNL     1       0.237   0.181   2.990  0.00  0.00    +0.154 HD
BRANCH  25  33
ATOM     27  C   UNL     1       2.556  -0.987   1.381  0.00  0.00    +0.045 C 
ATOM     28  C   UNL     1       1.246  -1.200   0.667  0.00  0.00    -0.029 A 
ATOM     29  C   UNL     1       1.235  -1.536  -0.673  0.00  0.00    +0.005 A 
ATOM     30  C   UNL     1       0.033  -1.732  -1.328  0.00  0.00    +0.001 A 
ATOM     31  C   UNL     1      -1.161  -1.592  -0.645  0.00  0.00    +0.005 A 
ATOM     32  C   UNL     1      -1.157  -1.256   0.694  0.00  0.00    -0.029 A 
ATOM     33  C   UNL     1       0.048  -1.065   1.357  0.00  0.00    +0.039 A 
ATOM     34  C   UNL     1      -2.459  -1.104   1.438  0.00  0.00    +0.045 C 
ENDBRANCH  25  33
ENDBRANCH  23  25
ENDBRANCH  21  23
ENDBRANCH   1  21
BRANCH   9  35
ATOM     35  C   UNL     1      -0.672  -0.347  10.211  0.00  0.00    +0.140 C 
BRANCH  35  36
ATOM     36  C   UNL     1      -2.145  -0.319  10.526  0.00  0.00    -0.015 C 
ATOM     37  C   UNL     1      -2.756  -1.416  10.900  0.00  0.00    +0.005 C 
ENDBRANCH  35  36
ENDBRANCH   9  35
TORSDOF 8
