REMARK  Name = ZINC09266881
REMARK  3 active torsions:
REMARK  status: ('A' for Active; 'I' for Inactive)
REMARK    1  A    between atoms: C_1  and  C_2
REMARK    2  A    between atoms: C_6  and  N_8
REMARK    3  A    between atoms: C_27  and  C_32
REMARK                            x       y       z     vdW  Elec       q    Type
REMARK                         _______ _______ _______ _____ _____    ______ ____
ROOT
ATOM      1  N   UNL     1      -3.349   0.326   1.403  0.00  0.00    -0.210 N 
ATOM      2  C   UNL     1      -4.167   1.242   0.871  0.00  0.00    +0.228 C 
ATOM      3  O   UNL     1      -5.318   1.047   0.543  0.00  0.00    -0.275 OA
ATOM      4  C   UNL     1      -3.432   2.557   0.744  0.00  0.00    +0.074 C 
ATOM      5  C   UNL     1      -3.211   2.893  -0.743  0.00  0.00    -0.054 C 
ATOM      6  C   UNL     1      -4.266   2.163  -1.593  0.00  0.00    -0.016 C 
ATOM      7  C   UNL     1      -3.628   0.813  -1.974  0.00  0.00    -0.020 C 
ATOM      8  C   UNL     1      -2.242   0.818  -1.298  0.00  0.00    -0.076 C 
ATOM      9  C   UNL     1      -1.081   2.391   0.102  0.00  0.00    +0.053 C 
ATOM     10  C   UNL     1      -2.020   2.234   1.303  0.00  0.00    +0.089 C 
ATOM     11  C   UNL     1      -2.121   0.774   1.684  0.00  0.00    +0.229 C 
ATOM     12  O   UNL     1      -1.228   0.113   2.169  0.00  0.00    -0.275 OA
ATOM     13  C   UNL     1       0.032   1.382   0.141  0.00  0.00    -0.026 A 
ATOM     14  C   UNL     1       0.062   0.005   0.152  0.00  0.00    +0.024 A 
ATOM     15  C   UNL     1       1.275  -0.661   0.198  0.00  0.00    +0.042 A 
ATOM     16  C   UNL     1       2.455   0.061   0.233  0.00  0.00    +0.025 A 
ATOM     17  C   UNL     1       2.429   1.440   0.221  0.00  0.00    -0.028 A 
ATOM     18  C   UNL     1       1.213   2.118   0.175  0.00  0.00    +0.039 A 
ATOM     19  N   UNL     1       0.930   3.486   0.156  0.00  0.00    -0.286 N 
ATOM     20  C   UNL     1      -0.394   3.730   0.111  0.00  0.00    +0.212 C 
ATOM     21  O   UNL     1      -0.928   4.818   0.088  0.00  0.00    -0.277 OA
ATOM     22  C   UNL     1       3.720   2.216   0.257  0.00  0.00    +0.046 C 
ATOM     23 CL   UNL     1       1.315  -2.396   0.213  0.00  0.00    -0.084 Cl
ATOM     24  H   UNL     1       1.608   4.179   0.172  0.00  0.00    +0.155 HD
ATOM     25  N   UNL     1      -1.966   2.233  -1.063  0.00  0.00    +0.395 N 
ATOM     26  H   UNL     1      -1.536   2.651  -1.897  0.00  0.00    -0.079 HD
ENDROOT
BRANCH   1  32
ATOM     27  C   UNL     1      -6.123  -2.868   3.912  0.00  0.00    +0.044 C 
ATOM     28  C   UNL     1      -5.090  -2.572   2.856  0.00  0.00    -0.049 A 
ATOM     29  C   UNL     1      -4.534  -3.606   2.124  0.00  0.00    +0.003 A 
ATOM     30  C   UNL     1      -3.586  -3.338   1.154  0.00  0.00    +0.002 A 
ATOM     31  C   UNL     1      -3.192  -2.036   0.912  0.00  0.00    +0.024 A 
ATOM     32  C   UNL     1      -3.748  -0.997   1.645  0.00  0.00    +0.044 A 
ATOM     33  C   UNL     1      -4.695  -1.269   2.623  0.00  0.00    +0.027 A 
ENDBRANCH   1  32
TORSDOF 1
