REMARK  Name = ZINC35508131
REMARK  7 active torsions:
REMARK  status: ('A' for Active; 'I' for Inactive)
REMARK    1  A    between atoms: C_1  and  C_2
REMARK    2  A    between atoms: C_2  and  N_3
REMARK    3  A    between atoms: N_3  and  C_4
REMARK    4  A    between atoms: C_4  and  C_6
REMARK    5  A    between atoms: C_4  and  C_15
REMARK    6  A    between atoms: C_9  and  O_13
REMARK    7  A    between atoms: O_13  and  C_14
REMARK                            x       y       z     vdW  Elec       q    Type
REMARK                         _______ _______ _______ _____ _____    ______ ____
ROOT
ATOM      1  C   UNL     1      -1.356  -1.981   0.004  0.00  0.00    -0.009 C 
ENDROOT
BRANCH   1   2
ATOM      2  C   UNL     1      -2.766  -2.502  -0.109  0.00  0.00    -0.056 A 
ATOM      3  C   UNL     1      -3.789  -1.881   0.584  0.00  0.00    +0.006 A 
ATOM      4  C   UNL     1      -5.082  -2.357   0.482  0.00  0.00    +0.047 A 
ATOM      5  C   UNL     1      -5.354  -3.458  -0.316  0.00  0.00    +0.134 A 
ATOM      6  C   UNL     1      -4.326  -4.080  -1.010  0.00  0.00    +0.060 A 
ATOM      7  C   UNL     1      -3.035  -3.597  -0.909  0.00  0.00    +0.021 A 
ATOM      8 BR   UNL     1      -4.692  -5.582  -2.099  0.00  0.00    -0.047 Br
BRANCH   5   9
ATOM      9  O   UNL     1      -6.625  -3.928  -0.416  0.00  0.00    -0.494 OA
ATOM     10  C   UNL     1      -7.633  -3.239   0.327  0.00  0.00    +0.277 C 
ENDBRANCH   5   9
ENDBRANCH   1   2
BRANCH   1  11
ATOM     11  C   UNL     1      -0.737  -2.482   1.284  0.00  0.00    -0.050 A 
ATOM     12  C   UNL     1       0.127  -3.562   1.269  0.00  0.00    +0.010 A 
ATOM     13  C   UNL     1       0.667  -3.987   2.437  0.00  0.00    +0.045 A 
ATOM     14  S   UNL     1      -0.048  -2.848   3.611  0.00  0.00    -0.105 S 
ATOM     15  C   UNL     1      -1.014  -1.878   2.465  0.00  0.00    +0.047 A 
ENDBRANCH   1  11
BRANCH   1  16
ATOM     16  N   UNL     1      -1.376  -0.512   0.012  0.00  0.00    +0.386 N 
ATOM     17  H   UNL     1      -1.848  -0.187   0.843  0.00  0.00    -0.085 HD
ATOM     18  H   UNL     1      -1.864  -0.178  -0.805  0.00  0.00    -0.085 HD
BRANCH  16  20
ATOM     19  C   UNL     1      -0.019   1.526   0.010  0.00  0.00    -0.017 C 
ATOM     20  C   UNL     1       0.002  -0.004   0.002  0.00  0.00    -0.085 C 
ENDBRANCH  16  20
ENDBRANCH   1  16
TORSDOF 5
