REMARK  Name = ZINC08709771
REMARK  9 active torsions:
REMARK  status: ('A' for Active; 'I' for Inactive)
REMARK    1  A    between atoms: C_1  and  C_2
REMARK    2  A    between atoms: C_2  and  C_3
REMARK    3  A    between atoms: C_2  and  C_4
REMARK    4  A    between atoms: C_2  and  C_5
REMARK    5  A    between atoms: C_8  and  S_11
REMARK    6  A    between atoms: N_9  and  N_10
REMARK    7  A    between atoms: S_11  and  C_12
REMARK    8  A    between atoms: C_12  and  C_13
REMARK    9  A    between atoms: C_16  and  C_18
REMARK                            x       y       z     vdW  Elec       q    Type
REMARK                         _______ _______ _______ _____ _____    ______ ____
ROOT
ATOM      1  S   UNL     1       3.799  -5.554  -1.860  0.00  0.00    -0.078 S 
ENDROOT
BRANCH   1   5
ATOM      2  C   UNL     1       6.914  -7.899  -1.733  0.00  0.00    +0.156 A 
ATOM      3  N   UNL     1       6.635  -7.732  -0.471  0.00  0.00    -0.131 NA
ATOM      4  N   UNL     1       5.610  -6.967  -0.343  0.00  0.00    -0.121 NA
ATOM      5  C   UNL     1       5.176  -6.601  -1.527  0.00  0.00    +0.209 A 
ATOM      6  N   UNL     1       5.992  -7.189  -2.451  0.00  0.00    -0.227 N 
BRANCH   2   8
ATOM      7  C   UNL     1       8.921  -9.236  -1.153  0.00  0.00    +0.019 C 
ATOM      8  C   UNL     1       8.040  -8.726  -2.297  0.00  0.00    +0.024 C 
ATOM      9  C   UNL     1       7.464  -9.916  -3.066  0.00  0.00    +0.019 C 
ATOM     10  C   UNL     1       8.881  -7.865  -3.242  0.00  0.00    +0.019 C 
ENDBRANCH   2   8
BRANCH   6  11
ATOM     11  N   UNL     1       5.906  -7.086  -3.811  0.00  0.00    -0.295 N 
ATOM     12  H   UNL     1       6.517  -6.362  -4.158  0.00  0.00    +0.163 HD
ATOM     13  H   UNL     1       6.106  -7.971  -4.253  0.00  0.00    +0.163 HD
ENDBRANCH   6  11
ENDBRANCH   1   5
BRANCH   1  14
ATOM     14  C   UNL     1       3.255  -5.203  -0.170  0.00  0.00    +0.133 C 
BRANCH  14  15
ATOM     15  C   UNL     1       2.051  -4.297  -0.208  0.00  0.00    +0.059 A 
ATOM     16  C   UNL     1       0.800  -4.828  -0.257  0.00  0.00    +0.071 A 
ATOM     17  S   UNL     1      -0.190  -3.339  -0.284  0.00  0.00    -0.075 S 
ATOM     18  C   UNL     1       1.166  -2.175  -0.227  0.00  0.00    +0.110 A 
ATOM     19  N   UNL     1       2.208  -2.994  -0.200  0.00  0.00    -0.243 NA
BRANCH  18  20
ATOM     20  C   UNL     1       1.134  -0.697  -0.219  0.00  0.00    +0.025 A 
ATOM     21  C   UNL     1       2.325   0.030  -0.172  0.00  0.00    +0.012 A 
ATOM     22  C   UNL     1       2.288   1.409  -0.165  0.00  0.00    +0.001 A 
ATOM     23  C   UNL     1       1.075   2.073  -0.205  0.00  0.00    +0.001 A 
ATOM     24  C   UNL     1      -0.110   1.360  -0.252  0.00  0.00    +0.020 A 
ATOM     25  C   UNL     1      -0.087  -0.021  -0.259  0.00  0.00    +0.051 A 
ATOM     26 CL   UNL     1      -1.575  -0.915  -0.318  0.00  0.00    -0.083 Cl
ENDBRANCH  18  20
ENDBRANCH  14  15
ENDBRANCH   1  14
TORSDOF 6
