REMARK  Name = ZINC15658582
REMARK  5 active torsions:
REMARK  status: ('A' for Active; 'I' for Inactive)
REMARK    1  A    between atoms: C_1  and  C_2
REMARK    2  A    between atoms: C_5  and  C_29
REMARK    3  A    between atoms: C_16  and  C_24
REMARK    4  A    between atoms: C_21  and  O_23
REMARK    5  A    between atoms: N_27  and  N_28
REMARK                            x       y       z     vdW  Elec       q    Type
REMARK                         _______ _______ _______ _____ _____    ______ ____
ROOT
ATOM      1  C   UNL     1       1.412   0.141   2.673  0.00  0.00    +0.014 C 
ATOM      2  C   UNL     1       0.685   0.983   1.615  0.00  0.00    +0.032 C 
ATOM      3  C   UNL     1      -0.818   0.793   1.759  0.00  0.00    +0.016 C 
ATOM      4  C   UNL     1      -1.637   1.314   0.580  0.00  0.00    -0.025 C 
ATOM      5  C   UNL     1      -1.105   0.832  -0.756  0.00  0.00    +0.001 C 
ATOM      6  C   UNL     1      -1.872   1.439  -1.932  0.00  0.00    +0.005 C 
ATOM      7  C   UNL     1      -1.775   2.969  -1.836  0.00  0.00    +0.004 C 
ATOM      8  C   UNL     1      -2.497   3.404  -0.570  0.00  0.00    -0.004 C 
ATOM      9  C   UNL     1      -1.834   2.818   0.677  0.00  0.00    -0.001 C 
ATOM     10  C   UNL     1      -0.576   3.561   1.089  0.00  0.00    +0.005 C 
ATOM     11  C   UNL     1      -0.841   5.066   1.266  0.00  0.00    +0.010 C 
ATOM     12  C   UNL     1      -1.365   5.624  -0.036  0.00  0.00    -0.003 C 
ATOM     13  C   UNL     1      -2.662   4.883  -0.416  0.00  0.00    +0.001 C 
ATOM     14  C   UNL     1      -3.175   5.700  -1.602  0.00  0.00    +0.007 C 
ATOM     15  C   UNL     1      -2.796   7.160  -1.233  0.00  0.00    +0.032 C 
ATOM     16  C   UNL     1      -1.905   7.072   0.038  0.00  0.00    +0.121 C 
ATOM     17  C   UNL     1      -0.292   5.583  -1.122  0.00  0.00    +0.014 C 
ATOM     18  C   UNL     1       0.386   1.130  -0.937  0.00  0.00    +0.056 C 
ATOM     19  C   UNL     1       1.120   0.526   0.240  0.00  0.00    +0.039 C 
ATOM     20  N   UNL     1       2.057  -0.325   0.080  0.00  0.00    -0.199 NA
ATOM     21  C   UNL     1      -3.044   0.674   0.755  0.00  0.00    +0.012 C 
ENDROOT
BRANCH  20  22
ATOM     22  N   UNL     1       2.515  -0.628  -1.209  0.00  0.00    -0.283 N 
ATOM     23  H   UNL     1       2.202  -0.113  -1.969  0.00  0.00    +0.164 HD
ATOM     24  H   UNL     1       3.146  -1.353  -1.341  0.00  0.00    +0.164 HD
ENDBRANCH  20  22
BRANCH  16  25
ATOM     25  O   UNL     1      -2.681   7.258   1.220  0.00  0.00    -0.391 OA
ATOM     26  H   UNL     1      -3.115   8.120   1.274  0.00  0.00    +0.210 HD
ENDBRANCH  16  25
TORSDOF 2
