REMARK  Name = ZINC39883298
REMARK  7 active torsions:
REMARK  status: ('A' for Active; 'I' for Inactive)
REMARK    1  A    between atoms: C_1  and  C_2
REMARK    2  A    between atoms: N_5  and  S_11
REMARK    3  A    between atoms: C_7  and  C_10
REMARK    4  A    between atoms: S_11  and  C_14
REMARK    5  A    between atoms: C_17  and  N_20
REMARK    6  A    between atoms: C_21  and  C_23
REMARK    7  A    between atoms: C_23  and  C_24
REMARK                            x       y       z     vdW  Elec       q    Type
REMARK                         _______ _______ _______ _____ _____    ______ ____
ROOT
ATOM      1  C   UNL     1       2.730   2.382  -2.126  0.00  0.00    +0.106 A 
ATOM      2  C   UNL     1       1.740   3.088  -2.783  0.00  0.00    +0.030 A 
ATOM      3  C   UNL     1       1.590   4.443  -2.558  0.00  0.00    +0.025 A 
ATOM      4  C   UNL     1       2.435   5.095  -1.670  0.00  0.00    +0.034 A 
ATOM      5  C   UNL     1       3.429   4.383  -1.011  0.00  0.00    +0.025 A 
ATOM      6  C   UNL     1       3.570   3.028  -1.237  0.00  0.00    +0.030 A 
ENDROOT
BRANCH   4   7
ATOM      7  N   UNL     1       2.286   6.467  -1.441  0.00  0.00    -0.285 N 
ATOM      8  C   UNL     1       1.062   7.028  -1.479  0.00  0.00    +0.222 C 
ATOM      9  O   UNL     1       0.079   6.330  -1.618  0.00  0.00    -0.275 OA
ATOM     10  H   UNL     1       3.065   7.015  -1.254  0.00  0.00    +0.155 HD
BRANCH   8  11
ATOM     11  C   UNL     1       0.912   8.522  -1.351  0.00  0.00    +0.135 C 
BRANCH  11  12
ATOM     12  C   UNL     1      -0.547   8.890  -1.425  0.00  0.00    +0.007 A 
ATOM     13  C   UNL     1      -1.227   9.270  -2.515  0.00  0.00    +0.200 A 
ATOM     14  O   UNL     1      -2.510   9.517  -2.199  0.00  0.00    -0.463 OA
ATOM     15  C   UNL     1      -2.730   9.310  -0.885  0.00  0.00    +0.135 A 
ATOM     16  C   UNL     1      -1.512   8.897  -0.318  0.00  0.00    +0.025 A 
ATOM     17  C   UNL     1      -1.436   8.602   1.042  0.00  0.00    +0.027 A 
ATOM     18  C   UNL     1      -2.564   8.715   1.827  0.00  0.00    +0.019 A 
ATOM     19  C   UNL     1      -3.768   9.120   1.267  0.00  0.00    +0.019 A 
ATOM     20  C   UNL     1      -3.853   9.422  -0.076  0.00  0.00    +0.048 A 
ATOM     21 BR   UNL     1      -2.470   8.316   3.673  0.00  0.00    -0.050 Br
ENDBRANCH  11  12
ENDBRANCH   8  11
ENDBRANCH   4   7
BRANCH   1  22
ATOM     22  S   UNL     1       2.918   0.654  -2.415  0.00  0.00    +0.061 S 
ATOM     23  O   UNL     1       4.262   0.331  -2.087  0.00  0.00    -0.153 OA
ATOM     24  O   UNL     1       2.364   0.395  -3.698  0.00  0.00    -0.153 OA
BRANCH  22  28
ATOM     25  C   UNL     1      -0.310   1.559  -0.440  0.00  0.00    +0.039 C 
ATOM     26  C   UNL     1      -0.322   0.029  -0.478  0.00  0.00    +0.131 C 
ATOM     27  C   UNL     1       0.560  -0.461  -1.632  0.00  0.00    +0.140 C 
ATOM     28  N   UNL     1       1.960  -0.133  -1.318  0.00  0.00    -0.172 NA
ATOM     29  C   UNL     1       2.483  -0.526   0.000  0.00  0.00    +0.140 C 
ATOM     30  C   UNL     1       1.507  -0.033   1.075  0.00  0.00    +0.131 C 
ATOM     31  O   UNL     1       0.187  -0.483   0.756  0.00  0.00    -0.371 OA
ATOM     32  C   UNL     1       1.923  -0.591   2.437  0.00  0.00    +0.039 C 
ENDBRANCH  22  28
ENDBRANCH   1  22
TORSDOF 5
