REMARK  Name = ZINC24075012
REMARK  8 active torsions:
REMARK  status: ('A' for Active; 'I' for Inactive)
REMARK    1  A    between atoms: C_1  and  C_2
REMARK    2  A    between atoms: C_5  and  C_28
REMARK    3  A    between atoms: C_6  and  N_8
REMARK    4  A    between atoms: C_9  and  C_11
REMARK    5  A    between atoms: C_11  and  C_13
REMARK    6  A    between atoms: C_11  and  S_14
REMARK    7  A    between atoms: S_14  and  C_15
REMARK    8  A    between atoms: C_18  and  C_21
REMARK                            x       y       z     vdW  Elec       q    Type
REMARK                         _______ _______ _______ _____ _____    ______ ____
ROOT
ATOM      1  C   UNL     1      -2.478   1.089   0.142  0.00  0.00    +0.137 C 
ATOM      2  C   UNL     1      -2.800   0.862   1.621  0.00  0.00    +0.029 C 
ENDROOT
BRANCH   1   4
ATOM      3  N   UNL     1      -0.011   0.966   0.007  0.00  0.00    -0.284 N 
ATOM      4  C   UNL     1      -1.121   1.731   0.017  0.00  0.00    +0.230 C 
ATOM      5  O   UNL     1      -1.026   2.937  -0.076  0.00  0.00    -0.274 OA
ATOM      6  H   UNL     1      -0.099  -0.131   0.022  0.00  0.00    +0.155 HD
BRANCH   3  12
ATOM      7  C   UNL     1       2.902   4.629  -1.499  0.00  0.00    +0.044 C 
ATOM      8  C   UNL     1       2.693   3.342  -0.743  0.00  0.00    -0.049 A 
ATOM      9  C   UNL     1       3.752   2.753  -0.076  0.00  0.00    +0.004 A 
ATOM     10  C   UNL     1       3.564   1.572   0.619  0.00  0.00    +0.005 A 
ATOM     11  C   UNL     1       2.317   0.977   0.648  0.00  0.00    -0.029 A 
ATOM     12  C   UNL     1       1.253   1.566  -0.021  0.00  0.00    +0.037 A 
ATOM     13  C   UNL     1       1.446   2.749  -0.722  0.00  0.00    +0.027 A 
ATOM     14  C   UNL     1       2.114  -0.310   1.405  0.00  0.00    +0.045 C 
ENDBRANCH   3  12
ENDBRANCH   1   4
BRANCH   1  15
ATOM     15  S   UNL     1      -3.729   2.174  -0.588  0.00  0.00    -0.074 S 
BRANCH  15  16
ATOM     16  C   UNL     1      -5.150   1.142  -0.446  0.00  0.00    +0.185 A 
ATOM     17  N   UNL     1      -6.419   1.450  -0.847  0.00  0.00    -0.201 NA
ATOM     18  H   UNL     1      -4.377  -0.679   0.492  0.00  0.00    +0.191 HD
ATOM     19  C   UNL     1      -7.184   0.350  -0.537  0.00  0.00    +0.182 A 
ATOM     20  N   UNL     1      -6.385  -0.531   0.020  0.00  0.00    -0.152 NA
ATOM     21  N   UNL     1      -5.186  -0.068   0.066  0.00  0.00    -0.253 N 
BRANCH  19  22
ATOM     22  C   UNL     1      -8.632   0.189  -0.784  0.00  0.00    +0.021 A 
ATOM     23  C   UNL     1      -9.362   1.223  -1.373  0.00  0.00    +0.013 A 
ATOM     24  C   UNL     1     -10.712   1.065  -1.605  0.00  0.00    +0.021 A 
ATOM     25  C   UNL     1     -11.347  -0.113  -1.246  0.00  0.00    +0.041 A 
ATOM     26  C   UNL     1     -10.629  -1.140  -0.656  0.00  0.00    +0.021 A 
ATOM     27  C   UNL     1      -9.277  -0.996  -0.424  0.00  0.00    +0.013 A 
ATOM     28 CL   UNL     1     -13.048  -0.301  -1.536  0.00  0.00    -0.084 Cl
ENDBRANCH  19  22
ENDBRANCH  15  16
ENDBRANCH   1  15
TORSDOF 5
