REMARK  Name = ZINC40662383
REMARK  5 active torsions:
REMARK  status: ('A' for Active; 'I' for Inactive)
REMARK    1  A    between atoms: C_1  and  N_2
REMARK    2  A    between atoms: N_2  and  C_3
REMARK    3  A    between atoms: C_3  and  C_4
REMARK    4  A    between atoms: C_11  and  N_26
REMARK    5  A    between atoms: C_12  and  N_16
REMARK                            x       y       z     vdW  Elec       q    Type
REMARK                         _______ _______ _______ _____ _____    ______ ____
ROOT
ATOM      1  C   UNL     1      -1.701   0.259   0.476  0.00  0.00    +0.131 C 
ATOM      2  N   UNL     1      -0.353   0.024  -0.045  0.00  0.00    -0.312 N 
ATOM      3  C   UNL     1      -0.172  -0.768  -1.173  0.00  0.00    +0.147 A 
ATOM      4  C   UNL     1      -0.104  -0.189  -2.442  0.00  0.00    +0.104 A 
ATOM      5  C   UNL     1       0.078  -1.030  -3.541  0.00  0.00    +0.129 A 
ATOM      6  N   UNL     1       0.179  -2.342  -3.340  0.00  0.00    -0.332 N 
ATOM      7  C   UNL     1       0.110  -2.847  -2.125  0.00  0.00    +0.200 A 
ATOM      8  N   UNL     1      -0.056  -2.089  -1.060  0.00  0.00    -0.221 NA
ATOM      9  H   UNL     1       0.306  -2.934  -4.098  0.00  0.00    +0.168 HD
ENDROOT
BRANCH   5  10
ATOM     10  N   UNL     1       0.153  -0.505  -4.827  0.00  0.00    -0.285 N 
ATOM     11  C   UNL     1       1.452  -0.159  -5.418  0.00  0.00    +0.113 C 
ATOM     12  C   UNL     1       1.310   1.211  -6.094  0.00  0.00    +0.024 C 
ATOM     13  C   UNL     1       0.293   1.099  -7.229  0.00  0.00    +0.038 C 
ATOM     14  C   UNL     1      -0.981   0.467  -6.735  0.00  0.00    -0.026 A 
ATOM     15  C   UNL     1      -1.009  -0.304  -5.582  0.00  0.00    +0.038 A 
ATOM     16  C   UNL     1      -2.201  -0.882  -5.158  0.00  0.00    +0.024 A 
ATOM     17  C   UNL     1      -3.358  -0.693  -5.886  0.00  0.00    +0.002 A 
ATOM     18  C   UNL     1      -3.331   0.073  -7.038  0.00  0.00    +0.000 A 
ATOM     19  C   UNL     1      -2.147   0.658  -7.457  0.00  0.00    +0.005 A 
ENDBRANCH   5  10
BRANCH   4  20
ATOM     20  N   UNL     1      -0.216   1.201  -2.608  0.00  0.00    -0.353 N 
ATOM     21  H   UNL     1      -0.249   1.781  -1.831  0.00  0.00    +0.143 HD
ATOM     22  H   UNL     1      -0.261   1.581  -3.499  0.00  0.00    +0.143 HD
ENDBRANCH   4  20
BRANCH   2  23
ATOM     23  C   UNL     1       0.806   0.623   0.622  0.00  0.00    +0.141 C 
BRANCH  23  24
ATOM     24  C   UNL     1       1.322  -0.321   1.677  0.00  0.00    -0.030 A 
ATOM     25  C   UNL     1       0.829  -0.254   2.966  0.00  0.00    +0.005 A 
ATOM     26  C   UNL     1       1.303  -1.120   3.934  0.00  0.00    +0.000 A 
ATOM     27  C   UNL     1       2.269  -2.054   3.611  0.00  0.00    +0.000 A 
ATOM     28  C   UNL     1       2.762  -2.122   2.322  0.00  0.00    +0.000 A 
ATOM     29  C   UNL     1       2.285  -1.259   1.353  0.00  0.00    +0.005 A 
ENDBRANCH  23  24
ENDBRANCH   2  23
TORSDOF 4
