REMARK  Name = ZINC43211738
REMARK  10 active torsions:
REMARK  status: ('A' for Active; 'I' for Inactive)
REMARK    1  A    between atoms: C_1  and  C_2
REMARK    2  A    between atoms: C_7  and  N_8
REMARK    3  A    between atoms: C_13  and  C_27
REMARK    4  A    between atoms: C_16  and  C_21
REMARK    5  A    between atoms: C_16  and  C_24
REMARK    6  A    between atoms: C_21  and  C_22
REMARK    7  A    between atoms: C_21  and  C_23
REMARK    8  A    between atoms: C_28  and  C_40
REMARK    9  A    between atoms: N_29  and  C_39
REMARK   10  A    between atoms: N_30  and  C_33
REMARK                            x       y       z     vdW  Elec       q    Type
REMARK                         _______ _______ _______ _____ _____    ______ ____
ROOT
ATOM      1  N   UNL     1      -0.029   0.228   4.004  0.00  0.00    -0.210 N 
ATOM      2  C   UNL     1      -1.125   0.864   4.531  0.00  0.00    +0.229 C 
ATOM      3  O   UNL     1      -2.258   0.440   4.613  0.00  0.00    -0.275 OA
ATOM      4  C   UNL     1      -0.633   2.147   4.967  0.00  0.00    +0.077 C 
ATOM      5  C   UNL     1      -0.978   3.245   5.886  0.00  0.00    -0.020 C 
ATOM      6  N   UNL     1       0.272   4.081   5.862  0.00  0.00    +0.396 N 
ATOM      7  C   UNL     1       1.403   3.199   5.443  0.00  0.00    +0.050 C 
ATOM      8  C   UNL     1       0.822   1.777   5.462  0.00  0.00    +0.086 C 
ATOM      9  C   UNL     1       1.146   0.849   4.324  0.00  0.00    +0.229 C 
ATOM     10  O   UNL     1       2.226   0.688   3.797  0.00  0.00    -0.275 OA
ATOM     11  H   UNL     1       0.166   4.837   5.203  0.00  0.00    -0.083 HD
ATOM     12  H   UNL     1       0.452   4.453   6.783  0.00  0.00    -0.083 HD
ENDROOT
BRANCH   5  13
ATOM     13  C   UNL     1      -2.158   4.028   5.370  0.00  0.00    +0.026 A 
ATOM     14  C   UNL     1      -3.443   3.859   5.743  0.00  0.00    +0.040 A 
ATOM     15  N   UNL     1      -4.213   4.754   5.055  0.00  0.00    -0.284 N 
ATOM     16  N   UNL     1      -3.372   5.506   4.223  0.00  0.00    -0.217 N 
ATOM     17  C   UNL     1      -2.110   5.070   4.416  0.00  0.00    +0.274 A 
ATOM     18  O   UNL     1      -1.111   5.496   3.865  0.00  0.00    -0.266 OA
ATOM     19  C   UNL     1      -5.667   4.901   5.166  0.00  0.00    +0.171 C 
ATOM     20  C   UNL     1      -3.945   2.854   6.747  0.00  0.00    +0.065 C 
BRANCH  16  21
ATOM     21  C   UNL     1      -3.769   6.527   3.355  0.00  0.00    +0.067 A 
ATOM     22  C   UNL     1      -3.320   6.538   2.041  0.00  0.00    +0.028 A 
ATOM     23  C   UNL     1      -3.713   7.549   1.186  0.00  0.00    +0.002 A 
ATOM     24  C   UNL     1      -4.554   8.550   1.637  0.00  0.00    +0.000 A 
ATOM     25  C   UNL     1      -5.004   8.542   2.945  0.00  0.00    +0.002 A 
ATOM     26  C   UNL     1      -4.619   7.531   3.803  0.00  0.00    +0.028 A 
ENDBRANCH  16  21
ENDBRANCH   5  13
BRANCH   1  33
ATOM     27  C   UNL     1      -0.276   0.507   1.183  0.00  0.00    +0.045 C 
ATOM     28  C   UNL     1      -0.226  -0.845   1.847  0.00  0.00    -0.029 A 
ATOM     29  C   UNL     1      -0.295  -1.994   1.084  0.00  0.00    +0.005 A 
ATOM     30  C   UNL     1      -0.249  -3.234   1.693  0.00  0.00    +0.000 A 
ATOM     31  C   UNL     1      -0.133  -3.328   3.068  0.00  0.00    +0.002 A 
ATOM     32  C   UNL     1      -0.064  -2.183   3.837  0.00  0.00    +0.024 A 
ATOM     33  C   UNL     1      -0.105  -0.936   3.227  0.00  0.00    +0.047 A 
ENDBRANCH   1  33
BRANCH   7  34
ATOM     34  C   UNL     1       1.883   3.584   4.043  0.00  0.00    -0.017 C 
ATOM     35  C   UNL     1       0.695   3.583   3.078  0.00  0.00    +0.006 C 
ATOM     36  C   UNL     1       2.506   4.981   4.083  0.00  0.00    +0.006 C 
ENDBRANCH   7  34
BRANCH   7  37
ATOM     37  C   UNL     1       2.537   3.300   6.431  0.00  0.00    +0.346 C 
ATOM     38  O   UNL     1       2.447   4.051   7.387  0.00  0.00    -0.248 OA
ATOM     39  O   UNL     1       3.543   2.630   6.273  0.00  0.00    -0.248 OA
ENDBRANCH   7  37
TORSDOF 5
