REMARK  Name = ZINC57859609
REMARK  11 active torsions:
REMARK  status: ('A' for Active; 'I' for Inactive)
REMARK    1  A    between atoms: C_1  and  C_2
REMARK    2  A    between atoms: C_2  and  C_3
REMARK    3  A    between atoms: C_3  and  N_4
REMARK    4  A    between atoms: C_5  and  C_7
REMARK    5  A    between atoms: C_7  and  N_8
REMARK    6  A    between atoms: N_16  and  C_17
REMARK    7  A    between atoms: C_17  and  C_18
REMARK    8  A    between atoms: C_18  and  N_26
REMARK    9  A    between atoms: C_22  and  C_25
REMARK   10  A    between atoms: N_26  and  C_27
REMARK   11  A    between atoms: N_26  and  C_28
REMARK                            x       y       z     vdW  Elec       q    Type
REMARK                         _______ _______ _______ _____ _____    ______ ____
ROOT
ATOM      1  N   UNL     1      -5.402  -4.308   1.213  0.00  0.00    -0.291 NA
ATOM      2  C   UNL     1      -5.652  -5.699   1.616  0.00  0.00    +0.104 C 
ATOM      3  C   UNL     1      -5.375  -6.629   0.430  0.00  0.00    +0.124 C 
ATOM      4  N   UNL     1      -6.162  -6.164  -0.723  0.00  0.00    -0.283 N 
ATOM      5  C   UNL     1      -6.068  -4.746  -1.103  0.00  0.00    +0.124 C 
ATOM      6  C   UNL     1      -6.318  -3.890   0.143  0.00  0.00    +0.104 C 
ATOM      7  C   UNL     1      -6.947  -7.014  -1.412  0.00  0.00    +0.302 C 
ATOM      8  O   UNL     1      -7.667  -6.595  -2.298  0.00  0.00    -0.253 OA
ATOM      9  N   UNL     1      -6.936  -8.330  -1.120  0.00  0.00    -0.301 N 
ATOM     10  H   UNL     1      -6.417  -8.655  -0.367  0.00  0.00    +0.150 HD
ENDROOT
BRANCH   1  11
ATOM     11  C   UNL     1      -5.489  -3.402   2.365  0.00  0.00    +0.180 C 
BRANCH  11  13
ATOM     12  N   UNL     1      -4.255  -2.999   4.471  0.00  0.00    -0.314 N 
ATOM     13  C   UNL     1      -4.375  -3.709   3.332  0.00  0.00    +0.227 C 
ATOM     14  O   UNL     1      -3.585  -4.596   3.085  0.00  0.00    -0.274 OA
ATOM     15  H   UNL     1      -4.887  -2.290   4.669  0.00  0.00    +0.149 HD
BRANCH  12  16
ATOM     16  C   UNL     1      -3.171  -3.298   5.410  0.00  0.00    +0.104 C 
BRANCH  16  18
ATOM     17  C   UNL     1      -2.131  -2.666   7.592  0.00  0.00    +0.005 C 
ATOM     18  C   UNL     1      -3.263  -2.354   6.611  0.00  0.00    +0.015 C 
ENDBRANCH  16  18
ENDBRANCH  12  16
ENDBRANCH  11  13
ENDBRANCH   1  11
BRANCH   9  19
ATOM     19  C   UNL     1      -7.706  -9.269  -1.938  0.00  0.00    +0.094 C 
BRANCH  19  20
ATOM     20  C   UNL     1      -7.623 -10.668  -1.325  0.00  0.00    -0.050 C 
ATOM     21  C   UNL     1      -8.414 -11.652  -2.189  0.00  0.00    -0.010 C 
ATOM     22  C   UNL     1      -9.877 -11.211  -2.254  0.00  0.00    -0.001 C 
ATOM     23  C   UNL     1     -10.466 -11.184  -0.843  0.00  0.00    +0.003 C 
ATOM     24  C   UNL     1      -9.675 -10.200   0.022  0.00  0.00    -0.015 C 
ATOM     25  C   UNL     1      -8.211 -10.642   0.087  0.00  0.00    -0.007 C 
ATOM     26  C   UNL     1     -10.264 -10.174   1.433  0.00  0.00    +0.007 C 
BRANCH  20  27
ATOM     27  N   UNL     1      -6.218 -11.092  -1.261  0.00  0.00    +0.381 N 
ATOM     28  C   UNL     1      -6.145 -12.477  -0.778  0.00  0.00    -0.096 C 
ATOM     29  C   UNL     1      -5.620 -11.009  -2.601  0.00  0.00    -0.096 C 
ATOM     30  H   UNL     1      -5.713 -10.489  -0.630  0.00  0.00    -0.082 HD
ENDBRANCH  20  27
ENDBRANCH  19  20
ENDBRANCH   9  19
TORSDOF 7
