REMARK  Name = ZINC44737451
REMARK  9 active torsions:
REMARK  status: ('A' for Active; 'I' for Inactive)
REMARK    1  A    between atoms: C_1  and  C_2
REMARK    2  A    between atoms: C_9  and  C_11
REMARK    3  A    between atoms: C_11  and  C_13
REMARK    4  A    between atoms: C_11  and  N_14
REMARK    5  A    between atoms: C_15  and  C_17
REMARK    6  A    between atoms: C_28  and  C_30
REMARK    7  A    between atoms: C_31  and  C_41
REMARK    8  A    between atoms: C_34  and  C_35
REMARK    9  A    between atoms: C_37  and  C_40
REMARK                            x       y       z     vdW  Elec       q    Type
REMARK                         _______ _______ _______ _____ _____    ______ ____
ROOT
ATOM      1  C   UNL     1       1.878  -8.733   0.984  0.00  0.00    +0.100 C 
ATOM      2  C   UNL     1       2.964  -8.094   0.090  0.00  0.00    +0.121 C 
ATOM      3  N   UNL     1       4.235  -8.339   0.812  0.00  0.00    -0.296 N 
ATOM      4  C   UNL     1       4.091  -9.712   1.355  0.00  0.00    +0.115 C 
ATOM      5  C   UNL     1       2.621  -9.797   1.809  0.00  0.00    -0.004 C 
ATOM      6  C   UNL     1       2.057 -11.184   1.515  0.00  0.00    -0.010 C 
ATOM      7  C   UNL     1       2.772 -12.217   2.390  0.00  0.00    -0.082 C 
ATOM      8  N   UNL     1       2.580 -11.879   3.806  0.00  0.00    +0.379 N 
ATOM      9  C   UNL     1       3.207 -10.585   4.101  0.00  0.00    -0.082 C 
ATOM     10  C   UNL     1       2.511  -9.483   3.298  0.00  0.00    -0.010 C 
ATOM     11  C   UNL     1       5.284  -7.504   0.945  0.00  0.00    +0.252 C 
ATOM     12  O   UNL     1       6.264  -7.854   1.573  0.00  0.00    -0.270 OA
ATOM     13  H   UNL     1       1.592 -11.826   4.007  0.00  0.00    -0.086 HD
ATOM     14  H   UNL     1       2.999 -12.594   4.381  0.00  0.00    -0.086 HD
ENDROOT
BRANCH  11  15
ATOM     15  C   UNL     1       5.243  -6.167   0.330  0.00  0.00    +0.108 A 
ATOM     16  C   UNL     1       4.766  -4.977   0.935  0.00  0.00    +0.093 A 
ATOM     17  N   UNL     1       4.893  -4.008   0.079  0.00  0.00    -0.082 NA
ATOM     18  O   UNL     1       5.455  -4.521  -1.114  0.00  0.00    -0.352 OA
ATOM     19  C   UNL     1       5.670  -5.836  -0.948  0.00  0.00    +0.201 A 
ATOM     20  C   UNL     1       4.207  -4.858   2.330  0.00  0.00    +0.070 C 
BRANCH  19  21
ATOM     21  C   UNL     1       6.251  -6.761  -1.945  0.00  0.00    +0.152 A 
ATOM     22  C   UNL     1       6.691  -6.417  -3.247  0.00  0.00    +0.079 A 
ATOM     23  C   UNL     1       7.153  -7.532  -3.839  0.00  0.00    +0.135 A 
ATOM     24  O   UNL     1       7.025  -8.551  -2.975  0.00  0.00    -0.359 OA
ATOM     25  N   UNL     1       6.457  -8.046  -1.780  0.00  0.00    -0.075 NA
ATOM     26  C   UNL     1       7.718  -7.622  -5.233  0.00  0.00    +0.089 C 
ENDBRANCH  19  21
ENDBRANCH  11  15
BRANCH   1  28
ATOM     27  N   UNL     1       0.022  -7.873   2.376  0.00  0.00    -0.305 N 
ATOM     28  C   UNL     1       1.268  -7.697   1.892  0.00  0.00    +0.219 C 
ATOM     29  O   UNL     1       1.898  -6.703   2.187  0.00  0.00    -0.275 OA
ATOM     30  H   UNL     1      -0.482  -8.668   2.139  0.00  0.00    +0.149 HD
BRANCH  27  31
ATOM     31  C   UNL     1      -0.571  -6.865   3.258  0.00  0.00    +0.136 C 
ATOM     32  C   UNL     1      -0.132  -7.128   4.700  0.00  0.00    +0.036 C 
BRANCH  31  41
ATOM     33  C   UNL     1      -7.957  -5.958   3.198  0.00  0.00    +0.044 C 
ATOM     34  C   UNL     1      -6.586  -6.572   3.077  0.00  0.00    -0.048 A 
ATOM     35  C   UNL     1      -6.456  -7.898   2.688  0.00  0.00    +0.005 A 
ATOM     36  C   UNL     1      -5.222  -8.472   2.573  0.00  0.00    +0.030 A 
ATOM     37  C   UNL     1      -4.076  -7.722   2.847  0.00  0.00    +0.089 A 
ATOM     38  C   UNL     1      -4.207  -6.379   3.240  0.00  0.00    +0.067 A 
ATOM     39  C   UNL     1      -5.469  -5.811   3.348  0.00  0.00    +0.031 A 
ATOM     40  N   UNL     1      -2.922  -5.913   3.437  0.00  0.00    -0.340 N 
ATOM     41  C   UNL     1      -2.073  -6.941   3.169  0.00  0.00    +0.128 A 
ATOM     42  N   UNL     1      -2.747  -7.999   2.824  0.00  0.00    -0.231 NA
ATOM     43  H   UNL     1      -2.672  -5.017   3.713  0.00  0.00    +0.167 HD
ENDBRANCH  31  41
ENDBRANCH  27  31
ENDBRANCH   1  28
TORSDOF 5
