REMARK  Name = ZINC57641039
REMARK  13 active torsions:
REMARK  status: ('A' for Active; 'I' for Inactive)
REMARK    1  A    between atoms: C_1  and  C_2
REMARK    2  A    between atoms: C_2  and  C_3
REMARK    3  A    between atoms: C_3  and  C_5
REMARK    4  A    between atoms: C_3  and  N_17
REMARK    5  A    between atoms: N_9  and  C_10
REMARK    6  A    between atoms: C_10  and  C_11
REMARK    7  A    between atoms: N_17  and  C_18
REMARK    8  A    between atoms: N_17  and  C_26
REMARK    9  A    between atoms: C_18  and  C_19
REMARK   10  A    between atoms: C_22  and  C_25
REMARK   11  A    between atoms: C_26  and  C_27
REMARK   12  A    between atoms: C_31  and  O_39
REMARK   13  A    between atoms: O_39  and  C_40
REMARK                            x       y       z     vdW  Elec       q    Type
REMARK                         _______ _______ _______ _____ _____    ______ ____
ROOT
ATOM      1  N   UNL     1      -2.060  -0.313   1.385  0.00  0.00    -0.284 NA
ENDROOT
BRANCH   1   2
ATOM      2  C   UNL     1      -1.721  -0.632  -0.008  0.00  0.00    +0.127 C 
BRANCH   2   3
ATOM      3  C   UNL     1      -2.923  -0.391  -0.885  0.00  0.00    +0.168 A 
ATOM      4  N   UNL     1      -4.158  -0.751  -0.636  0.00  0.00    -0.112 NA
ATOM      5  N   UNL     1      -4.892  -0.366  -1.623  0.00  0.00    -0.023 NA
ATOM      6  N   UNL     1      -4.156   0.230  -2.495  0.00  0.00    -0.044 NA
ATOM      7  N   UNL     1      -2.936   0.239  -2.074  0.00  0.00    -0.225 N 
BRANCH   7   8
ATOM      8  C   UNL     1      -1.783   0.823  -2.763  0.00  0.00    +0.179 C 
BRANCH   8   9
ATOM      9  C   UNL     1      -1.145  -0.230  -3.672  0.00  0.00    +0.140 C 
ATOM     10  C   UNL     1       0.142   0.338  -4.309  0.00  0.00    +0.035 C 
ATOM     11  C   UNL     1       0.073  -0.229  -5.753  0.00  0.00    +0.031 C 
ATOM     12  C   UNL     1      -1.457  -0.218  -6.000  0.00  0.00    +0.160 C 
ATOM     13  O   UNL     1      -2.045  -0.565  -4.734  0.00  0.00    -0.375 OA
ENDBRANCH   8   9
ENDBRANCH   7   8
ENDBRANCH   2   3
BRANCH   2  15
ATOM     14  C   UNL     1      -0.018  -2.320   0.694  0.00  0.00    +0.006 C 
ATOM     15  C   UNL     1      -1.302  -2.100  -0.108  0.00  0.00    +0.023 C 
ENDBRANCH   2  15
ENDBRANCH   1   2
BRANCH   1  16
ATOM     16  C   UNL     1      -3.271  -1.028   1.809  0.00  0.00    +0.120 C 
BRANCH  16  17
ATOM     17  C   UNL     1      -3.365  -1.009   3.313  0.00  0.00    -0.033 A 
ATOM     18  C   UNL     1      -2.686  -1.953   4.060  0.00  0.00    +0.005 A 
ATOM     19  C   UNL     1      -2.772  -1.935   5.440  0.00  0.00    +0.003 A 
ATOM     20  C   UNL     1      -3.537  -0.974   6.072  0.00  0.00    -0.050 A 
ATOM     21  C   UNL     1      -4.216  -0.029   5.325  0.00  0.00    +0.003 A 
ATOM     22  C   UNL     1      -4.127  -0.044   3.946  0.00  0.00    +0.005 A 
ATOM     23  C   UNL     1      -3.632  -0.955   7.576  0.00  0.00    +0.044 C 
ENDBRANCH  16  17
ENDBRANCH   1  16
BRANCH   1  24
ATOM     24  C   UNL     1      -2.213   1.136   1.571  0.00  0.00    +0.126 C 
BRANCH  24  25
ATOM     25  C   UNL     1      -0.852   1.783   1.613  0.00  0.00    +0.031 A 
ATOM     26  C   UNL     1      -0.341   2.355   0.495  0.00  0.00    +0.020 A 
ATOM     27  C   UNL     1       0.983   2.975   0.569  0.00  0.00    +0.002 A 
ATOM     28  C   UNL     1       1.560   3.581  -0.552  0.00  0.00    +0.055 A 
ATOM     29  C   UNL     1       2.810   4.157  -0.448  0.00  0.00    +0.121 A 
ATOM     30  C   UNL     1       3.495   4.136   0.765  0.00  0.00    +0.047 A 
ATOM     31  C   UNL     1       2.937   3.543   1.876  0.00  0.00    +0.030 A 
ATOM     32  C   UNL     1       1.678   2.957   1.793  0.00  0.00    +0.049 A 
ATOM     33  N   UNL     1       1.102   2.358   2.894  0.00  0.00    -0.322 N 
ATOM     34  H   UNL     1       1.582   2.346   3.737  0.00  0.00    +0.169 HD
ATOM     35  C   UNL     1      -0.117   1.796   2.818  0.00  0.00    +0.254 A 
ATOM     36  O   UNL     1      -0.597   1.281   3.813  0.00  0.00    -0.268 OA
BRANCH  29  37
ATOM     37  O   UNL     1       3.376   4.747  -1.534  0.00  0.00    -0.495 OA
ATOM     38  C   UNL     1       4.672   5.324  -1.357  0.00  0.00    +0.277 C 
ENDBRANCH  29  37
ENDBRANCH  24  25
ENDBRANCH   1  24
TORSDOF 10
