REMARK  Name = ZINC21526020
REMARK  13 active torsions:
REMARK  status: ('A' for Active; 'I' for Inactive)
REMARK    1  A    between atoms: C_1  and  C_2
REMARK    2  A    between atoms: C_2  and  C_3
REMARK    3  A    between atoms: C_12  and  C_24
REMARK    4  A    between atoms: C_12  and  C_25
REMARK    5  A    between atoms: N_13  and  C_16
REMARK    6  A    between atoms: C_16  and  C_17
REMARK    7  A    between atoms: C_17  and  C_18
REMARK    8  A    between atoms: C_18  and  N_19
REMARK    9  A    between atoms: N_19  and  C_20
REMARK   10  A    between atoms: N_19  and  C_22
REMARK   11  A    between atoms: C_20  and  C_21
REMARK   12  A    between atoms: C_22  and  C_23
REMARK   13  A    between atoms: N_27  and  C_28
REMARK                            x       y       z     vdW  Elec       q    Type
REMARK                         _______ _______ _______ _____ _____    ______ ____
ROOT
ATOM      1  C   UNL     1       5.058  -1.955   6.216  0.00  0.00    -0.008 A 
ATOM      2  C   UNL     1       4.201  -2.013   5.176  0.00  0.00    +0.037 A 
ATOM      3  C   UNL     1       3.893  -0.853   4.450  0.00  0.00    +0.057 A 
ATOM      4  C   UNL     1       4.526   0.321   4.885  0.00  0.00    +0.038 A 
ATOM      5  S   UNL     1       5.507  -0.228   6.258  0.00  0.00    -0.092 S 
ATOM      6  C   UNL     1       4.130   1.387   4.086  0.00  0.00    +0.048 A 
ATOM      7  C   UNL     1       3.257   0.893   3.163  0.00  0.00    +0.106 A 
ATOM      8  N   UNL     1       3.115  -0.474   3.371  0.00  0.00    -0.333 N 
ATOM      9  C   UNL     1       2.261  -1.303   2.517  0.00  0.00    +0.157 C 
ATOM     10  C   UNL     1       1.113  -0.445   1.976  0.00  0.00    +0.128 C 
ATOM     11  N   UNL     1       1.573   0.837   1.456  0.00  0.00    -0.281 N 
ATOM     12  C   UNL     1       2.523   1.569   2.086  0.00  0.00    +0.264 C 
ATOM     13  O   UNL     1       2.755   2.723   1.776  0.00  0.00    -0.268 OA
ATOM     14  C   UNL     1       0.107  -0.191   3.100  0.00  0.00    +0.043 C 
ENDROOT
BRANCH  10  15
ATOM     15  C   UNL     1       0.421  -1.199   0.869  0.00  0.00    +0.238 C 
ATOM     16  O   UNL     1      -0.789  -1.280   0.855  0.00  0.00    -0.273 OA
ATOM     17  N   UNL     1       1.147  -1.782  -0.105  0.00  0.00    -0.311 N 
ATOM     18  H   UNL     1       2.246  -1.782  -0.048  0.00  0.00    +0.149 HD
BRANCH  17  19
ATOM     19  C   UNL     1       0.473  -2.418  -1.240  0.00  0.00    +0.073 C 
ATOM     20  C   UNL     1       0.062  -3.849  -0.839  0.00  0.00    +0.022 C 
ATOM     21  C   UNL     1      -1.038  -4.305  -1.760  0.00  0.00    +0.002 C 
ATOM     22  C   UNL     1      -0.504  -5.104  -2.964  0.00  0.00    +0.000 C 
ATOM     23  C   UNL     1       0.776  -4.493  -3.566  0.00  0.00    +0.000 C 
ATOM     24  C   UNL     1       0.712  -2.992  -3.653  0.00  0.00    +0.002 C 
ATOM     25  C   UNL     1       1.367  -2.400  -2.389  0.00  0.00    +0.022 C 
ENDBRANCH  17  19
ENDBRANCH  10  15
BRANCH   1  27
ATOM     26  C   UNL     1       6.779  -3.713   6.531  0.00  0.00    +0.009 C 
ATOM     27  C   UNL     1       5.521  -3.070   7.119  0.00  0.00    +0.039 C 
ENDBRANCH   1  27
BRANCH  11  28
ATOM     28  C   UNL     1       0.985   1.353   0.217  0.00  0.00    +0.107 C 
BRANCH  28  29
ATOM     29  C   UNL     1       1.886   0.989  -0.965  0.00  0.00    +0.000 C 
BRANCH  29  30
ATOM     30  C   UNL     1       1.272   1.527  -2.259  0.00  0.00    -0.077 C 
BRANCH  30  31
ATOM     31  N   UNL     1       2.136   1.177  -3.393  0.00  0.00    +0.379 N 
ATOM     32  H   UNL     1       2.330   0.096  -3.350  0.00  0.00    -0.082 HD
BRANCH  31  33
ATOM     33  C   UNL     1       1.471   1.466  -4.671  0.00  0.00    -0.082 C 
ATOM     34  C   UNL     1       1.158   2.962  -4.757  0.00  0.00    -0.017 C 
ENDBRANCH  31  33
BRANCH  31  35
ATOM     35  C   UNL     1       3.428   1.871  -3.305  0.00  0.00    -0.082 C 
ATOM     36  C   UNL     1       4.419   1.230  -4.279  0.00  0.00    -0.017 C 
ENDBRANCH  31  35
ENDBRANCH  30  31
ENDBRANCH  29  30
ENDBRANCH  28  29
ENDBRANCH  11  28
TORSDOF 9
