REMARK  Name = ZINC18263579
REMARK  17 active torsions:
REMARK  status: ('A' for Active; 'I' for Inactive)
REMARK    1  A    between atoms: C_1  and  C_2
REMARK    2  A    between atoms: C_2  and  O_3
REMARK    3  A    between atoms: O_3  and  C_4
REMARK    4  A    between atoms: C_4  and  C_6
REMARK    5  A    between atoms: C_7  and  C_13
REMARK    6  A    between atoms: C_13  and  O_14
REMARK    7  A    between atoms: O_14  and  C_15
REMARK    8  A    between atoms: C_15  and  C_17
REMARK    9  A    between atoms: C_17  and  C_18
REMARK   10  A    between atoms: C_18  and  N_19
REMARK   11  A    between atoms: N_19  and  S_20
REMARK   12  A    between atoms: S_20  and  C_23
REMARK   13  A    between atoms: C_24  and  C_33
REMARK   14  A    between atoms: C_25  and  C_32
REMARK   15  A    between atoms: C_26  and  C_31
REMARK   16  A    between atoms: C_27  and  C_30
REMARK   17  A    between atoms: C_28  and  C_29
REMARK                            x       y       z     vdW  Elec       q    Type
REMARK                         _______ _______ _______ _____ _____    ______ ____
ROOT
ATOM      1  C   UNL     1      -5.278  -1.426  -3.807  0.00  0.00    +0.309 C 
ATOM      2  O   UNL     1      -4.989  -0.629  -2.946  0.00  0.00    -0.251 OA
ENDROOT
BRANCH   1   3
ATOM      3  O   UNL     1      -4.327  -2.201  -4.351  0.00  0.00    -0.459 OA
BRANCH   3   4
ATOM      4  C   UNL     1      -2.973  -2.029  -3.857  0.00  0.00    +0.283 C 
BRANCH   4   6
ATOM      5  C   UNL     1      -0.751  -3.045  -4.215  0.00  0.00    +0.074 C 
ATOM      6  C   UNL     1      -2.050  -2.977  -4.579  0.00  0.00    +0.061 C 
ATOM      7  N   UNL     1      -2.540  -3.748  -5.593  0.00  0.00    -0.269 N 
ATOM      8  C   UNL     1      -1.798  -4.621  -6.286  0.00  0.00    +0.304 C 
ATOM      9  O   UNL     1      -2.325  -5.269  -7.170  0.00  0.00    -0.253 OA
ATOM     10  N   UNL     1      -0.487  -4.805  -6.036  0.00  0.00    -0.295 N 
ATOM     11  C   UNL     1       0.140  -4.015  -4.963  0.00  0.00    +0.150 C 
ATOM     12  H   UNL     1      -3.479  -3.662  -5.822  0.00  0.00    +0.156 HD
ATOM     13  H   UNL     1       0.032  -5.443  -6.551  0.00  0.00    +0.151 HD
BRANCH   5  14
ATOM     14  C   UNL     1      -0.242  -2.241  -3.169  0.00  0.00    +0.338 C 
ATOM     15  O   UNL     1      -0.950  -1.400  -2.647  0.00  0.00    -0.245 OA
BRANCH  14  16
ATOM     16  O   UNL     1       1.031  -2.404  -2.752  0.00  0.00    -0.462 OA
BRANCH  16  18
ATOM     17  C   UNL     1       2.937  -1.887  -1.357  0.00  0.00    +0.048 C 
ATOM     18  C   UNL     1       1.480  -1.559  -1.690  0.00  0.00    +0.229 C 
ENDBRANCH  16  18
ENDBRANCH  14  16
ENDBRANCH   5  14
ENDBRANCH   4   6
ENDBRANCH   3   4
ENDBRANCH   1   3
BRANCH   1  19
ATOM     19  C   UNL     1      -6.707  -1.548  -4.270  0.00  0.00    +0.137 C 
BRANCH  19  20
ATOM     20  C   UNL     1      -7.581  -0.559  -3.495  0.00  0.00    +0.117 C 
BRANCH  20  21
ATOM     21  N   UNL     1      -8.970  -0.679  -3.946  0.00  0.00    -0.189 NA
ATOM     22  H   UNL     1      -9.174  -1.146  -4.771  0.00  0.00    +0.148 HD
BRANCH  21  23
ATOM     23  S   UNL     1     -10.192  -0.015  -3.046  0.00  0.00    +0.059 S 
ATOM     24  O   UNL     1     -11.399  -0.272  -3.750  0.00  0.00    -0.153 OA
ATOM     25  O   UNL     1      -9.986  -0.439  -1.706  0.00  0.00    -0.153 OA
BRANCH  23  26
ATOM     26  C   UNL     1      -9.961   1.732  -3.063  0.00  0.00    +0.112 A 
ATOM     27  C   UNL     1      -9.596   2.392  -1.905  0.00  0.00    -0.021 A 
ATOM     28  C   UNL     1      -9.411   3.762  -1.919  0.00  0.00    -0.043 A 
ATOM     29  C   UNL     1      -9.600   4.473  -3.089  0.00  0.00    -0.044 A 
ATOM     30  C   UNL     1      -9.970   3.813  -4.246  0.00  0.00    -0.043 A 
ATOM     31  C   UNL     1     -10.151   2.443  -4.233  0.00  0.00    -0.021 A 
ATOM     32  C   UNL     1     -10.554   1.724  -5.495  0.00  0.00    +0.046 C 
ATOM     33  C   UNL     1     -10.176   4.588  -5.522  0.00  0.00    +0.044 C 
ATOM     34  C   UNL     1      -9.403   5.967  -3.103  0.00  0.00    +0.044 C 
ATOM     35  C   UNL     1      -9.008   4.481  -0.657  0.00  0.00    +0.044 C 
ATOM     36  C   UNL     1      -9.396   1.618  -0.627  0.00  0.00    +0.046 C 
ENDBRANCH  23  26
ENDBRANCH  21  23
ENDBRANCH  20  21
ENDBRANCH  19  20
ENDBRANCH   1  19
TORSDOF 11
