REMARK  Name = ZINC29045562
REMARK  8 active torsions:
REMARK  status: ('A' for Active; 'I' for Inactive)
REMARK    1  A    between atoms: C_1  and  N_2
REMARK    2  A    between atoms: N_2  and  C_3
REMARK    3  A    between atoms: N_2  and  C_4
REMARK    4  A    between atoms: C_4  and  C_6
REMARK    5  A    between atoms: C_4  and  C_23
REMARK    6  A    between atoms: C_6  and  N_7
REMARK    7  A    between atoms: C_8  and  C_10
REMARK    8  A    between atoms: N_16  and  C_17
REMARK                            x       y       z     vdW  Elec       q    Type
REMARK                         _______ _______ _______ _____ _____    ______ ____
ROOT
ATOM      1  N   UNL     1      -2.478   0.737   3.096  0.00  0.00    -0.311 N 
ATOM      2  C   UNL     1      -3.549   1.481   3.439  0.00  0.00    +0.262 C 
ATOM      3  O   UNL     1      -3.504   2.195   4.424  0.00  0.00    -0.269 OA
ATOM      4  H   UNL     1      -2.545   0.033   2.254  0.00  0.00    +0.149 HD
ENDROOT
BRANCH   2   5
ATOM      5  C   UNL     1      -4.768   1.430   2.626  0.00  0.00    +0.127 A 
ATOM      6  C   UNL     1      -5.955   2.005   2.924  0.00  0.00    +0.116 A 
ATOM      7  N   UNL     1      -6.826   1.721   1.906  0.00  0.00    -0.339 N 
ATOM      8  H   UNL     1      -7.858   2.102   1.942  0.00  0.00    +0.167 HD
ATOM      9  C   UNL     1      -6.189   0.969   0.989  0.00  0.00    +0.163 A 
ATOM     10  S   UNL     1      -6.874   0.366  -0.460  0.00  0.00    -0.013 S 
ATOM     11  N   UNL     1      -4.922   0.772   1.401  0.00  0.00    -0.284 N 
BRANCH  11  12
ATOM     12  C   UNL     1      -3.937   0.041   0.726  0.00  0.00    +0.049 A 
ATOM     13  C   UNL     1      -2.822   0.688   0.208  0.00  0.00    +0.026 A 
ATOM     14  C   UNL     1      -1.850  -0.036  -0.453  0.00  0.00    +0.002 A 
ATOM     15  C   UNL     1      -1.991  -1.403  -0.609  0.00  0.00    +0.000 A 
ATOM     16  C   UNL     1      -3.102  -2.050  -0.099  0.00  0.00    +0.002 A 
ATOM     17  C   UNL     1      -4.075  -1.332   0.568  0.00  0.00    +0.026 A 
ENDBRANCH  11  12
ENDBRANCH   2   5
BRANCH   1  18
ATOM     18  C   UNL     1      -1.226   0.867   3.846  0.00  0.00    +0.094 C 
BRANCH  18  19
ATOM     19  C   UNL     1      -0.179  -0.081   3.257  0.00  0.00    -0.020 C 
BRANCH  19  20
ATOM     20  C   UNL     1       1.142   0.140   3.946  0.00  0.00    -0.041 A 
ATOM     21  C   UNL     1       1.514   1.413   4.338  0.00  0.00    +0.003 A 
ATOM     22  C   UNL     1       2.726   1.615   4.971  0.00  0.00    +0.000 A 
ATOM     23  C   UNL     1       3.568   0.545   5.212  0.00  0.00    +0.001 A 
ATOM     24  C   UNL     1       3.197  -0.728   4.821  0.00  0.00    +0.020 A 
ATOM     25  C   UNL     1       1.982  -0.932   4.192  0.00  0.00    +0.043 A 
ATOM     26 CL   UNL     1       1.513  -2.531   3.707  0.00  0.00    -0.083 Cl
ENDBRANCH  19  20
BRANCH  19  28
ATOM     27  C   UNL     1       0.936  -0.737   1.210  0.00  0.00    -0.096 C 
ATOM     28  N   UNL     1      -0.032   0.185   1.819  0.00  0.00    +0.382 N 
ATOM     29  C   UNL     1       0.349   1.583   1.579  0.00  0.00    -0.096 C 
ATOM     30  H   UNL     1      -1.008   0.013   1.342  0.00  0.00    -0.082 HD
ENDBRANCH  19  28
ENDBRANCH  18  19
ENDBRANCH   1  18
TORSDOF 6
