REMARK  Name = ZINC38344814
REMARK  11 active torsions:
REMARK  status: ('A' for Active; 'I' for Inactive)
REMARK    1  A    between atoms: C_1  and  N_2
REMARK    2  A    between atoms: N_2  and  C_3
REMARK    3  A    between atoms: N_2  and  C_4
REMARK    4  A    between atoms: C_4  and  C_6
REMARK    5  A    between atoms: C_4  and  C_19
REMARK    6  A    between atoms: C_6  and  N_7
REMARK    7  A    between atoms: N_7  and  C_8
REMARK    8  A    between atoms: C_22  and  O_27
REMARK    9  A    between atoms: C_23  and  O_25
REMARK   10  A    between atoms: O_25  and  C_26
REMARK   11  A    between atoms: O_27  and  C_28
REMARK                            x       y       z     vdW  Elec       q    Type
REMARK                         _______ _______ _______ _____ _____    ______ ____
ROOT
ATOM      1  C   UNL     1      -1.353  -0.318   0.276  0.00  0.00    -0.056 C 
ENDROOT
BRANCH   1   2
ATOM      2  C   UNL     1      -2.071  -0.131  -1.036  0.00  0.00    -0.059 A 
ATOM      3  C   UNL     1      -1.437  -0.455  -2.221  0.00  0.00    +0.006 A 
ATOM      4  C   UNL     1      -2.091  -0.285  -3.427  0.00  0.00    +0.049 A 
ATOM      5  C   UNL     1      -3.385   0.209  -3.450  0.00  0.00    +0.161 A 
ATOM      6  C   UNL     1      -4.023   0.535  -2.257  0.00  0.00    +0.162 A 
ATOM      7  C   UNL     1      -3.364   0.358  -1.052  0.00  0.00    +0.051 A 
BRANCH   6   8
ATOM      8  O   UNL     1      -5.293   1.020  -2.275  0.00  0.00    -0.491 OA
ATOM      9  C   UNL     1      -5.886   1.333  -1.012  0.00  0.00    +0.277 C 
ENDBRANCH   6   8
BRANCH   5  10
ATOM     10  O   UNL     1      -4.029   0.377  -4.636  0.00  0.00    -0.491 OA
ATOM     11  C   UNL     1      -3.312   0.023  -5.820  0.00  0.00    +0.277 C 
ENDBRANCH   5  10
ENDBRANCH   1   2
BRANCH   1  13
ATOM     12  C   UNL     1       0.104   1.496  -0.310  0.00  0.00    -0.096 C 
ATOM     13  N   UNL     1       0.049   0.095   0.130  0.00  0.00    +0.379 N 
ATOM     14  C   UNL     1       0.736  -0.040   1.421  0.00  0.00    -0.096 C 
ATOM     15  H   UNL     1       0.503  -0.490  -0.555  0.00  0.00    -0.082 HD
ENDBRANCH   1  13
BRANCH   1  16
ATOM     16  C   UNL     1      -1.411  -1.791   0.684  0.00  0.00    -0.093 C 
BRANCH  16  17
ATOM     17  N   UNL     1      -2.804  -2.171   0.952  0.00  0.00    +0.380 N 
ATOM     18  H   UNL     1      -3.147  -1.652   1.747  0.00  0.00    -0.086 HD
ATOM     19  H   UNL     1      -3.372  -1.961   0.144  0.00  0.00    -0.086 HD
BRANCH  17  20
ATOM     20  C   UNL     1      -2.874  -3.610   1.239  0.00  0.00    -0.067 C 
ATOM     21  C   UNL     1      -4.338  -4.032   1.409  0.00  0.00    -0.011 C 
ATOM     22  C   UNL     1      -4.395  -5.558   1.466  0.00  0.00    +0.034 C 
ATOM     23  C   UNL     1      -3.420  -6.086   2.485  0.00  0.00    -0.044 A 
ATOM     24  C   UNL     1      -3.599  -7.387   2.938  0.00  0.00    +0.004 A 
ATOM     25  C   UNL     1      -2.737  -7.931   3.866  0.00  0.00    +0.000 A 
ATOM     26  C   UNL     1      -1.684  -7.177   4.350  0.00  0.00    +0.000 A 
ATOM     27  C   UNL     1      -1.505  -5.884   3.903  0.00  0.00    +0.004 A 
ATOM     28  C   UNL     1      -2.375  -5.333   2.971  0.00  0.00    -0.046 A 
ATOM     29  C   UNL     1      -2.130  -3.911   2.538  0.00  0.00    +0.019 C 
ENDBRANCH  17  20
ENDBRANCH  16  17
ENDBRANCH   1  16
TORSDOF 7
