REMARK  Name = ZINC08846195
REMARK  8 active torsions:
REMARK  status: ('A' for Active; 'I' for Inactive)
REMARK    1  A    between atoms: C_1  and  C_2
REMARK    2  A    between atoms: C_2  and  C_3
REMARK    3  A    between atoms: C_3  and  O_4
REMARK    4  A    between atoms: O_4  and  C_5
REMARK    5  A    between atoms: C_10  and  C_11
REMARK    6  A    between atoms: C_16  and  N_25
REMARK    7  A    between atoms: C_20  and  N_24
REMARK    8  A    between atoms: C_21  and  C_22
REMARK                            x       y       z     vdW  Elec       q    Type
REMARK                         _______ _______ _______ _____ _____    ______ ____
ROOT
ATOM      1  C   UNL     1      -0.059   5.351   0.031  0.00  0.00    +0.101 C 
ATOM      2  C   UNL     1       0.634   5.864  -1.203  0.00  0.00    +0.008 A 
ATOM      3  C   UNL     1      -0.025   5.824  -2.420  0.00  0.00    +0.010 A 
ATOM      4  C   UNL     1       0.595   6.289  -3.562  0.00  0.00    +0.023 A 
ATOM      5  C   UNL     1       1.885   6.801  -3.493  0.00  0.00    +0.028 A 
ATOM      6  C   UNL     1       2.547   6.842  -2.275  0.00  0.00    +0.069 A 
ATOM      7  C   UNL     1       1.922   6.372  -1.128  0.00  0.00    +0.136 A 
ATOM      8  O   UNL     1       2.583   6.420   0.055  0.00  0.00    -0.441 OA
ATOM      9  C   UNL     1       1.898   6.347   1.209  0.00  0.00    +0.199 C 
ATOM     10  C   UNL     1       0.640   5.849   1.265  0.00  0.00    +0.098 C 
ENDROOT
BRANCH   1  16
ATOM     11  C   UNL     1      -1.236   3.137   0.030  0.00  0.00    +0.125 A 
ATOM     12  C   UNL     1      -1.218   1.750   0.017  0.00  0.00    +0.046 A 
ATOM     13  C   UNL     1      -0.013   1.076   0.008  0.00  0.00    +0.004 A 
ATOM     14  C   UNL     1       1.176   1.783   0.000  0.00  0.00    +0.001 A 
ATOM     15  C   UNL     1       1.161   3.165   0.008  0.00  0.00    +0.008 A 
ATOM     16  C   UNL     1      -0.043   3.844   0.023  0.00  0.00    +0.007 A 
BRANCH  11  17
ATOM     17  O   UNL     1      -2.421   3.802   0.046  0.00  0.00    -0.492 OA
BRANCH  17  18
ATOM     18  C   UNL     1      -3.610   3.009   0.052  0.00  0.00    +0.229 C 
BRANCH  18  20
ATOM     19  C   UNL     1      -6.108   3.078   0.076  0.00  0.00    +0.007 C 
ATOM     20  C   UNL     1      -4.835   3.926   0.069  0.00  0.00    +0.038 C 
ENDBRANCH  18  20
ENDBRANCH  17  18
ENDBRANCH  11  17
ENDBRANCH   1  16
BRANCH   9  21
ATOM     21  N   UNL     1       2.492   6.789   2.365  0.00  0.00    -0.328 N 
ATOM     22  H   UNL     1       3.393   7.147   2.341  0.00  0.00    +0.145 HD
ATOM     23  H   UNL     1       2.010   6.742   3.205  0.00  0.00    +0.145 HD
ENDBRANCH   9  21
BRANCH   5  24
ATOM     24  N   UNL     1       2.513   7.273  -4.648  0.00  0.00    -0.358 N 
ATOM     25  H   UNL     1       2.049   7.244  -5.499  0.00  0.00    +0.142 HD
ATOM     26  H   UNL     1       3.414   7.630  -4.598  0.00  0.00    +0.142 HD
ENDBRANCH   5  24
BRANCH  10  27
ATOM     27  C   UNL     1      -0.039   5.798   2.525  0.00  0.00    +0.101 C 
ATOM     28  N   UNL     1      -0.577   5.757   3.524  0.00  0.00    -0.191 NA
ENDBRANCH  10  27
TORSDOF 7
