REMARK  Name = ZINC13499146
REMARK  13 active torsions:
REMARK  status: ('A' for Active; 'I' for Inactive)
REMARK    1  A    between atoms: C_1  and  C_2
REMARK    2  A    between atoms: C_7  and  C_15
REMARK    3  A    between atoms: C_13  and  C_14
REMARK    4  A    between atoms: C_15  and  N_69
REMARK    5  A    between atoms: C_16  and  C_17
REMARK    6  A    between atoms: C_16  and  N_69
REMARK    7  A    between atoms: C_17  and  O_18
REMARK    8  A    between atoms: C_19  and  C_21
REMARK    9  A    between atoms: C_19  and  C_32
REMARK   10  A    between atoms: C_19  and  N_69
REMARK   11  A    between atoms: N_25  and  C_26
REMARK   12  A    between atoms: C_32  and  C_33
REMARK   13  A    between atoms: C_32  and  C_34
REMARK                            x       y       z     vdW  Elec       q    Type
REMARK                         _______ _______ _______ _____ _____    ______ ____
ROOT
ATOM      1  N   UNL     1      -0.733   1.536   1.299  0.00  0.00    +0.391 N 
ATOM      2  H   UNL     1      -1.662   1.196   1.572  0.00  0.00    -0.080 HD
ENDROOT
BRANCH   1   3
ATOM      3  C   UNL     1       0.199   1.348   2.431  0.00  0.00    -0.036 C 
BRANCH   3  10
ATOM      4  C   UNL     1      -3.640   2.939   9.239  0.00  0.00    +0.044 C 
ATOM      5  C   UNL     1      -2.985   2.418   7.986  0.00  0.00    -0.046 A 
ATOM      6  C   UNL     1      -3.089   1.071   7.666  0.00  0.00    +0.004 A 
ATOM      7  C   UNL     1      -2.502   0.578   6.535  0.00  0.00    +0.010 A 
ATOM      8  C   UNL     1      -1.791   1.438   5.692  0.00  0.00    -0.001 A 
ATOM      9  C   UNL     1      -1.154   0.945   4.469  0.00  0.00    +0.017 A 
ATOM     10  C   UNL     1      -0.472   1.824   3.694  0.00  0.00    +0.001 A 
ATOM     11  C   UNL     1      -0.394   3.184   4.062  0.00  0.00    +0.251 A 
ATOM     12  O   UNL     1       0.221   3.958   3.349  0.00  0.00    -0.268 OA
ATOM     13  N   UNL     1      -0.979   3.647   5.180  0.00  0.00    -0.322 N 
ATOM     14  H   UNL     1      -0.905   4.588   5.404  0.00  0.00    +0.169 HD
ATOM     15  C   UNL     1      -1.683   2.804   6.014  0.00  0.00    +0.052 A 
ATOM     16  C   UNL     1      -2.288   3.283   7.171  0.00  0.00    -0.024 A 
ATOM     17  C   UNL     1      -2.182   4.742   7.532  0.00  0.00    +0.046 C 
ENDBRANCH   3  10
ENDBRANCH   1   3
BRANCH   1  18
ATOM     18  C   UNL     1      -0.828   2.970   0.956  0.00  0.00    -0.049 C 
BRANCH  18  19
ATOM     19  C   UNL     1      -2.033   3.177   0.036  0.00  0.00    +0.137 C 
BRANCH  19  20
ATOM     20  O   UNL     1      -3.229   2.811   0.729  0.00  0.00    -0.397 OA
ATOM     21  H   UNL     1      -4.026   2.844   0.182  0.00  0.00    +0.209 HD
ENDBRANCH  19  20
ENDBRANCH  18  19
ENDBRANCH   1  18
BRANCH   1  22
ATOM     22  C   UNL     1      -0.265   0.766   0.127  0.00  0.00    +0.006 C 
BRANCH  22  23
ATOM     23  C   UNL     1       1.184   1.066  -0.158  0.00  0.00    +0.139 A 
ATOM     24  N   UNL     1       2.176   1.016   0.697  0.00  0.00    -0.115 NA
ATOM     25  N   UNL     1       3.256   1.338   0.073  0.00  0.00    -0.023 NA
ATOM     26  N   UNL     1       2.978   1.600  -1.157  0.00  0.00    -0.044 NA
ATOM     27  N   UNL     1       1.710   1.443  -1.338  0.00  0.00    -0.228 N 
BRANCH  27  28
ATOM     28  C   UNL     1       0.980   1.639  -2.593  0.00  0.00    +0.111 C 
ATOM     29  C   UNL     1       1.532   0.690  -3.658  0.00  0.00    +0.027 C 
ATOM     30  C   UNL     1       0.769   0.894  -4.968  0.00  0.00    +0.002 C 
ATOM     31  C   UNL     1       0.940   2.341  -5.437  0.00  0.00    +0.000 C 
ATOM     32  C   UNL     1       0.388   3.290  -4.372  0.00  0.00    +0.002 C 
ATOM     33  C   UNL     1       1.150   3.086  -3.062  0.00  0.00    +0.027 C 
ENDBRANCH  27  28
ENDBRANCH  22  23
BRANCH  22  34
ATOM     34  C   UNL     1      -0.429  -0.727   0.420  0.00  0.00    -0.024 C 
ATOM     35  C   UNL     1      -1.878  -1.012   0.819  0.00  0.00    +0.006 C 
ATOM     36  C   UNL     1      -0.076  -1.534  -0.831  0.00  0.00    +0.006 C 
ENDBRANCH  22  34
ENDBRANCH   1  22
TORSDOF 9
