REMARK  Name = ZINC59249340
REMARK  6 active torsions:
REMARK  status: ('A' for Active; 'I' for Inactive)
REMARK    1  A    between atoms: C_1  and  C_2
REMARK    2  A    between atoms: C_2  and  C_3
REMARK    3  A    between atoms: C_2  and  C_4
REMARK    4  A    between atoms: C_9  and  N_10
REMARK    5  A    between atoms: C_11  and  C_12
REMARK    6  A    between atoms: C_15  and  N_17
REMARK                            x       y       z     vdW  Elec       q    Type
REMARK                         _______ _______ _______ _____ _____    ______ ____
ROOT
ATOM      1  N   UNL     1       2.343  -1.613   0.106  0.00  0.00    -0.252 NA
ATOM      2  C   UNL     1       3.361  -2.432   0.208  0.00  0.00    +0.157 C 
ENDROOT
BRANCH   1   8
ATOM      3  C   UNL     1       1.598   0.051  -1.449  0.00  0.00    -0.019 A 
ATOM      4  C   UNL     1       1.106   0.374  -2.697  0.00  0.00    +0.006 A 
ATOM      5  C   UNL     1       0.857  -0.621  -3.625  0.00  0.00    +0.000 A 
ATOM      6  C   UNL     1       1.100  -1.947  -3.311  0.00  0.00    +0.002 A 
ATOM      7  C   UNL     1       1.592  -2.285  -2.068  0.00  0.00    +0.028 A 
ATOM      8  C   UNL     1       1.851  -1.285  -1.127  0.00  0.00    +0.067 A 
BRANCH   3  10
ATOM      9  C   UNL     1       2.900   2.114  -1.006  0.00  0.00    +0.012 C 
ATOM     10  C   UNL     1       1.869   1.136  -0.439  0.00  0.00    +0.015 C 
ATOM     11  C   UNL     1       0.569   1.885  -0.135  0.00  0.00    +0.012 C 
ENDBRANCH   3  10
ENDBRANCH   1   8
BRANCH   2  12
ATOM     12  C   UNL     1       3.798  -2.860   1.480  0.00  0.00    +0.149 A 
ATOM     13  C   UNL     1       4.855  -3.713   1.732  0.00  0.00    +0.068 A 
ATOM     14  C   UNL     1       4.929  -3.861   3.121  0.00  0.00    +0.079 A 
ATOM     15  C   UNL     1       3.930  -3.106   3.660  0.00  0.00    +0.204 A 
ATOM     16  O   UNL     1       3.258  -2.503   2.667  0.00  0.00    -0.439 OA
ATOM     17 BR   UNL     1       6.180  -4.913   4.072  0.00  0.00    -0.045 Br
BRANCH  15  18
ATOM     18  N   UNL     1       3.657  -2.979   5.009  0.00  0.00    -0.301 N 
ATOM     19  C   UNL     1       4.399  -3.630   6.099  0.00  0.00    +0.108 C 
ATOM     20  C   UNL     1       3.723  -3.218   7.424  0.00  0.00    +0.020 C 
ATOM     21  C   UNL     1       2.294  -2.814   6.973  0.00  0.00    +0.020 C 
ATOM     22  C   UNL     1       2.577  -2.163   5.594  0.00  0.00    +0.108 C 
ENDBRANCH  15  18
ENDBRANCH   2  12
TORSDOF 4
