REMARK  Name = ZINC64428100
REMARK  8 active torsions:
REMARK  status: ('A' for Active; 'I' for Inactive)
REMARK    1  A    between atoms: C_1  and  C_2
REMARK    2  A    between atoms: C_4  and  C_31
REMARK    3  A    between atoms: C_11  and  O_15
REMARK    4  A    between atoms: O_15  and  C_16
REMARK    5  A    between atoms: C_16  and  C_18
REMARK    6  A    between atoms: C_18  and  C_20
REMARK    7  A    between atoms: C_18  and  N_30
REMARK    8  A    between atoms: C_20  and  C_21
REMARK                            x       y       z     vdW  Elec       q    Type
REMARK                         _______ _______ _______ _____ _____    ______ ____
ROOT
ATOM      1  C   UNL     1       0.065   1.415  -0.242  0.00  0.00    +0.053 C 
ATOM      2  C   UNL     1       0.031  -0.113  -0.156  0.00  0.00    +0.185 C 
ATOM      3  C   UNL     1      -1.426  -0.588  -0.059  0.00  0.00    +0.131 C 
ATOM      4  C   UNL     1      -1.397  -2.102   0.056  0.00  0.00    +0.178 C 
ATOM      5  O   UNL     1      -2.201  -2.801  -0.524  0.00  0.00    -0.291 OA
ATOM      6  C   UNL     1      -0.344  -2.676   0.908  0.00  0.00    +0.060 A 
ATOM      7  C   UNL     1      -0.383  -4.023   1.279  0.00  0.00    +0.018 A 
ATOM      8  C   UNL     1       0.608  -4.539   2.065  0.00  0.00    +0.047 A 
ATOM      9  C   UNL     1       1.655  -3.729   2.497  0.00  0.00    +0.135 A 
ATOM     10  C   UNL     1       1.705  -2.390   2.139  0.00  0.00    +0.092 A 
ATOM     11  C   UNL     1       0.706  -1.850   1.344  0.00  0.00    +0.135 A 
ATOM     12  O   UNL     1       0.747  -0.541   1.002  0.00  0.00    -0.487 OA
ENDROOT
BRANCH   3  13
ATOM     13  C   UNL     1      -2.080   0.009   1.160  0.00  0.00    -0.030 A 
ATOM     14  C   UNL     1      -1.561  -0.247   2.416  0.00  0.00    +0.008 A 
ATOM     15  C   UNL     1      -2.156   0.297   3.540  0.00  0.00    +0.050 A 
ATOM     16  C   UNL     1      -3.275   1.102   3.402  0.00  0.00    +0.162 A 
ATOM     17  C   UNL     1      -3.796   1.359   2.142  0.00  0.00    +0.162 A 
ATOM     18  C   UNL     1      -3.195   0.816   1.019  0.00  0.00    +0.054 A 
ATOM     19  O   UNL     1      -4.898   2.154   2.018  0.00  0.00    -0.488 OA
ATOM     20  C   UNL     1      -6.119   1.614   2.527  0.00  0.00    +0.232 C 
ATOM     21  C   UNL     1      -6.240   1.871   4.021  0.00  0.00    +0.082 C 
ATOM     22  C   UNL     1      -5.170   1.145   4.822  0.00  0.00    +0.232 C 
ATOM     23  O   UNL     1      -3.871   1.647   4.502  0.00  0.00    -0.488 OA
ENDBRANCH   3  13
BRANCH   9  24
ATOM     24  O   UNL     1       2.635  -4.254   3.276  0.00  0.00    -0.425 OA
BRANCH  24  25
ATOM     25  C   UNL     1       3.478  -5.137   2.717  0.00  0.00    +0.330 C 
ATOM     26  O   UNL     1       3.418  -5.364   1.532  0.00  0.00    -0.249 OA
BRANCH  25  27
ATOM     27  C   UNL     1       4.500  -5.846   3.569  0.00  0.00    +0.165 C 
BRANCH  27  28
ATOM     28  N   UNL     1       5.577  -6.363   2.714  0.00  0.00    -0.318 NA
ATOM     29  H   UNL     1       5.216  -7.014   2.033  0.00  0.00    +0.119 HD
ATOM     30  H   UNL     1       6.076  -5.609   2.265  0.00  0.00    +0.119 HD
ENDBRANCH  27  28
BRANCH  27  31
ATOM     31  C   UNL     1       3.832  -7.008   4.307  0.00  0.00    +0.063 C 
BRANCH  31  32
ATOM     32  C   UNL     1       4.822  -7.639   5.251  0.00  0.00    -0.040 C 
ATOM     33  C   UNL     1       4.975  -7.372   6.568  0.00  0.00    -0.001 A 
ATOM     34  C   UNL     1       4.292  -6.447   7.480  0.00  0.00    +0.010 A 
ATOM     35  C   UNL     1       4.676  -6.401   8.776  0.00  0.00    +0.001 A 
ATOM     36  C   UNL     1       5.707  -7.212   9.269  0.00  0.00    +0.002 A 
ATOM     37  C   UNL     1       6.382  -8.086   8.492  0.00  0.00    +0.026 A 
ATOM     38  C   UNL     1       6.061  -8.218   7.112  0.00  0.00    +0.043 A 
ATOM     39  N   UNL     1       6.560  -8.979   6.169  0.00  0.00    -0.380 N 
ATOM     40  C   UNL     1       5.842  -8.706   4.919  0.00  0.00    +0.144 C 
ATOM     41  H   UNL     1       7.281  -9.618   6.280  0.00  0.00    +0.160 HD
ENDBRANCH  31  32
ENDBRANCH  27  31
ENDBRANCH  25  27
ENDBRANCH  24  25
ENDBRANCH   9  24
TORSDOF 7
