REMARK  Name = ZINC01157051
REMARK  6 active torsions:
REMARK  status: ('A' for Active; 'I' for Inactive)
REMARK    1  A    between atoms: C_1  and  C_2
REMARK    2  A    between atoms: C_5  and  N_9
REMARK    3  A    between atoms: C_6  and  C_8
REMARK    4  A    between atoms: C_10  and  C_12
REMARK    5  A    between atoms: C_13  and  C_27
REMARK    6  A    between atoms: C_18  and  C_20
REMARK                            x       y       z     vdW  Elec       q    Type
REMARK                         _______ _______ _______ _____ _____    ______ ____
ROOT
ATOM      1  C   UNL     1      -0.842  -6.974  -0.868  0.00  0.00    +0.056 C 
ATOM      2  C   UNL     1      -1.091  -7.724  -1.961  0.00  0.00    +0.019 C 
ATOM      3  N   UNL     1      -1.403  -9.050  -1.851  0.00  0.00    -0.273 N 
ATOM      4  C   UNL     1      -1.485  -9.699  -0.683  0.00  0.00    +0.304 C 
ATOM      5  O   UNL     1      -1.770 -10.881  -0.686  0.00  0.00    -0.252 OA
ATOM      6  N   UNL     1      -1.262  -9.084   0.495  0.00  0.00    -0.288 N 
ATOM      7  C   UNL     1      -0.913  -7.654   0.485  0.00  0.00    +0.142 C 
ATOM      8  C   UNL     1      -1.026  -7.088  -3.326  0.00  0.00    +0.061 C 
ATOM      9  H   UNL     1      -1.574  -9.549  -2.666  0.00  0.00    +0.156 HD
ATOM     10  H   UNL     1      -1.327  -9.573   1.331  0.00  0.00    +0.151 HD
ENDROOT
BRANCH   7  11
ATOM     11  C   UNL     1      -1.936  -6.924   1.318  0.00  0.00    -0.022 A 
ATOM     12  C   UNL     1      -3.284  -7.091   1.059  0.00  0.00    +0.006 A 
ATOM     13  C   UNL     1      -4.223  -6.423   1.823  0.00  0.00    +0.001 A 
ATOM     14  C   UNL     1      -3.814  -5.587   2.845  0.00  0.00    +0.015 A 
ATOM     15  C   UNL     1      -2.466  -5.420   3.104  0.00  0.00    +0.018 A 
ATOM     16  C   UNL     1      -1.527  -6.093   2.343  0.00  0.00    +0.021 A 
ATOM     17 BR   UNL     1      -1.906  -4.276   4.502  0.00  0.00    -0.050 Br
ENDBRANCH   7  11
BRANCH   1  19
ATOM     18  N   UNL     1      -1.497  -4.689  -1.151  0.00  0.00    -0.281 N 
ATOM     19  C   UNL     1      -0.518  -5.599  -0.980  0.00  0.00    +0.248 C 
ATOM     20  O   UNL     1       0.644  -5.241  -0.923  0.00  0.00    -0.270 OA
ATOM     21  H   UNL     1      -2.427  -4.961  -1.103  0.00  0.00    +0.155 HD
BRANCH  18  26
ATOM     22  C   UNL     1      -0.178   0.737  -2.151  0.00  0.00    +0.044 C 
ATOM     23  C   UNL     1      -0.528  -0.705  -1.885  0.00  0.00    -0.050 A 
ATOM     24  C   UNL     1       0.314  -1.490  -1.119  0.00  0.00    +0.005 A 
ATOM     25  C   UNL     1      -0.004  -2.811  -0.874  0.00  0.00    +0.024 A 
ATOM     26  C   UNL     1      -1.172  -3.351  -1.397  0.00  0.00    +0.037 A 
ATOM     27  C   UNL     1      -2.016  -2.560  -2.165  0.00  0.00    -0.029 A 
ATOM     28  C   UNL     1      -1.695  -1.238  -2.402  0.00  0.00    +0.008 A 
ATOM     29  C   UNL     1      -3.284  -3.142  -2.734  0.00  0.00    +0.045 C 
ENDBRANCH  18  26
ENDBRANCH   1  19
TORSDOF 3
