REMARK  Name = ZINC39777977
REMARK  8 active torsions:
REMARK  status: ('A' for Active; 'I' for Inactive)
REMARK    1  A    between atoms: C_1  and  C_2
REMARK    2  A    between atoms: C_2  and  O_3
REMARK    3  A    between atoms: O_3  and  C_4
REMARK    4  A    between atoms: C_4  and  C_6
REMARK    5  A    between atoms: C_8  and  N_17
REMARK    6  A    between atoms: C_19  and  C_30
REMARK    7  A    between atoms: C_25  and  O_28
REMARK    8  A    between atoms: O_28  and  C_29
REMARK                            x       y       z     vdW  Elec       q    Type
REMARK                         _______ _______ _______ _____ _____    ______ ____
ROOT
ATOM      1  N   UNL     1       1.657  -1.668  -4.937  0.00  0.00    -0.342 N 
ATOM      2  C   UNL     1       1.351  -2.111  -6.127  0.00  0.00    +0.207 A 
ATOM      3  C   UNL     1       2.273  -1.928  -7.270  0.00  0.00    +0.078 A 
ATOM      4  C   UNL     1       2.196  -2.842  -8.293  0.00  0.00    +0.028 A 
ATOM      5  C   UNL     1       1.210  -3.920  -8.165  0.00  0.00    +0.022 A 
ATOM      6  C   UNL     1       1.248  -5.029  -9.019  0.00  0.00    +0.012 A 
ATOM      7  C   UNL     1       0.313  -6.030  -8.880  0.00  0.00    +0.004 A 
ATOM      8  C   UNL     1      -0.665  -5.947  -7.900  0.00  0.00    +0.049 A 
ATOM      9  C   UNL     1      -0.718  -4.856  -7.049  0.00  0.00    +0.163 A 
ATOM     10  C   UNL     1       0.217  -3.834  -7.174  0.00  0.00    +0.179 A 
ATOM     11  O   UNL     1       0.179  -2.760  -6.352  0.00  0.00    -0.435 OA
ATOM     12  H   UNL     1       2.498  -1.207  -4.793  0.00  0.00    +0.164 HD
ENDROOT
BRANCH   3  13
ATOM     13  C   UNL     1       3.233  -0.810  -7.310  0.00  0.00    +0.144 A 
ATOM     14  N   UNL     1       3.369   0.103  -6.377  0.00  0.00    -0.228 NA
ATOM     15  C   UNL     1       4.340   0.979  -6.734  0.00  0.00    +0.089 A 
ATOM     16  C   UNL     1       4.879   2.115  -6.123  0.00  0.00    +0.030 A 
ATOM     17  C   UNL     1       5.885   2.816  -6.750  0.00  0.00    +0.002 A 
ATOM     18  C   UNL     1       6.368   2.403  -7.983  0.00  0.00    +0.002 A 
ATOM     19  C   UNL     1       5.848   1.284  -8.600  0.00  0.00    +0.028 A 
ATOM     20  C   UNL     1       4.834   0.565  -7.984  0.00  0.00    +0.066 A 
ATOM     21  N   UNL     1       4.123  -0.571  -8.324  0.00  0.00    -0.338 N 
ATOM     22  H   UNL     1       4.232  -1.098  -9.131  0.00  0.00    +0.167 HD
ENDBRANCH   3  13
BRANCH   1  24
ATOM     23  C   UNL     1       1.468  -2.353  -2.550  0.00  0.00    +0.157 C 
ATOM     24  C   UNL     1       0.730  -1.867  -3.820  0.00  0.00    +0.162 C 
ATOM     25  S   UNL     1      -0.353  -3.332  -4.092  0.00  0.00    -0.104 S 
ATOM     26  C   UNL     1       0.597  -4.529  -3.184  0.00  0.00    -0.012 C 
ATOM     27  C   UNL     1       1.481  -3.859  -2.459  0.00  0.00    -0.044 C 
ATOM     28  C   UNL     1       2.478  -4.593  -1.565  0.00  0.00    +0.032 C 
ATOM     29  C   UNL     1       1.970  -6.010  -1.305  0.00  0.00    +0.005 C 
ATOM     30  C   UNL     1       1.649  -6.691  -2.639  0.00  0.00    +0.005 C 
ATOM     31  C   UNL     1       0.417  -6.020  -3.240  0.00  0.00    +0.042 C 
BRANCH  23  32
ATOM     32  C   UNL     1       0.775  -1.794  -1.334  0.00  0.00    +0.317 C 
ATOM     33  O   UNL     1       0.314  -2.540  -0.504  0.00  0.00    -0.250 OA
BRANCH  32  34
ATOM     34  O   UNL     1       0.671  -0.465  -1.174  0.00  0.00    -0.464 OA
BRANCH  34  36
ATOM     35  C   UNL     1      -0.019   1.526   0.010  0.00  0.00    +0.048 C 
ATOM     36  C   UNL     1       0.002  -0.004   0.002  0.00  0.00    +0.229 C 
ENDBRANCH  34  36
ENDBRANCH  32  34
ENDBRANCH  23  32
ENDBRANCH   1  24
BRANCH   9  37
ATOM     37  O   UNL     1      -1.682  -4.785  -6.092  0.00  0.00    -0.491 OA
ATOM     38  C   UNL     1      -2.608  -5.870  -6.021  0.00  0.00    +0.277 C 
ENDBRANCH   9  37
TORSDOF 6
