REMARK  Name = ZINC35354734
REMARK  5 active torsions:
REMARK  status: ('A' for Active; 'I' for Inactive)
REMARK    1  A    between atoms: C_4  and  S_9
REMARK    2  A    between atoms: C_5  and  N_7
REMARK    3  A    between atoms: N_7  and  N_8
REMARK    4  A    between atoms: S_9  and  N_12
REMARK    5  A    between atoms: N_12  and  C_13
REMARK                            x       y       z     vdW  Elec       q    Type
REMARK                         _______ _______ _______ _____ _____    ______ ____
ROOT
ATOM      1  S   UNL     1       3.700  -0.856   0.014  0.00  0.00    +0.074 S 
ATOM      2  O   UNL     1       3.550  -1.857  -0.984  0.00  0.00    -0.150 OA
ATOM      3  O   UNL     1       4.681   0.168  -0.075  0.00  0.00    -0.150 OA
ENDROOT
BRANCH   1   7
ATOM      4  C   UNL     1      -0.310   1.224   0.376  0.00  0.00    +0.002 A 
ATOM      5  C   UNL     1       0.845   1.966   0.210  0.00  0.00    +0.002 A 
ATOM      6  C   UNL     1       2.068   1.331   0.100  0.00  0.00    +0.031 A 
ATOM      7  C   UNL     1       2.140  -0.048   0.155  0.00  0.00    +0.130 A 
ATOM      8  C   UNL     1       0.982  -0.796   0.322  0.00  0.00    +0.068 A 
ATOM      9  C   UNL     1      -0.245  -0.155   0.432  0.00  0.00    +0.026 A 
BRANCH   8  10
ATOM     10  N   UNL     1       1.051  -2.190   0.379  0.00  0.00    -0.281 N 
ATOM     11  H   UNL     1       1.914  -2.633   0.375  0.00  0.00    +0.166 HD
BRANCH  10  12
ATOM     12  N   UNL     1      -0.096  -2.929   0.439  0.00  0.00    -0.256 NA
ATOM     13  H   UNL     1       0.111  -3.910   0.546  0.00  0.00    +0.140 HD
ATOM     14  H   UNL     1      -0.698  -2.603   1.180  0.00  0.00    +0.140 HD
ENDBRANCH  10  12
ENDBRANCH   8  10
ENDBRANCH   1   7
BRANCH   1  15
ATOM     15  N   UNL     1       3.971  -1.649   1.443  0.00  0.00    -0.215 N 
ATOM     16  H   UNL     1       3.979  -2.618   1.465  0.00  0.00    +0.174 HD
BRANCH  15  17
ATOM     17  C   UNL     1       4.190  -0.921   2.615  0.00  0.00    +0.061 A 
ATOM     18  C   UNL     1       3.572   0.310   2.795  0.00  0.00    +0.025 A 
ATOM     19  C   UNL     1       3.790   1.027   3.955  0.00  0.00    +0.002 A 
ATOM     20  C   UNL     1       4.621   0.521   4.938  0.00  0.00    +0.001 A 
ATOM     21  C   UNL     1       5.238  -0.704   4.762  0.00  0.00    +0.016 A 
ATOM     22  C   UNL     1       5.020  -1.429   3.606  0.00  0.00    +0.036 A 
ATOM     23  I   UNL     1       5.948  -3.289   3.344  0.00  0.00    -0.042 I 
ENDBRANCH  15  17
ENDBRANCH   1  15
TORSDOF 5
