REMARK  Name = ZINC34829980
REMARK  6 active torsions:
REMARK  status: ('A' for Active; 'I' for Inactive)
REMARK    1  A    between atoms: C_1  and  C_2
REMARK    2  A    between atoms: C_7  and  N_8
REMARK    3  A    between atoms: C_16  and  C_18
REMARK    4  A    between atoms: C_19  and  C_21
REMARK    5  A    between atoms: C_21  and  N_22
REMARK    6  A    between atoms: C_30  and  C_32
REMARK                            x       y       z     vdW  Elec       q    Type
REMARK                         _______ _______ _______ _____ _____    ______ ____
ROOT
ATOM      1  N   UNL     1       0.289   0.020   2.448  0.00  0.00    -0.269 N 
ATOM      2  C   UNL     1       0.085  -0.670   3.587  0.00  0.00    +0.307 C 
ATOM      3  O   UNL     1       0.046  -1.885   3.564  0.00  0.00    -0.252 OA
ATOM      4  N   UNL     1      -0.075  -0.013   4.753  0.00  0.00    -0.280 N 
ATOM      5  C   UNL     1      -0.199   1.451   4.776  0.00  0.00    +0.128 C 
ATOM      6  C   UNL     1       0.871   2.019   5.717  0.00  0.00    +0.127 C 
ATOM      7  N   UNL     1       0.816   1.284   6.988  0.00  0.00    -0.297 N 
ATOM      8  C   UNL     1       0.940  -0.180   6.966  0.00  0.00    +0.130 C 
ATOM      9  C   UNL     1      -0.136  -0.749   6.024  0.00  0.00    +0.092 C 
ATOM     10  C   UNL     1       0.133  -2.234   5.771  0.00  0.00    +0.030 C 
ATOM     11  C   UNL     1       0.656   1.941   8.154  0.00  0.00    +0.230 C 
ATOM     12  O   UNL     1       0.612   1.323   9.197  0.00  0.00    -0.274 OA
ATOM     13  H   UNL     1       0.404   0.982   2.477  0.00  0.00    +0.156 HD
ENDROOT
BRANCH   1  20
ATOM     14  C   UNL     1      -0.566   1.412   0.118  0.00  0.00    +0.045 C 
ATOM     15  C   UNL     1      -0.073  -0.011   0.060  0.00  0.00    -0.029 A 
ATOM     16  C   UNL     1      -0.021  -0.676  -1.150  0.00  0.00    +0.005 A 
ATOM     17  C   UNL     1       0.431  -1.981  -1.204  0.00  0.00    +0.000 A 
ATOM     18  C   UNL     1       0.832  -2.626  -0.048  0.00  0.00    +0.002 A 
ATOM     19  C   UNL     1       0.782  -1.967   1.164  0.00  0.00    +0.023 A 
ATOM     20  C   UNL     1       0.335  -0.653   1.221  0.00  0.00    +0.038 A 
ENDBRANCH   1  20
BRANCH  11  21
ATOM     21  C   UNL     1       0.531   3.443   8.161  0.00  0.00    +0.181 C 
BRANCH  21  22
ATOM     22  N   UNL     1       0.366   3.913   9.543  0.00  0.00    -0.283 NA
ATOM     23  C   UNL     1       1.566   3.630  10.343  0.00  0.00    +0.091 C 
ATOM     24  C   UNL     1       1.208   3.751  11.834  0.00  0.00    +0.058 C 
ATOM     25  C   UNL     1       0.434   5.016  12.014  0.00  0.00    -0.004 A 
ATOM     26  C   UNL     1      -0.128   5.773  11.031  0.00  0.00    -0.016 A 
ATOM     27  C   UNL     1      -0.804   6.920  11.438  0.00  0.00    +0.013 A 
ATOM     28  C   UNL     1      -0.878   7.231  12.754  0.00  0.00    +0.046 A 
ATOM     29  S   UNL     1       0.027   5.884  13.502  0.00  0.00    -0.101 S 
ATOM     30  C   UNL     1       0.005   5.337   9.575  0.00  0.00    +0.118 C 
BRANCH  30  31
ATOM     31  C   UNL     1      -1.307   5.542   8.863  0.00  0.00    -0.023 A 
ATOM     32  C   UNL     1      -2.333   4.629   9.027  0.00  0.00    +0.006 A 
ATOM     33  C   UNL     1      -3.537   4.816   8.375  0.00  0.00    +0.003 A 
ATOM     34  C   UNL     1      -3.716   5.916   7.556  0.00  0.00    +0.038 A 
ATOM     35  C   UNL     1      -2.690   6.830   7.391  0.00  0.00    +0.124 A 
ATOM     36  C   UNL     1      -1.486   6.645   8.050  0.00  0.00    +0.043 A 
ATOM     37  F   UNL     1      -2.865   7.904   6.591  0.00  0.00    -0.205 F 
ENDBRANCH  30  31
ENDBRANCH  21  22
ENDBRANCH  11  21
TORSDOF 4
