REMARK  Name = ZINC38705590
REMARK  13 active torsions:
REMARK  status: ('A' for Active; 'I' for Inactive)
REMARK    1  A    between atoms: C_1  and  C_2
REMARK    2  A    between atoms: C_4  and  C_40
REMARK    3  A    between atoms: C_5  and  C_9
REMARK    4  A    between atoms: C_6  and  O_8
REMARK    5  A    between atoms: N_17  and  C_30
REMARK    6  A    between atoms: C_18  and  C_20
REMARK    7  A    between atoms: C_24  and  O_26
REMARK    8  A    between atoms: O_26  and  C_27
REMARK    9  A    between atoms: C_27  and  C_28
REMARK   10  A    between atoms: C_30  and  C_31
REMARK   11  A    between atoms: C_31  and  C_32
REMARK   12  A    between atoms: C_35  and  O_38
REMARK   13  A    between atoms: O_38  and  C_39
REMARK                            x       y       z     vdW  Elec       q    Type
REMARK                         _______ _______ _______ _____ _____    ______ ____
ROOT
ATOM      1  C   UNL     1      -0.230  -4.713  -0.111  0.00  0.00    +0.102 A 
ATOM      2  C   UNL     1       0.044  -5.348   1.105  0.00  0.00    +0.035 A 
ATOM      3  C   UNL     1       0.104  -6.698   0.820  0.00  0.00    +0.126 A 
ATOM      4  N   UNL     1      -0.131  -6.814  -0.521  0.00  0.00    -0.272 N 
ATOM      5  H   UNL     1      -0.151  -7.650  -1.013  0.00  0.00    +0.189 HD
ATOM      6  N   UNL     1      -0.326  -5.651  -1.033  0.00  0.00    -0.173 NA
ATOM      7  C   UNL     1       0.389  -7.425   2.062  0.00  0.00    +0.265 C 
ATOM      8  O   UNL     1       0.504  -8.633   2.149  0.00  0.00    -0.268 OA
ATOM      9  N   UNL     1       0.505  -6.567   3.091  0.00  0.00    -0.285 N 
ATOM     10  C   UNL     1       0.301  -5.205   2.580  0.00  0.00    +0.141 C 
ENDROOT
BRANCH   1  15
ATOM     11  C   UNL     1      -0.853   0.956  -0.939  0.00  0.00    +0.044 C 
ATOM     12  C   UNL     1      -0.688  -0.526  -0.721  0.00  0.00    -0.047 A 
ATOM     13  C   UNL     1      -1.619  -1.407  -1.242  0.00  0.00    +0.007 A 
ATOM     14  C   UNL     1      -1.475  -2.766  -1.047  0.00  0.00    -0.037 A 
ATOM     15  C   UNL     1      -0.389  -3.253  -0.324  0.00  0.00    +0.047 A 
ATOM     16  C   UNL     1       0.550  -2.361   0.201  0.00  0.00    +0.127 A 
ATOM     17  C   UNL     1       0.397  -0.999  -0.007  0.00  0.00    +0.049 A 
ATOM     18  C   UNL     1      -2.492  -3.721  -1.616  0.00  0.00    +0.044 C 
BRANCH  16  19
ATOM     19  O   UNL     1       1.613  -2.827   0.908  0.00  0.00    -0.506 OA
ATOM     20  H   UNL     1       2.414  -2.946   0.380  0.00  0.00    +0.292 HD
ENDBRANCH  16  19
ENDBRANCH   1  15
BRANCH  10  21
ATOM     21  C   UNL     1      -0.889  -4.572   3.255  0.00  0.00    -0.019 A 
ATOM     22  C   UNL     1      -2.044  -5.307   3.450  0.00  0.00    +0.006 A 
ATOM     23  C   UNL     1      -3.137  -4.729   4.069  0.00  0.00    +0.004 A 
ATOM     24  C   UNL     1      -3.078  -3.416   4.493  0.00  0.00    +0.045 A 
ATOM     25  C   UNL     1      -1.921  -2.676   4.298  0.00  0.00    +0.121 A 
ATOM     26  C   UNL     1      -0.823  -3.260   3.682  0.00  0.00    +0.051 A 
BRANCH  25  27
ATOM     27  O   UNL     1      -1.860  -1.384   4.714  0.00  0.00    -0.488 OA
BRANCH  27  28
ATOM     28  C   UNL     1      -3.026  -0.851   5.345  0.00  0.00    +0.256 C 
BRANCH  28  29
ATOM     29  C   UNL     1      -2.774   0.583   5.736  0.00  0.00    +0.006 C 
ATOM     30  C   UNL     1      -3.681   1.497   5.494  0.00  0.00    +0.007 C 
ENDBRANCH  28  29
ENDBRANCH  27  28
ENDBRANCH  25  27
ENDBRANCH  10  21
BRANCH   9  31
ATOM     31  C   UNL     1       0.786  -6.928   4.483  0.00  0.00    +0.114 C 
BRANCH  31  32
ATOM     32  C   UNL     1       2.299  -6.938   4.711  0.00  0.00    +0.054 C 
BRANCH  32  33
ATOM     33  C   UNL     1       2.588  -7.310   6.143  0.00  0.00    -0.046 A 
ATOM     34  C   UNL     1       2.675  -6.324   7.108  0.00  0.00    +0.007 A 
ATOM     35  C   UNL     1       2.941  -6.662   8.421  0.00  0.00    +0.046 A 
ATOM     36  C   UNL     1       3.119  -7.992   8.771  0.00  0.00    +0.120 A 
ATOM     37  C   UNL     1       3.031  -8.980   7.801  0.00  0.00    +0.046 A 
ATOM     38  C   UNL     1       2.760  -8.637   6.490  0.00  0.00    +0.007 A 
BRANCH  36  39
ATOM     39  O   UNL     1       3.381  -8.328  10.061  0.00  0.00    -0.495 OA
ATOM     40  C   UNL     1       3.553  -9.717  10.349  0.00  0.00    +0.277 C 
ENDBRANCH  36  39
ENDBRANCH  32  33
ENDBRANCH  31  32
ENDBRANCH   9  31
TORSDOF 10
