REMARK  Name = ZINC39660313
REMARK  9 active torsions:
REMARK  status: ('A' for Active; 'I' for Inactive)
REMARK    1  A    between atoms: C_1  and  C_2
REMARK    2  A    between atoms: C_2  and  C_3
REMARK    3  A    between atoms: C_3  and  C_4
REMARK    4  A    between atoms: C_4  and  C_5
REMARK    5  A    between atoms: C_5  and  C_6
REMARK    6  A    between atoms: C_6  and  N_7
REMARK    7  A    between atoms: C_8  and  C_10
REMARK    8  A    between atoms: C_21  and  C_23
REMARK    9  A    between atoms: C_23  and  C_24
REMARK                            x       y       z     vdW  Elec       q    Type
REMARK                         _______ _______ _______ _____ _____    ______ ____
ROOT
ATOM      1  C   UNL     1       3.006  -6.331  -5.199  0.00  0.00    +0.100 C 
ATOM      2  C   UNL     1       2.171  -6.002  -6.457  0.00  0.00    +0.121 C 
ATOM      3  N   UNL     1       2.359  -7.172  -7.348  0.00  0.00    -0.300 N 
ATOM      4  C   UNL     1       2.340  -8.338  -6.434  0.00  0.00    +0.115 C 
ATOM      5  C   UNL     1       3.115  -7.865  -5.187  0.00  0.00    -0.004 C 
ATOM      6  C   UNL     1       4.576  -8.292  -5.280  0.00  0.00    -0.010 C 
ATOM      7  C   UNL     1       4.662  -9.819  -5.209  0.00  0.00    -0.082 C 
ATOM      8  N   UNL     1       4.074 -10.286  -3.947  0.00  0.00    +0.379 N 
ATOM      9  C   UNL     1       2.646  -9.952  -3.907  0.00  0.00    -0.082 C 
ATOM     10  C   UNL     1       2.474  -8.431  -3.923  0.00  0.00    -0.010 C 
ATOM     11  C   UNL     1       2.513  -7.174  -8.687  0.00  0.00    +0.220 C 
ATOM     12  O   UNL     1       2.658  -8.222  -9.279  0.00  0.00    -0.275 OA
ATOM     13  H   UNL     1       4.187 -11.286  -3.875  0.00  0.00    -0.086 HD
ATOM     14  H   UNL     1       4.545  -9.841  -3.174  0.00  0.00    -0.086 HD
ENDROOT
BRANCH   1  16
ATOM     15  N   UNL     1       3.015  -5.493  -2.872  0.00  0.00    -0.315 N 
ATOM     16  C   UNL     1       2.301  -5.845  -3.959  0.00  0.00    +0.218 C 
ATOM     17  O   UNL     1       1.090  -5.771  -3.940  0.00  0.00    -0.275 OA
ATOM     18  H   UNL     1       3.983  -5.552  -2.888  0.00  0.00    +0.149 HD
BRANCH  15  19
ATOM     19  C   UNL     1       2.329  -5.020  -1.667  0.00  0.00    +0.104 C 
BRANCH  19  20
ATOM     20  C   UNL     1       3.363  -4.689  -0.589  0.00  0.00    +0.019 C 
BRANCH  20  21
ATOM     21  C   UNL     1       2.647  -4.196   0.670  0.00  0.00    +0.002 C 
BRANCH  21  22
ATOM     22  C   UNL     1       3.681  -3.864   1.748  0.00  0.00    -0.000 C 
BRANCH  22  24
ATOM     23  C   UNL     1       3.998  -3.039   4.085  0.00  0.00    +0.004 C 
ATOM     24  C   UNL     1       2.965  -3.371   3.007  0.00  0.00    -0.003 C 
ENDBRANCH  22  24
ENDBRANCH  21  22
ENDBRANCH  20  21
ENDBRANCH  19  20
ENDBRANCH  15  19
ENDBRANCH   1  16
BRANCH  11  25
ATOM     25  C   UNL     1       2.506  -5.873  -9.448  0.00  0.00    +0.131 C 
BRANCH  25  26
ATOM     26  C   UNL     1       2.695  -6.150 -10.918  0.00  0.00    -0.039 A 
ATOM     27  C   UNL     1       3.968  -6.196 -11.454  0.00  0.00    +0.005 A 
ATOM     28  C   UNL     1       4.142  -6.450 -12.801  0.00  0.00    +0.020 A 
ATOM     29  C   UNL     1       3.042  -6.659 -13.613  0.00  0.00    +0.041 A 
ATOM     30  C   UNL     1       1.767  -6.613 -13.076  0.00  0.00    +0.020 A 
ATOM     31  C   UNL     1       1.595  -6.364 -11.727  0.00  0.00    +0.005 A 
ATOM     32 CL   UNL     1       3.259  -6.977 -15.306  0.00  0.00    -0.084 Cl
ENDBRANCH  25  26
ENDBRANCH  11  25
TORSDOF 8
