REMARK  Name = ZINC02614272
REMARK  8 active torsions:
REMARK  status: ('A' for Active; 'I' for Inactive)
REMARK    1  A    between atoms: C_1  and  C_2
REMARK    2  A    between atoms: C_2  and  C_3
REMARK    3  A    between atoms: C_8  and  N_9
REMARK    4  A    between atoms: C_10  and  C_12
REMARK    5  A    between atoms: C_12  and  S_13
REMARK    6  A    between atoms: S_13  and  C_14
REMARK    7  A    between atoms: C_22  and  C_26
REMARK    8  A    between atoms: N_29  and  C_30
REMARK                            x       y       z     vdW  Elec       q    Type
REMARK                         _______ _______ _______ _____ _____    ______ ____
ROOT
ATOM      1  C   UNL     1      -3.456   4.260  -0.627  0.00  0.00    +0.178 A 
ATOM      2  N   UNL     1      -2.285   4.879  -0.559  0.00  0.00    -0.215 NA
ATOM      3  C   UNL     1      -1.277   4.216  -0.005  0.00  0.00    +0.117 A 
ATOM      4  C   UNL     1      -1.384   2.906   0.515  0.00  0.00    +0.076 A 
ATOM      5  C   UNL     1      -0.170   2.341   1.080  0.00  0.00    -0.023 A 
ATOM      6  C   UNL     1       0.931   3.126   1.060  0.00  0.00    -0.004 A 
ATOM      7  S   UNL     1       0.411   4.638   0.288  0.00  0.00    -0.073 S 
ATOM      8  C   UNL     1       2.296   2.790   1.578  0.00  0.00    +0.046 C 
ATOM      9  C   UNL     1       2.182   1.553   2.480  0.00  0.00    -0.009 C 
ATOM     10  C   UNL     1       1.350   0.492   1.753  0.00  0.00    +0.008 C 
ATOM     11  C   UNL     1      -0.111   0.939   1.679  0.00  0.00    +0.037 C 
ATOM     12  C   UNL     1       3.577   0.998   2.775  0.00  0.00    +0.008 C 
ATOM     13  C   UNL     1      -2.662   2.266   0.419  0.00  0.00    +0.268 A 
ATOM     14  O   UNL     1      -2.853   1.136   0.835  0.00  0.00    -0.267 OA
ATOM     15  N   UNL     1      -3.647   2.995  -0.156  0.00  0.00    -0.255 N 
ENDROOT
BRANCH  15  16
ATOM     16  C   UNL     1      -4.921   2.424  -0.272  0.00  0.00    +0.052 A 
ATOM     17  C   UNL     1      -5.902   2.711   0.668  0.00  0.00    +0.026 A 
ATOM     18  C   UNL     1      -7.158   2.151   0.547  0.00  0.00    +0.002 A 
ATOM     19  C   UNL     1      -7.437   1.295  -0.503  0.00  0.00    +0.000 A 
ATOM     20  C   UNL     1      -6.462   1.003  -1.438  0.00  0.00    +0.002 A 
ATOM     21  C   UNL     1      -5.205   1.564  -1.326  0.00  0.00    +0.026 A 
ENDBRANCH  15  16
BRANCH   1  22
ATOM     22  S   UNL     1      -4.819   5.106  -1.356  0.00  0.00    -0.078 S 
BRANCH  22  23
ATOM     23  C   UNL     1      -4.022   6.674  -1.785  0.00  0.00    +0.173 C 
BRANCH  23  25
ATOM     24  N   UNL     1      -4.656   8.815  -2.849  0.00  0.00    -0.285 N 
ATOM     25  C   UNL     1      -5.027   7.585  -2.442  0.00  0.00    +0.227 C 
ATOM     26  O   UNL     1      -6.169   7.211  -2.603  0.00  0.00    -0.275 OA
ATOM     27  H   UNL     1      -3.760   9.137  -2.666  0.00  0.00    +0.155 HD
BRANCH  24  33
ATOM     28  C   UNL     1      -5.370  11.002  -3.585  0.00  0.00    -0.026 A 
ATOM     29  C   UNL     1      -6.269  11.801  -4.265  0.00  0.00    +0.005 A 
ATOM     30  C   UNL     1      -7.360  11.234  -4.897  0.00  0.00    +0.000 A 
ATOM     31  C   UNL     1      -7.556   9.866  -4.851  0.00  0.00    +0.002 A 
ATOM     32  C   UNL     1      -6.659   9.061  -4.177  0.00  0.00    +0.023 A 
ATOM     33  C   UNL     1      -5.564   9.628  -3.537  0.00  0.00    +0.037 A 
BRANCH  28  35
ATOM     34  C   UNL     1      -2.968  11.564  -3.828  0.00  0.00    +0.009 C 
ATOM     35  C   UNL     1      -4.181  11.620  -2.897  0.00  0.00    +0.033 C 
ENDBRANCH  28  35
ENDBRANCH  24  33
ENDBRANCH  23  25
ENDBRANCH  22  23
ENDBRANCH   1  22
TORSDOF 6
