REMARK  Name = ZINC02919565
REMARK  4 active torsions:
REMARK  status: ('A' for Active; 'I' for Inactive)
REMARK    1  A    between atoms: C_6  and  C_7
REMARK    2  A    between atoms: C_10  and  C_18
REMARK    3  A    between atoms: C_23  and  O_24
REMARK    4  A    between atoms: O_24  and  C_25
REMARK                            x       y       z     vdW  Elec       q    Type
REMARK                         _______ _______ _______ _____ _____    ______ ____
ROOT
ATOM      1  C   UNL     1      -1.293  -0.775   0.010  0.00  0.00    +0.106 C 
ATOM      2  C   UNL     1      -1.589  -1.269   1.431  0.00  0.00    +0.059 C 
ATOM      3  C   UNL     1      -2.933  -2.007   1.454  0.00  0.00    +0.146 C 
ATOM      4  N   UNL     1      -2.955  -2.981   0.363  0.00  0.00    -0.226 N 
ATOM      5  C   UNL     1      -2.132  -2.941  -0.713  0.00  0.00    +0.215 A 
ATOM      6  N   UNL     1      -2.421  -3.957  -1.481  0.00  0.00    -0.202 NA
ATOM      7  C   UNL     1      -3.417  -4.661  -0.933  0.00  0.00    +0.247 A 
ATOM      8  N   UNL     1      -3.773  -4.099   0.195  0.00  0.00    -0.156 NA
ATOM      9  N   UNL     1      -1.179  -1.943  -0.884  0.00  0.00    -0.307 N 
ATOM     10  H   UNL     1      -0.478  -2.012  -1.551  0.00  0.00    +0.149 HD
ENDROOT
BRANCH   1  16
ATOM     11  C   UNL     1      -0.017   1.378   0.010  0.00  0.00    +0.006 A 
ATOM     12  C   UNL     1       1.171   2.086   0.002  0.00  0.00    +0.015 A 
ATOM     13  C   UNL     1       2.378   1.411  -0.013  0.00  0.00    +0.018 A 
ATOM     14  C   UNL     1       2.396   0.027  -0.021  0.00  0.00    +0.015 A 
ATOM     15  C   UNL     1       1.208  -0.679  -0.013  0.00  0.00    +0.006 A 
ATOM     16  C   UNL     1       0.002  -0.004   0.002  0.00  0.00    -0.027 A 
ATOM     17 BR   UNL     1       4.003   2.378  -0.024  0.00  0.00    -0.050 Br
ENDBRANCH   1  16
BRANCH   3  18
ATOM     18  C   UNL     1      -3.097  -2.717   2.772  0.00  0.00    +0.020 A 
ATOM     19  C   UNL     1      -2.180  -3.676   3.160  0.00  0.00    +0.024 A 
ATOM     20  C   UNL     1      -2.330  -4.329   4.370  0.00  0.00    +0.018 A 
ATOM     21  C   UNL     1      -3.398  -4.023   5.195  0.00  0.00    +0.019 A 
ATOM     22  C   UNL     1      -4.316  -3.065   4.812  0.00  0.00    +0.047 A 
ATOM     23  C   UNL     1      -4.165  -2.406   3.600  0.00  0.00    +0.132 A 
ATOM     24 BR   UNL     1      -1.075  -5.641   4.897  0.00  0.00    -0.050 Br
BRANCH  23  25
ATOM     25  O   UNL     1      -5.065  -1.459   3.224  0.00  0.00    -0.434 OA
BRANCH  25  26
ATOM     26  C   UNL     1      -6.139  -1.190   4.126  0.00  0.00    +0.541 C 
ATOM     27  F   UNL     1      -6.883  -2.357   4.327  0.00  0.00    -0.166 F 
ATOM     28  F   UNL     1      -5.622  -0.750   5.349  0.00  0.00    -0.166 F 
ENDBRANCH  25  26
ENDBRANCH  23  25
ENDBRANCH   3  18
TORSDOF 4
