REMARK  Name = ZINC39557271
REMARK  11 active torsions:
REMARK  status: ('A' for Active; 'I' for Inactive)
REMARK    1  A    between atoms: C_1  and  C_2
REMARK    2  A    between atoms: C_2  and  O_3
REMARK    3  A    between atoms: O_3  and  C_4
REMARK    4  A    between atoms: C_7  and  S_26
REMARK    5  A    between atoms: C_9  and  C_10
REMARK    6  A    between atoms: C_18  and  C_22
REMARK    7  A    between atoms: N_20  and  C_21
REMARK    8  A    between atoms: C_22  and  C_23
REMARK    9  A    between atoms: C_22  and  C_24
REMARK   10  A    between atoms: C_22  and  C_25
REMARK   11  A    between atoms: S_26  and  N_29
REMARK                            x       y       z     vdW  Elec       q    Type
REMARK                         _______ _______ _______ _____ _____    ______ ____
ROOT
ATOM      1  C   UNL     1       0.777  -1.808  -1.336  0.00  0.00    +0.131 A 
ATOM      2  C   UNL     1       0.243  -2.668  -0.388  0.00  0.00    +0.048 A 
ATOM      3  C   UNL     1       0.352  -4.034  -0.554  0.00  0.00    +0.032 A 
ATOM      4  C   UNL     1       0.992  -4.557  -1.667  0.00  0.00    +0.106 A 
ATOM      5  C   UNL     1       1.527  -3.717  -2.619  0.00  0.00    +0.043 A 
ATOM      6  C   UNL     1       1.420  -2.332  -2.466  0.00  0.00    +0.060 A 
ENDROOT
BRANCH   6   7
ATOM      7  C   UNL     1       1.986  -1.427  -3.485  0.00  0.00    +0.156 C 
ATOM      8  N   UNL     1       1.880  -0.117  -3.310  0.00  0.00    -0.159 NA
ATOM      9  C   UNL     1       2.145   0.779  -4.261  0.00  0.00    +0.266 C 
ATOM     10  O   UNL     1       2.195   1.967  -4.008  0.00  0.00    -0.271 OA
ATOM     11  C   UNL     1       2.381   0.274  -5.654  0.00  0.00    +0.230 C 
ATOM     12  C   UNL     1       2.917  -1.144  -5.534  0.00  0.00    +0.098 C 
ATOM     13  N   UNL     1       2.599  -1.958  -4.560  0.00  0.00    -0.230 NA
ATOM     14  C   UNL     1       3.893  -1.199  -6.530  0.00  0.00    +0.088 C 
ATOM     15  N   UNL     1       4.164   0.014  -6.937  0.00  0.00    -0.186 NA
ATOM     16  N   UNL     1       3.437   0.955  -6.396  0.00  0.00    -0.240 N 
ATOM     17  C   UNL     1       3.639   2.402  -6.498  0.00  0.00    +0.153 C 
BRANCH  14  18
ATOM     18  C   UNL     1       4.535  -2.458  -7.053  0.00  0.00    +0.008 C 
ATOM     19  C   UNL     1       5.553  -2.099  -8.137  0.00  0.00    +0.017 C 
ATOM     20  C   UNL     1       5.243  -3.184  -5.908  0.00  0.00    +0.017 C 
ATOM     21  C   UNL     1       3.458  -3.370  -7.646  0.00  0.00    +0.017 C 
ENDBRANCH  14  18
ENDBRANCH   6   7
BRANCH   4  22
ATOM     22  S   UNL     1       1.122  -6.303  -1.864  0.00  0.00    +0.061 S 
ATOM     23  O   UNL     1       2.241  -6.534  -2.709  0.00  0.00    -0.153 OA
ATOM     24  O   UNL     1       1.020  -6.867  -0.564  0.00  0.00    -0.153 OA
BRANCH  22  25
ATOM     25  N   UNL     1      -0.216  -6.802  -2.703  0.00  0.00    -0.174 NA
ATOM     26  C   UNL     1      -1.446  -7.193  -1.998  0.00  0.00    +0.124 C 
ATOM     27  C   UNL     1      -1.887  -8.567  -2.514  0.00  0.00    +0.098 C 
ATOM     28  N   UNL     1      -1.997  -8.525  -3.978  0.00  0.00    -0.313 NA
ATOM     29  C   UNL     1      -0.695  -8.253  -4.602  0.00  0.00    +0.098 C 
ATOM     30  C   UNL     1      -0.207  -6.861  -4.172  0.00  0.00    +0.124 C 
ATOM     31  H   UNL     1      -2.398  -9.379  -4.335  0.00  0.00    +0.122 HD
ENDBRANCH  22  25
ENDBRANCH   4  22
BRANCH   1  32
ATOM     32  O   UNL     1       0.671  -0.465  -1.174  0.00  0.00    -0.492 OA
BRANCH  32  34
ATOM     33  C   UNL     1      -0.019   1.526   0.010  0.00  0.00    +0.048 C 
ATOM     34  C   UNL     1       0.002  -0.004   0.002  0.00  0.00    +0.226 C 
ENDBRANCH  32  34
ENDBRANCH   1  32
TORSDOF 6
