REMARK  Name = ZINC38915156
REMARK  3 active torsions:
REMARK  status: ('A' for Active; 'I' for Inactive)
REMARK    1  A    between atoms: C_3  and  C_6
REMARK    2  A    between atoms: N_12  and  N_13
REMARK    3  A    between atoms: C_14  and  C_15
REMARK                            x       y       z     vdW  Elec       q    Type
REMARK                         _______ _______ _______ _____ _____    ______ ____
ROOT
ATOM      1  C   UNL     1       3.419   0.620   0.124  0.00  0.00    +0.301 C 
ATOM      2  N   UNL     1       4.050   1.754   0.819  0.00  0.00    -0.163 NA
ATOM      3  N   UNL     1       4.884   1.298   1.606  0.00  0.00    -0.096 NA
ATOM      4  C   UNL     1       4.964  -0.038   1.596  0.00  0.00    +0.199 C 
ATOM      5  S   UNL     1       6.024  -0.959   2.576  0.00  0.00    -0.013 S 
ATOM      6  N   UNL     1       4.091  -0.559   0.702  0.00  0.00    -0.168 N 
ENDROOT
BRANCH   1   9
ATOM      7  C   UNL     1      -0.158   1.157   0.833  0.00  0.00    +0.041 A 
ATOM      8  C   UNL     1       1.146   1.650   0.599  0.00  0.00    +0.049 A 
ATOM      9  C   UNL     1       1.939   0.581   0.408  0.00  0.00    +0.151 A 
ATOM     10  O   UNL     1       1.189  -0.528   0.513  0.00  0.00    -0.464 OA
ATOM     11  C   UNL     1      -0.084  -0.185   0.771  0.00  0.00    +0.195 A 
ENDBRANCH   1   9
BRANCH   6  12
ATOM     12  N   UNL     1       3.873  -1.909   0.395  0.00  0.00    -0.183 NA
ATOM     13  C   UNL     1       3.067  -2.233  -0.570  0.00  0.00    +0.138 C 
BRANCH  13  14
ATOM     14  C   UNL     1       2.743  -3.651  -0.815  0.00  0.00    -0.005 A 
ATOM     15  C   UNL     1       3.297  -4.647  -0.007  0.00  0.00    +0.010 A 
ATOM     16  C   UNL     1       2.990  -5.971  -0.241  0.00  0.00    +0.016 A 
ATOM     17  C   UNL     1       2.135  -6.314  -1.275  0.00  0.00    +0.018 A 
ATOM     18  C   UNL     1       1.583  -5.331  -2.080  0.00  0.00    +0.016 A 
ATOM     19  C   UNL     1       1.877  -4.003  -1.853  0.00  0.00    +0.010 A 
ATOM     20 BR   UNL     1       1.720  -8.131  -1.590  0.00  0.00    -0.050 Br
ENDBRANCH  13  14
ENDBRANCH   6  12
TORSDOF 3
