REMARK  Name = ZINC38705784
REMARK  13 active torsions:
REMARK  status: ('A' for Active; 'I' for Inactive)
REMARK    1  A    between atoms: C_1  and  C_2
REMARK    2  A    between atoms: C_2  and  O_3
REMARK    3  A    between atoms: O_3  and  C_4
REMARK    4  A    between atoms: C_7  and  C_13
REMARK    5  A    between atoms: C_9  and  O_10
REMARK    6  A    between atoms: O_10  and  C_11
REMARK    7  A    between atoms: C_11  and  C_12
REMARK    8  A    between atoms: C_16  and  C_31
REMARK    9  A    between atoms: N_23  and  C_24
REMARK   10  A    between atoms: C_24  and  C_25
REMARK   11  A    between atoms: C_32  and  C_39
REMARK   12  A    between atoms: C_34  and  C_38
REMARK   13  A    between atoms: C_36  and  O_37
REMARK                            x       y       z     vdW  Elec       q    Type
REMARK                         _______ _______ _______ _____ _____    ______ ____
ROOT
ATOM      1  C   UNL     1      -1.780  -5.784  -0.109  0.00  0.00    +0.142 C 
ATOM      2  C   UNL     1      -1.814  -6.465  -1.450  0.00  0.00    +0.035 A 
ATOM      3  C   UNL     1      -2.439  -6.585  -2.696  0.00  0.00    +0.102 A 
ATOM      4  N   UNL     1      -1.788  -7.508  -3.376  0.00  0.00    -0.173 NA
ATOM      5  N   UNL     1      -0.815  -7.983  -2.683  0.00  0.00    -0.272 N 
ATOM      6  H   UNL     1      -0.201  -8.671  -2.983  0.00  0.00    +0.189 HD
ATOM      7  C   UNL     1      -0.772  -7.372  -1.462  0.00  0.00    +0.126 A 
ATOM      8  C   UNL     1      -0.072  -7.295  -0.175  0.00  0.00    +0.266 C 
ATOM      9  O   UNL     1       0.894  -7.968   0.131  0.00  0.00    -0.268 OA
ATOM     10  N   UNL     1      -0.650  -6.375   0.620  0.00  0.00    -0.281 N 
ENDROOT
BRANCH   3  11
ATOM     11  C   UNL     1      -3.618  -5.815  -3.166  0.00  0.00    +0.047 A 
ATOM     12  C   UNL     1      -3.607  -5.219  -4.424  0.00  0.00    -0.037 A 
ATOM     13  C   UNL     1      -4.706  -4.504  -4.857  0.00  0.00    +0.007 A 
ATOM     14  C   UNL     1      -5.819  -4.378  -4.045  0.00  0.00    -0.047 A 
ATOM     15  C   UNL     1      -5.839  -4.965  -2.794  0.00  0.00    +0.049 A 
ATOM     16  C   UNL     1      -4.745  -5.691  -2.350  0.00  0.00    +0.127 A 
ATOM     17  C   UNL     1      -7.013  -3.595  -4.526  0.00  0.00    +0.044 C 
ATOM     18  C   UNL     1      -2.397  -5.353  -5.312  0.00  0.00    +0.044 C 
BRANCH  16  19
ATOM     19  O   UNL     1      -4.767  -6.275  -1.123  0.00  0.00    -0.506 OA
ATOM     20  H   UNL     1      -4.495  -5.689  -0.404  0.00  0.00    +0.292 HD
ENDBRANCH  16  19
ENDBRANCH   3  11
BRANCH   1  24
ATOM     21  C   UNL     1      -1.165  -1.581  -0.611  0.00  0.00    +0.162 A 
ATOM     22  C   UNL     1      -0.134  -2.471  -0.865  0.00  0.00    +0.050 A 
ATOM     23  C   UNL     1      -0.335  -3.828  -0.702  0.00  0.00    +0.009 A 
ATOM     24  C   UNL     1      -1.565  -4.303  -0.285  0.00  0.00    -0.019 A 
ATOM     25  C   UNL     1      -2.599  -3.421  -0.030  0.00  0.00    +0.055 A 
ATOM     26  C   UNL     1      -2.402  -2.058  -0.186  0.00  0.00    +0.162 A 
BRANCH  21  27
ATOM     27  O   UNL     1      -0.969  -0.245  -0.770  0.00  0.00    -0.489 OA
BRANCH  27  29
ATOM     28  C   UNL     1       0.356   1.697  -1.331  0.00  0.00    +0.048 C 
ATOM     29  C   UNL     1       0.326   0.172  -1.210  0.00  0.00    +0.226 C 
ENDBRANCH  27  29
ENDBRANCH  21  27
BRANCH  26  30
ATOM     30  O   UNL     1      -3.416  -1.189   0.071  0.00  0.00    -0.489 OA
BRANCH  30  31
ATOM     31  C   UNL     1      -4.657  -1.750   0.503  0.00  0.00    +0.226 C 
ATOM     32  C   UNL     1      -5.669  -0.627   0.741  0.00  0.00    +0.048 C 
ENDBRANCH  30  31
ENDBRANCH  26  30
ENDBRANCH   1  24
BRANCH  10  33
ATOM     33  C   UNL     1      -0.227  -6.023   1.977  0.00  0.00    +0.144 C 
BRANCH  33  34
ATOM     34  C   UNL     1      -0.944  -6.899   2.971  0.00  0.00    -0.030 A 
ATOM     35  C   UNL     1      -2.162  -6.501   3.491  0.00  0.00    +0.005 A 
ATOM     36  C   UNL     1      -2.820  -7.305   4.402  0.00  0.00    +0.000 A 
ATOM     37  C   UNL     1      -2.261  -8.508   4.794  0.00  0.00    +0.000 A 
ATOM     38  C   UNL     1      -1.044  -8.906   4.273  0.00  0.00    +0.000 A 
ATOM     39  C   UNL     1      -0.388  -8.104   3.358  0.00  0.00    +0.005 A 
ENDBRANCH  33  34
ENDBRANCH  10  33
TORSDOF 9
