REMARK  Name = ZINC03535035
REMARK  6 active torsions:
REMARK  status: ('A' for Active; 'I' for Inactive)
REMARK    1  A    between atoms: C_1  and  C_2
REMARK    2  A    between atoms: C_5  and  N_9
REMARK    3  A    between atoms: C_7  and  C_8
REMARK    4  A    between atoms: C_18  and  S_19
REMARK    5  A    between atoms: S_19  and  C_20
REMARK    6  A    between atoms: C_20  and  C_21
REMARK                            x       y       z     vdW  Elec       q    Type
REMARK                         _______ _______ _______ _____ _____    ______ ____
ROOT
ATOM      1  N   UNL     1       1.203   6.072   0.018  0.00  0.00    -0.255 N 
ATOM      2  C   UNL     1       1.625   4.891  -0.491  0.00  0.00    +0.268 A 
ATOM      3  O   UNL     1       2.745   4.747  -0.949  0.00  0.00    -0.267 OA
ATOM      4  C   UNL     1       0.673   3.820  -0.458  0.00  0.00    +0.076 A 
ATOM      5  C   UNL     1       0.875   2.463  -0.939  0.00  0.00    -0.023 A 
ATOM      6  C   UNL     1      -0.167   1.612  -0.809  0.00  0.00    -0.004 A 
ATOM      7  S   UNL     1      -1.458   2.568  -0.053  0.00  0.00    -0.073 S 
ATOM      8  C   UNL     1      -0.597   4.101   0.096  0.00  0.00    +0.117 A 
ATOM      9  N   UNL     1      -0.949   5.285   0.581  0.00  0.00    -0.215 NA
ATOM     10  C   UNL     1      -0.045   6.254   0.536  0.00  0.00    +0.178 A 
ATOM     11  C   UNL     1      -0.221   0.173  -1.222  0.00  0.00    +0.043 C 
ATOM     12  C   UNL     1       0.962  -0.108  -2.159  0.00  0.00    +0.005 C 
ATOM     13  C   UNL     1       2.234   0.466  -1.529  0.00  0.00    +0.005 C 
ATOM     14  C   UNL     1       2.186   1.994  -1.565  0.00  0.00    +0.037 C 
ENDROOT
BRANCH   1  19
ATOM     15  C   UNL     1       4.795  10.466   0.001  0.00  0.00    +0.044 C 
ATOM     16  C   UNL     1       3.842   9.299   0.005  0.00  0.00    -0.047 A 
ATOM     17  C   UNL     1       3.002   9.090  -1.073  0.00  0.00    +0.005 A 
ATOM     18  C   UNL     1       2.130   8.019  -1.074  0.00  0.00    +0.026 A 
ATOM     19  C   UNL     1       2.090   7.157   0.014  0.00  0.00    +0.052 A 
ATOM     20  C   UNL     1       2.934   7.370   1.095  0.00  0.00    +0.030 A 
ATOM     21  C   UNL     1       3.808   8.440   1.088  0.00  0.00    -0.046 A 
ATOM     22  C   UNL     1       4.725   8.671   2.262  0.00  0.00    +0.044 C 
ENDBRANCH   1  19
BRANCH  10  23
ATOM     23  S   UNL     1      -0.475   7.841   1.169  0.00  0.00    -0.078 S 
BRANCH  23  24
ATOM     24  C   UNL     1      -2.174   7.518   1.702  0.00  0.00    +0.172 C 
BRANCH  24  25
ATOM     25  C   UNL     1      -2.763   8.772   2.295  0.00  0.00    +0.221 C 
ATOM     26  O   UNL     1      -2.098   9.785   2.352  0.00  0.00    -0.275 OA
ATOM     27  N   UNL     1      -4.027   8.768   2.762  0.00  0.00    -0.329 N 
ATOM     28  H   UNL     1      -4.558   7.957   2.717  0.00  0.00    +0.145 HD
ATOM     29  H   UNL     1      -4.405   9.575   3.144  0.00  0.00    +0.145 HD
ENDBRANCH  24  25
ENDBRANCH  23  24
ENDBRANCH  10  23
TORSDOF 4
