REMARK  Name = ZINC07814783
REMARK  3 active torsions:
REMARK  status: ('A' for Active; 'I' for Inactive)
REMARK    1  A    between atoms: C_1  and  C_2
REMARK    2  A    between atoms: C_2  and  C_3
REMARK    3  A    between atoms: C_16  and  C_18
REMARK                            x       y       z     vdW  Elec       q    Type
REMARK                         _______ _______ _______ _____ _____    ______ ____
ROOT
ATOM      1  C   UNL     1      -2.001   3.848   1.528  0.00  0.00    +0.216 C 
ATOM      2  O   UNL     1      -2.939   3.149   1.848  0.00  0.00    -0.276 OA
ATOM      3  N   UNL     1      -1.122   3.413   0.603  0.00  0.00    -0.281 N 
ATOM      4  C   UNL     1      -0.012   4.280   0.247  0.00  0.00    +0.204 C 
ATOM      5  C   UNL     1      -0.192   4.803  -1.142  0.00  0.00    +0.235 C 
ATOM      6  O   UNL     1       0.203   5.930  -1.355  0.00  0.00    -0.274 OA
ATOM      7  N   UNL     1      -0.730   4.171  -2.145  0.00  0.00    -0.284 N 
ATOM      8  C   UNL     1      -1.563   3.093  -2.321  0.00  0.00    +0.039 A 
ATOM      9  C   UNL     1      -2.123   2.974  -3.604  0.00  0.00    +0.025 A 
ATOM     10  C   UNL     1      -2.980   1.949  -3.921  0.00  0.00    +0.017 A 
ATOM     11  C   UNL     1      -3.302   1.004  -2.963  0.00  0.00    +0.018 A 
ATOM     12  C   UNL     1      -2.748   1.102  -1.705  0.00  0.00    +0.023 A 
ATOM     13  C   UNL     1      -1.874   2.135  -1.375  0.00  0.00    -0.000 A 
ATOM     14  C   UNL     1      -1.332   2.115   0.020  0.00  0.00    +0.140 C 
ATOM     15 BR   UNL     1      -4.489  -0.409  -3.375  0.00  0.00    -0.050 Br
ATOM     16  H   UNL     1      -0.475   4.567  -2.993  0.00  0.00    +0.155 HD
ENDROOT
BRANCH  14  17
ATOM     17  C   UNL     1      -0.017   1.379   0.010  0.00  0.00    -0.004 A 
ATOM     18  C   UNL     1       0.697   1.254  -1.168  0.00  0.00    +0.007 A 
ATOM     19  C   UNL     1       1.900   0.575  -1.179  0.00  0.00    +0.000 A 
ATOM     20  C   UNL     1       2.391   0.019  -0.012  0.00  0.00    +0.001 A 
ATOM     21  C   UNL     1       1.679   0.143   1.166  0.00  0.00    +0.020 A 
ATOM     22  C   UNL     1       0.474   0.823   1.177  0.00  0.00    +0.046 A 
ATOM     23 CL   UNL     1      -0.421   0.980   2.657  0.00  0.00    -0.083 Cl
ENDBRANCH  14  17
BRANCH   1  25
ATOM     24  C   UNL     1      -2.943   5.449   3.170  0.00  0.00    +0.013 C 
ATOM     25  C   UNL     1      -1.818   5.202   2.163  0.00  0.00    +0.092 C 
ENDBRANCH   1  25
TORSDOF 2
