REMARK  Name = ZINC66186316
REMARK  6 active torsions:
REMARK  status: ('A' for Active; 'I' for Inactive)
REMARK    1  A    between atoms: C_1  and  C_2
REMARK    2  A    between atoms: C_2  and  C_3
REMARK    3  A    between atoms: C_2  and  C_4
REMARK    4  A    between atoms: C_2  and  C_19
REMARK    5  A    between atoms: C_4  and  N_5
REMARK    6  A    between atoms: C_11  and  N_14
REMARK                            x       y       z     vdW  Elec       q    Type
REMARK                         _______ _______ _______ _____ _____    ______ ____
ROOT
ATOM      1  N   UNL     1      -2.119  -0.061   1.218  0.00  0.00    -0.298 N 
ATOM      2  C   UNL     1      -3.403  -0.406   1.442  0.00  0.00    +0.302 C 
ATOM      3  O   UNL     1      -3.992  -1.108   0.643  0.00  0.00    -0.253 OA
ATOM      4  N   UNL     1      -4.034   0.029   2.551  0.00  0.00    -0.287 N 
ATOM      5  C   UNL     1      -3.446   0.886   3.591  0.00  0.00    +0.108 C 
ATOM      6  C   UNL     1      -4.526   1.100   4.672  0.00  0.00    +0.005 C 
ATOM      7  C   UNL     1      -5.475  -0.109   4.460  0.00  0.00    -0.049 C 
ATOM      8  C   UNL     1      -5.430  -0.270   2.918  0.00  0.00    +0.094 C 
ATOM      9  H   UNL     1      -1.649   0.499   1.855  0.00  0.00    +0.150 HD
ENDROOT
BRANCH   7  10
ATOM     10  N   UNL     1      -6.836   0.204   4.916  0.00  0.00    +0.383 N 
ATOM     11  C   UNL     1      -7.707  -0.992   4.786  0.00  0.00    -0.078 C 
ATOM     12  C   UNL     1      -8.859  -0.701   5.781  0.00  0.00    -0.020 C 
ATOM     13  C   UNL     1      -8.133  -0.009   6.957  0.00  0.00    -0.020 C 
ATOM     14  C   UNL     1      -6.827   0.542   6.356  0.00  0.00    -0.078 C 
ATOM     15  H   UNL     1      -7.214   0.972   4.381  0.00  0.00    -0.081 HD
ENDBRANCH   7  10
BRANCH   1  16
ATOM     16  C   UNL     1      -1.433  -0.534   0.013  0.00  0.00    +0.116 C 
BRANCH  16  18
ATOM     17  C   UNL     1      -0.019   1.526   0.010  0.00  0.00    +0.017 C 
ATOM     18  C   UNL     1       0.002  -0.004   0.002  0.00  0.00    +0.006 C 
ATOM     19  C   UNL     1       0.742  -0.511   1.242  0.00  0.00    +0.017 C 
BRANCH  18  20
ATOM     20  C   UNL     1       0.707  -0.490  -1.238  0.00  0.00    -0.040 A 
ATOM     21  C   UNL     1       0.036  -1.284  -2.148  0.00  0.00    +0.005 A 
ATOM     22  C   UNL     1       0.682  -1.730  -3.286  0.00  0.00    +0.015 A 
ATOM     23  C   UNL     1       2.001  -1.381  -3.513  0.00  0.00    +0.018 A 
ATOM     24  C   UNL     1       2.673  -0.586  -2.602  0.00  0.00    +0.015 A 
ATOM     25  C   UNL     1       2.024  -0.137  -1.467  0.00  0.00    +0.005 A 
ATOM     26 BR   UNL     1       2.886  -1.991  -5.069  0.00  0.00    -0.050 Br
ENDBRANCH  18  20
ENDBRANCH  16  18
ENDBRANCH   1  16
TORSDOF 4
