REMARK  Name = ZINC38806487
REMARK  7 active torsions:
REMARK  status: ('A' for Active; 'I' for Inactive)
REMARK    1  A    between atoms: C_1  and  C_2
REMARK    2  A    between atoms: C_10  and  C_12
REMARK    3  A    between atoms: N_14  and  C_15
REMARK    4  A    between atoms: C_15  and  C_16
REMARK    5  A    between atoms: C_16  and  N_17
REMARK    6  A    between atoms: N_17  and  C_18
REMARK    7  A    between atoms: C_18  and  C_19
REMARK                            x       y       z     vdW  Elec       q    Type
REMARK                         _______ _______ _______ _____ _____    ______ ____
ROOT
ATOM      1  C   UNL     1      -0.018   1.503   0.010  0.00  0.00    +0.046 C 
ATOM      2  C   UNL     1       0.002  -0.004   0.002  0.00  0.00    -0.024 A 
ATOM      3  C   UNL     1       0.006  -0.680  -1.180  0.00  0.00    +0.005 A 
ATOM      4  C   UNL     1       0.025  -2.072  -1.212  0.00  0.00    +0.001 A 
ATOM      5  C   UNL     1       0.040  -2.796  -0.058  0.00  0.00    +0.010 A 
ATOM      6  C   UNL     1       0.037  -2.132   1.179  0.00  0.00    +0.002 A 
ATOM      7  C   UNL     1       0.023  -0.715   1.214  0.00  0.00    +0.076 A 
ATOM      8  N   UNL     1       0.025  -0.068   2.386  0.00  0.00    -0.231 NA
ATOM      9  C   UNL     1       0.044  -0.715   3.531  0.00  0.00    +0.137 A 
ATOM     10  C   UNL     1       0.064  -2.130   3.576  0.00  0.00    +0.092 A 
ATOM     11  C   UNL     1       0.051  -2.850   2.389  0.00  0.00    +0.032 A 
ATOM     12  N   UNL     1       0.045   0.001   4.714  0.00  0.00    -0.327 N 
ATOM     13  H   UNL     1       0.059  -0.467   5.564  0.00  0.00    +0.148 HD
ENDROOT
BRANCH  10  14
ATOM     14  C   UNL     1       0.085  -2.812   4.835  0.00  0.00    +0.103 C 
ATOM     15  N   UNL     1       0.102  -3.354   5.833  0.00  0.00    -0.191 NA
ENDBRANCH  10  14
BRANCH  12  16
ATOM     16  C   UNL     1       0.025   1.465   4.684  0.00  0.00    +0.122 C 
BRANCH  16  17
ATOM     17  C   UNL     1       0.030   2.005   6.115  0.00  0.00    +0.128 C 
BRANCH  17  18
ATOM     18  N   UNL     1       0.010   3.470   6.085  0.00  0.00    -0.280 N 
ATOM     19  C   UNL     1       1.167   4.159   6.061  0.00  0.00    +0.300 C 
ATOM     20  O   UNL     1       1.151   5.375   6.035  0.00  0.00    -0.253 OA
ATOM     21  N   UNL     1       2.344   3.502   6.064  0.00  0.00    -0.313 N 
ATOM     22  H   UNL     1       2.357   2.532   6.084  0.00  0.00    +0.146 HD
ATOM     23  H   UNL     1       3.177   3.998   6.046  0.00  0.00    +0.146 HD
BRANCH  18  24
ATOM     24  C   UNL     1      -1.269   4.185   6.082  0.00  0.00    +0.144 C 
BRANCH  24  25
ATOM     25  C   UNL     1      -1.695   4.459   7.501  0.00  0.00    -0.030 A 
ATOM     26  C   UNL     1      -2.470   3.538   8.180  0.00  0.00    +0.005 A 
ATOM     27  C   UNL     1      -2.860   3.790   9.482  0.00  0.00    +0.000 A 
ATOM     28  C   UNL     1      -2.476   4.963  10.104  0.00  0.00    +0.000 A 
ATOM     29  C   UNL     1      -1.700   5.884   9.425  0.00  0.00    +0.000 A 
ATOM     30  C   UNL     1      -1.306   5.630   8.125  0.00  0.00    +0.005 A 
ENDBRANCH  24  25
ENDBRANCH  18  24
ENDBRANCH  17  18
ENDBRANCH  16  17
ENDBRANCH  12  16
TORSDOF 6
