REMARK  Name = ZINC46703472
REMARK  2 active torsions:
REMARK  status: ('A' for Active; 'I' for Inactive)
REMARK    1  A    between atoms: C_3  and  C_8
REMARK    2  A    between atoms: C_8  and  C_9
REMARK                            x       y       z     vdW  Elec       q    Type
REMARK                         _______ _______ _______ _____ _____    ______ ____
ROOT
ATOM      1  C   UNL     1       4.116   2.436   1.397  0.00  0.00    +0.115 A 
ATOM      2  N   UNL     1       5.264   3.126   1.624  0.00  0.00    -0.310 N 
ATOM      3  H   UNL     1       5.782   3.449   0.871  0.00  0.00    +0.170 HD
ATOM      4  C   UNL     1       5.697   3.372   2.875  0.00  0.00    +0.260 A 
ATOM      5  O   UNL     1       6.729   3.993   3.063  0.00  0.00    -0.267 OA
ATOM      6  C   UNL     1       4.924   2.890   3.982  0.00  0.00    +0.076 A 
ATOM      7  C   UNL     1       5.207   3.038   5.414  0.00  0.00    -0.012 A 
ATOM      8  C   UNL     1       4.299   2.488   6.260  0.00  0.00    +0.051 A 
ATOM      9  S   UNL     1       3.066   1.754   5.225  0.00  0.00    -0.062 S 
ATOM     10  C   UNL     1       3.756   2.189   3.648  0.00  0.00    +0.117 A 
ATOM     11  N   UNL     1       3.388   1.990   2.386  0.00  0.00    -0.226 NA
ATOM     12  S   UNL     1       4.353   2.520   8.017  0.00  0.00    -0.118 S 
ATOM     13  C   UNL     1       6.039   3.151   8.318  0.00  0.00    +0.075 C 
ATOM     14  C   UNL     1       6.275   4.294   7.322  0.00  0.00    +0.016 C 
ATOM     15  C   UNL     1       6.453   3.756   5.911  0.00  0.00    +0.038 C 
ENDROOT
BRANCH   1  16
ATOM     16  C   UNL     1       3.672   2.186  -0.021  0.00  0.00    +0.109 C 
BRANCH  16  19
ATOM     17  C   UNL     1      -0.017   1.377   0.010  0.00  0.00    +0.003 A 
ATOM     18  C   UNL     1       1.171   2.086   0.002  0.00  0.00    +0.004 A 
ATOM     19  C   UNL     1       2.378   1.413  -0.013  0.00  0.00    -0.037 A 
ATOM     20  C   UNL     1       2.399   0.030  -0.021  0.00  0.00    +0.042 A 
ATOM     21  C   UNL     1       1.211  -0.679  -0.013  0.00  0.00    +0.124 A 
ATOM     22  C   UNL     1       0.002  -0.004   0.002  0.00  0.00    +0.038 A 
ATOM     23  F   UNL     1       1.230  -2.030  -0.022  0.00  0.00    -0.205 F 
ENDBRANCH  16  19
ENDBRANCH   1  16
TORSDOF 2
