REMARK  Name = ZINC10040997
REMARK  12 active torsions:
REMARK  status: ('A' for Active; 'I' for Inactive)
REMARK    1  A    between atoms: C_1  and  C_2
REMARK    2  A    between atoms: C_2  and  O_3
REMARK    3  A    between atoms: O_3  and  C_4
REMARK    4  A    between atoms: C_6  and  C_12
REMARK    5  A    between atoms: C_9  and  O_10
REMARK    6  A    between atoms: N_13  and  N_14
REMARK    7  A    between atoms: C_15  and  C_17
REMARK    8  A    between atoms: C_17  and  C_19
REMARK    9  A    between atoms: C_17  and  N_22
REMARK   10  A    between atoms: C_19  and  C_20
REMARK   11  A    between atoms: C_19  and  C_21
REMARK   12  A    between atoms: C_23  and  C_25
REMARK                            x       y       z     vdW  Elec       q    Type
REMARK                         _______ _______ _______ _____ _____    ______ ____
ROOT
ATOM      1  N   UNL     1      -0.011   0.966   0.007  0.00  0.00    -0.205 N 
ATOM      2  C   UNL     1      -1.187   1.624   0.017  0.00  0.00    +0.253 C 
ATOM      3  O   UNL     1      -1.204   2.837   0.023  0.00  0.00    -0.272 OA
ATOM      4  H   UNL     1       0.002  -0.004   0.002  0.00  0.00    +0.177 HD
ENDROOT
BRANCH   1   6
ATOM      5  C   UNL     1       2.325   1.049  -0.015  0.00  0.00    +0.138 C 
ATOM      6  N   UNL     1       1.193   1.683  -0.000  0.00  0.00    -0.188 NA
BRANCH   5   9
ATOM      7  C   UNL     1       5.997   1.835  -0.046  0.00  0.00    +0.164 A 
ATOM      8  C   UNL     1       4.812   1.123  -0.032  0.00  0.00    +0.059 A 
ATOM      9  C   UNL     1       3.592   1.804  -0.022  0.00  0.00    -0.000 A 
ATOM     10  C   UNL     1       3.575   3.201  -0.015  0.00  0.00    +0.033 A 
ATOM     11  C   UNL     1       4.761   3.905  -0.022  0.00  0.00    +0.087 A 
ATOM     12  C   UNL     1       5.973   3.228  -0.038  0.00  0.00    +0.177 A 
ATOM     13 CL   UNL     1       4.739   5.641  -0.013  0.00  0.00    -0.080 Cl
BRANCH  12  14
ATOM     14  O   UNL     1       7.140   3.926  -0.046  0.00  0.00    -0.502 OA
ATOM     15  H   UNL     1       7.487   4.123   0.834  0.00  0.00    +0.292 HD
ENDBRANCH  12  14
BRANCH   7  16
ATOM     16  O   UNL     1       7.186   1.176  -0.061  0.00  0.00    -0.489 OA
BRANCH  16  18
ATOM     17  C   UNL     1       8.560  -0.813  -0.085  0.00  0.00    +0.048 C 
ATOM     18  C   UNL     1       7.136  -0.252  -0.068  0.00  0.00    +0.226 C 
ENDBRANCH  16  18
ENDBRANCH   7  16
ENDBRANCH   5   9
ENDBRANCH   1   6
BRANCH   2  19
ATOM     19  C   UNL     1      -2.482   0.853   0.018  0.00  0.00    +0.163 C 
BRANCH  19  20
ATOM     20  N   UNL     1      -3.608   1.789   0.029  0.00  0.00    -0.300 N 
ATOM     21  C   UNL     1      -4.801   1.404   0.526  0.00  0.00    +0.246 C 
ATOM     22  O   UNL     1      -4.941   0.280   0.965  0.00  0.00    -0.270 OA
ATOM     23  H   UNL     1      -3.496   2.687  -0.322  0.00  0.00    +0.150 HD
BRANCH  21  24
ATOM     24  C   UNL     1      -5.937   2.349   0.536  0.00  0.00    +0.055 A 
ATOM     25  C   UNL     1      -5.777   3.643   0.037  0.00  0.00    +0.014 A 
ATOM     26  C   UNL     1      -6.843   4.519   0.045  0.00  0.00    +0.001 A 
ATOM     27  C   UNL     1      -8.066   4.121   0.556  0.00  0.00    +0.001 A 
ATOM     28  C   UNL     1      -8.231   2.843   1.057  0.00  0.00    +0.021 A 
ATOM     29  C   UNL     1      -7.174   1.954   1.050  0.00  0.00    +0.053 A 
ATOM     30 CL   UNL     1      -7.382   0.349   1.680  0.00  0.00    -0.083 Cl
ENDBRANCH  21  24
ENDBRANCH  19  20
BRANCH  19  31
ATOM     31  C   UNL     1      -2.557  -0.021  -1.235  0.00  0.00    +0.012 C 
ATOM     32  C   UNL     1      -3.872  -0.804  -1.233  0.00  0.00    +0.009 C 
ATOM     33  C   UNL     1      -2.494   0.866  -2.480  0.00  0.00    +0.009 C 
ENDBRANCH  19  31
ENDBRANCH   2  19
TORSDOF 9
