REMARK  Name = ZINC38568339
REMARK  3 active torsions:
REMARK  status: ('A' for Active; 'I' for Inactive)
REMARK    1  A    between atoms: C_6  and  S_7
REMARK    2  A    between atoms: S_7  and  N_10
REMARK    3  A    between atoms: C_20  and  C_22
REMARK                            x       y       z     vdW  Elec       q    Type
REMARK                         _______ _______ _______ _____ _____    ______ ____
ROOT
ATOM      1  N   UNL     1      -2.117  -1.406  -2.190  0.00  0.00    -0.144 NA
ATOM      2  C   UNL     1      -2.941  -0.603  -3.121  0.00  0.00    +0.140 C 
ATOM      3  C   UNL     1      -2.667  -1.277  -4.489  0.00  0.00    +0.179 C 
ATOM      4  O   UNL     1      -2.556  -2.674  -4.130  0.00  0.00    -0.356 OA
ATOM      5  C   UNL     1      -1.875  -2.690  -2.865  0.00  0.00    +0.145 C 
ATOM      6  C   UNL     1      -2.420  -3.833  -2.008  0.00  0.00    +0.072 C 
ATOM      7  C   UNL     1      -1.716  -3.829  -0.648  0.00  0.00    +0.112 C 
ATOM      8  N   UNL     1      -0.264  -3.872  -0.867  0.00  0.00    -0.297 N 
ATOM      9  C   UNL     1       0.349  -2.862  -1.741  0.00  0.00    +0.112 C 
ATOM     10  C   UNL     1      -0.374  -2.876  -3.092  0.00  0.00    +0.072 C 
ATOM     11  C   UNL     1       0.492  -4.819  -0.276  0.00  0.00    +0.247 C 
ATOM     12  O   UNL     1      -0.037  -5.703   0.369  0.00  0.00    -0.270 OA
ENDROOT
BRANCH  11  13
ATOM     13  C   UNL     1       1.962  -4.782  -0.414  0.00  0.00    +0.039 A 
ATOM     14  C   UNL     1       2.624  -3.541  -0.449  0.00  0.00    +0.015 A 
ATOM     15  C   UNL     1       3.966  -3.463  -0.574  0.00  0.00    +0.031 A 
ATOM     16  C   UNL     1       4.751  -4.646  -0.672  0.00  0.00    +0.100 A 
ATOM     17  C   UNL     1       4.076  -5.940  -0.636  0.00  0.00    +0.101 A 
ATOM     18  C   UNL     1       2.665  -5.965  -0.499  0.00  0.00    +0.043 A 
ATOM     19  N   UNL     1       4.916  -6.972  -0.737  0.00  0.00    -0.191 NA
ATOM     20  S   UNL     1       6.384  -6.327  -0.861  0.00  0.00    +0.116 S 
ATOM     21  N   UNL     1       6.074  -4.749  -0.798  0.00  0.00    -0.191 NA
ENDBRANCH  11  13
BRANCH   1  22
ATOM     22  S   UNL     1      -1.573  -0.949  -0.695  0.00  0.00    +0.063 S 
ATOM     23  O   UNL     1      -0.772  -2.018  -0.210  0.00  0.00    -0.153 OA
ATOM     24  O   UNL     1      -2.702  -0.461   0.017  0.00  0.00    -0.153 OA
BRANCH  22  30
ATOM     25  C   UNL     1      -1.015   1.696  -1.072  0.00  0.00    +0.030 A 
ATOM     26  C   UNL     1      -0.169   2.773  -1.256  0.00  0.00    +0.022 A 
ATOM     27  C   UNL     1       1.200   2.577  -1.298  0.00  0.00    +0.041 A 
ATOM     28  C   UNL     1       1.721   1.304  -1.155  0.00  0.00    +0.022 A 
ATOM     29  C   UNL     1       0.874   0.227  -0.971  0.00  0.00    +0.030 A 
ATOM     30  C   UNL     1      -0.494   0.423  -0.930  0.00  0.00    +0.106 A 
ATOM     31 CL   UNL     1       2.264   3.930  -1.530  0.00  0.00    -0.084 Cl
ENDBRANCH  22  30
ENDBRANCH   1  22
TORSDOF 3
