REMARK  Name = ZINC02269191
REMARK  12 active torsions:
REMARK  status: ('A' for Active; 'I' for Inactive)
REMARK    1  A    between atoms: C_1  and  C_2
REMARK    2  A    between atoms: C_2  and  O_3
REMARK    3  A    between atoms: O_3  and  C_4
REMARK    4  A    between atoms: C_4  and  C_6
REMARK    5  A    between atoms: C_7  and  N_36
REMARK    6  A    between atoms: C_12  and  C_13
REMARK    7  A    between atoms: C_16  and  O_19
REMARK    8  A    between atoms: C_22  and  C_32
REMARK    9  A    between atoms: C_23  and  C_25
REMARK   10  A    between atoms: C_28  and  O_31
REMARK   11  A    between atoms: C_32  and  O_34
REMARK   12  A    between atoms: O_34  and  C_35
REMARK                            x       y       z     vdW  Elec       q    Type
REMARK                         _______ _______ _______ _____ _____    ______ ____
ROOT
ATOM      1  C   UNL     1      -4.738   4.665   0.894  0.00  0.00    +0.087 C 
ATOM      2  C   UNL     1      -5.577   3.603   0.877  0.00  0.00    +0.115 C 
ATOM      3  N   UNL     1      -5.781   2.789  -0.240  0.00  0.00    -0.257 N 
ATOM      4  C   UNL     1      -6.620   1.733  -0.243  0.00  0.00    +0.271 A 
ATOM      5  O   UNL     1      -7.251   1.438   0.755  0.00  0.00    -0.266 OA
ATOM      6  C   UNL     1      -6.753   0.950  -1.475  0.00  0.00    +0.079 A 
ATOM      7  C   UNL     1      -7.523  -0.141  -1.724  0.00  0.00    +0.028 C 
ATOM      8  S   UNL     1      -5.632   1.818  -2.560  0.00  0.00    -0.065 S 
ATOM      9  C   UNL     1      -5.097   3.066  -1.407  0.00  0.00    +0.100 A 
ATOM     10  C   UNL     1      -4.214   4.099  -1.552  0.00  0.00    +0.079 C 
ATOM     11  C   UNL     1      -3.965   5.007  -0.364  0.00  0.00    +0.099 C 
ENDROOT
BRANCH   7  12
ATOM     12  C   UNL     1      -7.640  -0.660  -3.092  0.00  0.00    -0.024 A 
ATOM     13  C   UNL     1      -7.311   0.154  -4.184  0.00  0.00    +0.011 A 
ATOM     14  C   UNL     1      -7.418  -0.340  -5.464  0.00  0.00    +0.046 A 
ATOM     15  C   UNL     1      -7.861  -1.640  -5.676  0.00  0.00    +0.117 A 
ATOM     16  C   UNL     1      -8.194  -2.451  -4.597  0.00  0.00    +0.046 A 
ATOM     17  C   UNL     1      -8.086  -1.970  -3.312  0.00  0.00    +0.011 A 
BRANCH  15  18
ATOM     18  O   UNL     1      -7.969  -2.120  -6.941  0.00  0.00    -0.507 OA
ATOM     19  H   UNL     1      -8.833  -1.969  -7.347  0.00  0.00    +0.292 HD
ENDBRANCH  15  18
ENDBRANCH   7  12
BRANCH  11  20
ATOM     20  C   UNL     1      -2.494   4.967  -0.040  0.00  0.00    -0.035 A 
ATOM     21  C   UNL     1      -1.906   3.780   0.355  0.00  0.00    +0.008 A 
ATOM     22  C   UNL     1      -0.559   3.742   0.659  0.00  0.00    +0.046 A 
ATOM     23  C   UNL     1       0.206   4.894   0.557  0.00  0.00    +0.117 A 
ATOM     24  C   UNL     1      -0.385   6.083   0.155  0.00  0.00    +0.046 A 
ATOM     25  C   UNL     1      -1.733   6.117  -0.143  0.00  0.00    +0.008 A 
BRANCH  23  26
ATOM     26  O   UNL     1       1.532   4.859   0.850  0.00  0.00    -0.507 OA
ATOM     27  H   UNL     1       2.098   4.653   0.093  0.00  0.00    +0.292 HD
ENDBRANCH  23  26
ENDBRANCH  11  20
BRANCH   2  28
ATOM     28  N   UNL     1      -6.267   3.308   2.024  0.00  0.00    -0.344 N 
ATOM     29  H   UNL     1      -7.203   3.058   1.976  0.00  0.00    +0.144 HD
ATOM     30  H   UNL     1      -5.819   3.350   2.883  0.00  0.00    +0.144 HD
ENDBRANCH   2  28
BRANCH   1  31
ATOM     31  C   UNL     1      -4.586   5.436   2.056  0.00  0.00    +0.339 C 
ATOM     32  O   UNL     1      -5.266   5.197   3.038  0.00  0.00    -0.245 OA
BRANCH  31  33
ATOM     33  O   UNL     1      -3.685   6.442   2.087  0.00  0.00    -0.462 OA
BRANCH  33  35
ATOM     34  C   UNL     1      -2.520   8.274   3.147  0.00  0.00    +0.048 C 
ATOM     35  C   UNL     1      -3.583   7.185   3.303  0.00  0.00    +0.229 C 
ENDBRANCH  33  35
ENDBRANCH  31  33
ENDBRANCH   1  31
BRANCH  10  36
ATOM     36  C   UNL     1      -3.558   4.312  -2.771  0.00  0.00    +0.338 C 
ATOM     37  O   UNL     1      -3.770   3.572  -3.715  0.00  0.00    -0.245 OA
BRANCH  36  38
ATOM     38  O   UNL     1      -2.689   5.339  -2.900  0.00  0.00    -0.465 OA
ATOM     39  C   UNL     1      -2.056   5.497  -4.171  0.00  0.00    +0.280 C 
ENDBRANCH  36  38
ENDBRANCH  10  36
TORSDOF 10
