REMARK  Name = ZINC39682176
REMARK  7 active torsions:
REMARK  status: ('A' for Active; 'I' for Inactive)
REMARK    1  A    between atoms: C_1  and  C_2
REMARK    2  A    between atoms: C_4  and  C_7
REMARK    3  A    between atoms: C_7  and  N_8
REMARK    4  A    between atoms: C_9  and  C_11
REMARK    5  A    between atoms: C_22  and  C_24
REMARK    6  A    between atoms: C_27  and  O_31
REMARK    7  A    between atoms: O_31  and  C_32
REMARK                            x       y       z     vdW  Elec       q    Type
REMARK                         _______ _______ _______ _____ _____    ______ ____
ROOT
ATOM      1  C   UNL     1      -3.944  -4.323   3.716  0.00  0.00    +0.100 C 
ATOM      2  C   UNL     1      -4.361  -2.871   4.040  0.00  0.00    +0.121 C 
ATOM      3  N   UNL     1      -5.817  -2.830   3.769  0.00  0.00    -0.296 N 
ATOM      4  C   UNL     1      -6.322  -4.132   4.269  0.00  0.00    +0.115 C 
ATOM      5  C   UNL     1      -5.232  -5.148   3.871  0.00  0.00    -0.004 C 
ATOM      6  C   UNL     1      -5.061  -6.195   4.967  0.00  0.00    -0.010 C 
ATOM      7  C   UNL     1      -6.334  -7.041   5.063  0.00  0.00    -0.082 C 
ATOM      8  N   UNL     1      -6.589  -7.692   3.772  0.00  0.00    +0.379 N 
ATOM      9  C   UNL     1      -6.845  -6.678   2.742  0.00  0.00    -0.082 C 
ATOM     10  C   UNL     1      -5.594  -5.817   2.548  0.00  0.00    -0.010 C 
ATOM     11  C   UNL     1      -6.524  -1.835   3.198  0.00  0.00    +0.247 C 
ATOM     12  O   UNL     1      -5.948  -0.875   2.723  0.00  0.00    -0.270 OA
ATOM     13  H   UNL     1      -5.784  -8.241   3.509  0.00  0.00    -0.086 HD
ATOM     14  H   UNL     1      -7.393  -8.296   3.855  0.00  0.00    -0.086 HD
ENDROOT
BRANCH  11  15
ATOM     15  C   UNL     1      -7.998  -1.910   3.148  0.00  0.00    +0.040 A 
ATOM     16  C   UNL     1      -8.687  -2.738   4.039  0.00  0.00    +0.036 A 
ATOM     17  C   UNL     1     -10.062  -2.805   3.990  0.00  0.00    +0.085 A 
ATOM     18  C   UNL     1     -10.765  -2.052   3.056  0.00  0.00    +0.157 A 
ATOM     19  C   UNL     1     -10.082  -1.227   2.168  0.00  0.00    +0.085 A 
ATOM     20  C   UNL     1      -8.707  -1.149   2.215  0.00  0.00    +0.036 A 
ATOM     21 CL   UNL     1     -10.964  -0.288   1.004  0.00  0.00    -0.080 Cl
ATOM     22 CL   UNL     1     -10.920  -3.833   5.095  0.00  0.00    -0.080 Cl
BRANCH  18  23
ATOM     23  O   UNL     1     -12.120  -2.121   3.010  0.00  0.00    -0.492 OA
ATOM     24  C   UNL     1     -12.845  -1.195   3.821  0.00  0.00    +0.277 C 
ENDBRANCH  18  23
ENDBRANCH  11  15
BRANCH   1  26
ATOM     25  N   UNL     1      -2.590  -5.415   1.958  0.00  0.00    -0.309 N 
ATOM     26  C   UNL     1      -3.427  -4.417   2.303  0.00  0.00    +0.219 C 
ATOM     27  O   UNL     1      -3.765  -3.596   1.478  0.00  0.00    -0.275 OA
ATOM     28  H   UNL     1      -2.320  -6.073   2.618  0.00  0.00    +0.149 HD
BRANCH  25  29
ATOM     29  C   UNL     1      -2.087  -5.507   0.585  0.00  0.00    +0.160 C 
BRANCH  29  33
ATOM     30  C   UNL     1       2.359  -7.768   0.985  0.00  0.00    +0.073 C 
ATOM     31  C   UNL     1       0.888  -7.671   0.671  0.00  0.00    +0.076 A 
ATOM     32  N   UNL     1       0.101  -6.631   0.778  0.00  0.00    -0.248 NA
ATOM     33  C   UNL     1      -1.177  -6.702   0.462  0.00  0.00    +0.066 A 
ATOM     34  C   UNL     1      -1.635  -7.902   0.021  0.00  0.00    +0.071 A 
ATOM     35  S   UNL     1      -0.138  -8.872   0.089  0.00  0.00    -0.080 S 
ENDBRANCH  29  33
ENDBRANCH  25  29
ENDBRANCH   1  26
TORSDOF 5
