REMARK  Name = ZINC28739915
REMARK  8 active torsions:
REMARK  status: ('A' for Active; 'I' for Inactive)
REMARK    1  A    between atoms: C_1  and  C_2
REMARK    2  A    between atoms: C_4  and  C_28
REMARK    3  A    between atoms: C_6  and  N_8
REMARK    4  A    between atoms: C_12  and  C_13
REMARK    5  A    between atoms: C_16  and  O_19
REMARK    6  A    between atoms: O_19  and  C_20
REMARK    7  A    between atoms: C_23  and  C_24
REMARK    8  A    between atoms: C_23  and  C_26
REMARK                            x       y       z     vdW  Elec       q    Type
REMARK                         _______ _______ _______ _____ _____    ______ ____
ROOT
ATOM      1  N   UNL     1       3.521  -0.829  -0.670  0.00  0.00    -0.269 N 
ATOM      2  C   UNL     1       3.612  -2.082  -0.256  0.00  0.00    +0.270 A 
ATOM      3  O   UNL     1       2.653  -2.670   0.208  0.00  0.00    -0.266 OA
ATOM      4  C   UNL     1       4.928  -2.734  -0.386  0.00  0.00    +0.079 A 
ATOM      5  C   UNL     1       5.302  -3.996  -0.050  0.00  0.00    +0.028 C 
ATOM      6  S   UNL     1       5.900  -1.415  -1.100  0.00  0.00    -0.064 S 
ATOM      7  C   UNL     1       4.615  -0.178  -1.185  0.00  0.00    +0.116 A 
ATOM      8  C   UNL     1       4.702   1.132  -1.661  0.00  0.00    +0.159 C 
ENDROOT
BRANCH   1  14
ATOM      9  C   UNL     1      -0.909   0.181  -2.550  0.00  0.00    +0.044 C 
ATOM     10  C   UNL     1       0.131   0.351  -1.473  0.00  0.00    -0.048 A 
ATOM     11  C   UNL     1      -0.124   1.172  -0.390  0.00  0.00    +0.006 A 
ATOM     12  C   UNL     1       0.828   1.330   0.601  0.00  0.00    -0.048 A 
ATOM     13  C   UNL     1       2.037   0.669   0.511  0.00  0.00    +0.029 A 
ATOM     14  C   UNL     1       2.296  -0.156  -0.576  0.00  0.00    +0.051 A 
ATOM     15  C   UNL     1       1.338  -0.313  -1.569  0.00  0.00    +0.029 A 
ATOM     16  C   UNL     1       0.546   2.226   1.779  0.00  0.00    +0.044 C 
ENDBRANCH   1  14
BRANCH   5  17
ATOM     17  C   UNL     1       6.626  -4.498  -0.439  0.00  0.00    -0.024 A 
ATOM     18  C   UNL     1       7.429  -3.756  -1.314  0.00  0.00    +0.011 A 
ATOM     19  C   UNL     1       8.672  -4.229  -1.671  0.00  0.00    +0.046 A 
ATOM     20  C   UNL     1       9.125  -5.445  -1.173  0.00  0.00    +0.120 A 
ATOM     21  C   UNL     1       8.330  -6.188  -0.308  0.00  0.00    +0.046 A 
ATOM     22  C   UNL     1       7.088  -5.723   0.060  0.00  0.00    +0.011 A 
BRANCH  20  23
ATOM     23  O   UNL     1      10.349  -5.909  -1.533  0.00  0.00    -0.495 OA
ATOM     24  C   UNL     1      11.115  -5.096  -2.424  0.00  0.00    +0.277 C 
ENDBRANCH  20  23
ENDBRANCH   5  17
BRANCH   8  25
ATOM     25  C   UNL     1       5.972   1.673  -2.042  0.00  0.00    +0.113 C 
ATOM     26  N   UNL     1       6.979   2.102  -2.345  0.00  0.00    -0.190 NA
ENDBRANCH   8  25
BRANCH   8  27
ATOM     27  C   UNL     1       3.521   1.935  -1.768  0.00  0.00    +0.113 C 
ATOM     28  N   UNL     1       2.584   2.571  -1.853  0.00  0.00    -0.190 NA
ENDBRANCH   8  27
TORSDOF 5
