REMARK  Name = ZINC65181465
REMARK  7 active torsions:
REMARK  status: ('A' for Active; 'I' for Inactive)
REMARK    1  A    between atoms: C_1  and  C_2
REMARK    2  A    between atoms: C_5  and  C_7
REMARK    3  A    between atoms: N_9  and  C_10
REMARK    4  A    between atoms: N_9  and  C_11
REMARK    5  A    between atoms: C_11  and  C_12
REMARK    6  A    between atoms: C_12  and  C_13
REMARK    7  A    between atoms: C_16  and  C_19
REMARK                            x       y       z     vdW  Elec       q    Type
REMARK                         _______ _______ _______ _____ _____    ______ ____
ROOT
ATOM      1  C   UNL     1       3.329  -6.992  -2.381  0.00  0.00    +0.139 C 
ATOM      2  N   UNL     1       3.822  -7.829  -1.543  0.00  0.00    -0.072 NA
ATOM      3  O   UNL     1       4.243  -9.012  -2.195  0.00  0.00    -0.367 OA
ATOM      4  C   UNL     1       3.953  -8.830  -3.590  0.00  0.00    +0.318 C 
ATOM      5  N   UNL     1       3.348  -7.490  -3.663  0.00  0.00    -0.291 N 
ATOM      6  H   UNL     1       3.027  -7.044  -4.462  0.00  0.00    +0.151 HD
ENDROOT
BRANCH   4   7
ATOM      7  C   UNL     1       2.961  -9.890  -4.073  0.00  0.00    +0.165 C 
ATOM      8  C   UNL     1       2.678  -9.706  -5.547  0.00  0.00    +0.012 C 
ATOM      9  C   UNL     1       3.077 -10.848  -6.151  0.00  0.00    -0.004 A 
ATOM     10  C   UNL     1       3.069 -11.289  -7.551  0.00  0.00    +0.010 A 
ATOM     11  C   UNL     1       3.546 -12.517  -7.855  0.00  0.00    +0.001 A 
ATOM     12  C   UNL     1       4.048 -13.378  -6.869  0.00  0.00    +0.002 A 
ATOM     13  C   UNL     1       4.088 -13.044  -5.562  0.00  0.00    +0.026 A 
ATOM     14  C   UNL     1       3.612 -11.776  -5.128  0.00  0.00    +0.043 A 
ATOM     15  N   UNL     1       3.545 -11.229  -3.938  0.00  0.00    -0.373 N 
ATOM     16  H   UNL     1       3.834 -11.639  -3.107  0.00  0.00    +0.160 HD
ENDBRANCH   4   7
BRANCH   1  17
ATOM     17  C   UNL     1       2.789  -5.636  -2.007  0.00  0.00    +0.094 C 
BRANCH  17  18
ATOM     18  C   UNL     1       2.933  -5.428  -0.498  0.00  0.00    +0.115 C 
BRANCH  18  21
ATOM     19  C   UNL     1       1.110  -3.969   0.198  0.00  0.00    +0.253 C 
ATOM     20  O   UNL     1       0.380  -4.942   0.226  0.00  0.00    -0.269 OA
ATOM     21  N   UNL     1       2.409  -4.109  -0.134  0.00  0.00    -0.300 N 
ATOM     22  C   UNL     1       3.296  -2.943  -0.132  0.00  0.00    +0.132 C 
BRANCH  19  27
ATOM     23  C   UNL     1       0.160   1.373   1.383  0.00  0.00    +0.051 C 
ATOM     24  C   UNL     1       0.143  -0.104   1.088  0.00  0.00    -0.013 A 
ATOM     25  C   UNL     1      -0.930  -0.932   1.043  0.00  0.00    +0.011 A 
ATOM     26  C   UNL     1      -0.737  -2.261   0.753  0.00  0.00    +0.021 A 
ATOM     27  C   UNL     1       0.577  -2.643   0.526  0.00  0.00    +0.074 A 
ATOM     28  S   UNL     1       1.447  -1.101   0.731  0.00  0.00    -0.089 S 
ENDBRANCH  19  27
ENDBRANCH  18  21
ENDBRANCH  17  18
ENDBRANCH   1  17
TORSDOF 5
