REMARK  Name = ZINC33040106
REMARK  10 active torsions:
REMARK  status: ('A' for Active; 'I' for Inactive)
REMARK    1  A    between atoms: C_1  and  C_2
REMARK    2  A    between atoms: C_7  and  C_8
REMARK    3  A    between atoms: C_8  and  C_10
REMARK    4  A    between atoms: C_8  and  N_11
REMARK    5  A    between atoms: N_11  and  C_12
REMARK    6  A    between atoms: C_12  and  C_13
REMARK    7  A    between atoms: C_20  and  O_27
REMARK    8  A    between atoms: C_21  and  O_25
REMARK    9  A    between atoms: O_25  and  C_26
REMARK   10  A    between atoms: O_27  and  C_28
REMARK                            x       y       z     vdW  Elec       q    Type
REMARK                         _______ _______ _______ _____ _____    ______ ____
ROOT
ATOM      1  C   UNL     1       1.099   3.290   0.009  0.00  0.00    +0.093 A 
ATOM      2  N   UNL     1       1.133   1.932   0.002  0.00  0.00    -0.312 N 
ATOM      3  H   UNL     1       2.099   1.406  -0.010  0.00  0.00    +0.170 HD
ATOM      4  C   UNL     1      -0.014   1.213   0.009  0.00  0.00    +0.259 A 
ATOM      5  O   UNL     1       0.002  -0.004   0.002  0.00  0.00    -0.267 OA
ATOM      6  C   UNL     1      -1.280   1.959   0.019  0.00  0.00    +0.068 A 
ATOM      7  C   UNL     1      -2.515   1.310   0.033  0.00  0.00    +0.064 A 
ATOM      8  C   UNL     1      -3.675   2.057   0.046  0.00  0.00    +0.162 A 
ATOM      9  C   UNL     1      -3.618   3.454   0.053  0.00  0.00    +0.164 A 
ATOM     10  C   UNL     1      -2.401   4.109   0.045  0.00  0.00    +0.078 A 
ATOM     11  C   UNL     1      -1.218   3.371   0.031  0.00  0.00    +0.082 A 
ATOM     12  N   UNL     1      -0.003   3.976   0.022  0.00  0.00    -0.236 NA
ENDROOT
BRANCH   9  13
ATOM     13  O   UNL     1      -4.769   4.175   0.067  0.00  0.00    -0.491 OA
ATOM     14  C   UNL     1      -4.644   5.598   0.074  0.00  0.00    +0.277 C 
ENDBRANCH   9  13
BRANCH   8  15
ATOM     15  O   UNL     1      -4.882   1.430   0.054  0.00  0.00    -0.491 OA
ATOM     16  C   UNL     1      -4.871   0.001   0.047  0.00  0.00    +0.277 C 
ENDBRANCH   8  15
BRANCH   1  17
ATOM     17  C   UNL     1       2.407   4.039  -0.000  0.00  0.00    -0.006 C 
BRANCH  17  18
ATOM     18  N   UNL     1       2.144   5.484   0.010  0.00  0.00    +0.388 N 
ATOM     19  H   UNL     1       1.570   5.732   0.915  0.00  0.00    -0.084 HD
ATOM     20  H   UNL     1       1.553   5.741  -0.881  0.00  0.00    -0.084 HD
BRANCH  18  21
ATOM     21  C   UNL     1       3.399   6.247   0.001  0.00  0.00    -0.043 C 
ATOM     22  C   UNL     1       3.886   6.412  -1.440  0.00  0.00    -0.009 C 
BRANCH  21  29
ATOM     23  C   UNL     1       5.629   7.777   1.018  0.00  0.00    +0.044 C 
ATOM     24  C   UNL     1       4.232   8.337   1.097  0.00  0.00    -0.049 A 
ATOM     25  C   UNL     1       4.018   9.585   1.653  0.00  0.00    +0.003 A 
ATOM     26  C   UNL     1       2.737  10.097   1.730  0.00  0.00    +0.000 A 
ATOM     27  C   UNL     1       1.669   9.362   1.248  0.00  0.00    +0.000 A 
ATOM     28  C   UNL     1       1.883   8.117   0.689  0.00  0.00    +0.002 A 
ATOM     29  C   UNL     1       3.166   7.605   0.611  0.00  0.00    -0.059 A 
ENDBRANCH  21  29
ENDBRANCH  18  21
ENDBRANCH  17  18
ENDBRANCH   1  17
TORSDOF 6
