REMARK  Name = ZINC20208147
REMARK  9 active torsions:
REMARK  status: ('A' for Active; 'I' for Inactive)
REMARK    1  A    between atoms: C_1  and  C_2
REMARK    2  A    between atoms: C_4  and  C_17
REMARK    3  A    between atoms: C_5  and  C_16
REMARK    4  A    between atoms: N_6  and  C_7
REMARK    5  A    between atoms: C_10  and  C_13
REMARK    6  A    between atoms: C_13  and  C_14
REMARK    7  A    between atoms: C_13  and  C_15
REMARK    8  A    between atoms: C_27  and  S_29
REMARK    9  A    between atoms: S_29  and  C_32
REMARK                            x       y       z     vdW  Elec       q    Type
REMARK                         _______ _______ _______ _____ _____    ______ ____
ROOT
ATOM      1  C   UNL     1       0.014  -3.317  -1.428  0.00  0.00    +0.026 C 
ATOM      2  C   UNL     1       0.525  -3.284  -2.709  0.00  0.00    +0.079 C 
ATOM      3  C   UNL     1       1.180  -2.065  -3.261  0.00  0.00    +0.132 C 
ATOM      4  N   UNL     1       1.872  -1.230  -2.532  0.00  0.00    -0.385 N 
ATOM      5  N   UNL     1       0.980  -1.901  -4.649  0.00  0.00    -0.152 N 
ATOM      6  C   UNL     1       0.685  -3.028  -5.386  0.00  0.00    +0.182 C 
ATOM      7  N   UNL     1       0.471  -4.240  -4.940  0.00  0.00    -0.152 NA
ATOM      8  C   UNL     1       0.456  -4.460  -3.608  0.00  0.00    +0.273 C 
ATOM      9  O   UNL     1       0.385  -5.592  -3.156  0.00  0.00    -0.268 OA
ATOM     10  S   UNL     1       0.657  -2.392  -7.041  0.00  0.00    -0.015 S 
ATOM     11  C   UNL     1       0.935  -0.673  -6.636  0.00  0.00    +0.235 C 
ATOM     12  N   UNL     1       1.065  -0.712  -5.340  0.00  0.00    -0.145 NA
ATOM     13  H   UNL     1       2.051  -1.433  -1.600  0.00  0.00    +0.157 HD
ATOM     14  H   UNL     1       2.208  -0.408  -2.922  0.00  0.00    +0.157 HD
ENDROOT
BRANCH   1  18
ATOM     15  C   UNL     1      -0.336   1.556  -0.142  0.00  0.00    +0.064 C 
ATOM     16  C   UNL     1      -0.223   0.054  -0.103  0.00  0.00    +0.022 A 
ATOM     17  C   UNL     1      -0.175  -0.750  -1.178  0.00  0.00    +0.031 A 
ATOM     18  C   UNL     1      -0.067  -2.123  -0.665  0.00  0.00    -0.003 A 
ATOM     19  C   UNL     1      -0.060  -2.013   0.716  0.00  0.00    +0.028 A 
ATOM     20  N   UNL     1      -0.148  -0.706   1.031  0.00  0.00    -0.317 N 
ATOM     21  C   UNL     1       0.036  -3.155   1.694  0.00  0.00    +0.064 C 
BRANCH  20  22
ATOM     22  C   UNL     1      -0.165  -0.197   2.337  0.00  0.00    +0.047 A 
ATOM     23  C   UNL     1       0.952  -0.330   3.150  0.00  0.00    +0.026 A 
ATOM     24  C   UNL     1       0.933   0.172   4.436  0.00  0.00    +0.006 A 
ATOM     25  C   UNL     1      -0.199   0.806   4.915  0.00  0.00    -0.045 A 
ATOM     26  C   UNL     1      -1.314   0.940   4.108  0.00  0.00    +0.006 A 
ATOM     27  C   UNL     1      -1.298   0.445   2.819  0.00  0.00    +0.026 A 
BRANCH  25  28
ATOM     28  C   UNL     1      -0.217   1.353   6.319  0.00  0.00    +0.013 C 
ATOM     29  C   UNL     1      -0.464   2.862   6.277  0.00  0.00    +0.012 C 
ATOM     30  C   UNL     1      -1.335   0.676   7.115  0.00  0.00    +0.012 C 
ENDBRANCH  25  28
ENDBRANCH  20  22
ENDBRANCH   1  18
BRANCH  11  31
ATOM     31  S   UNL     1       1.014   0.719  -7.713  0.00  0.00    +0.019 S 
ATOM     32  O   UNL     1       0.138   0.397  -8.785  0.00  0.00    -0.168 OA
ATOM     33  O   UNL     1       0.755   1.839  -6.878  0.00  0.00    -0.168 OA
ATOM     34  C   UNL     1       2.730   0.759  -8.298  0.00  0.00    +0.202 C 
ENDBRANCH  11  31
TORSDOF 4
