REMARK  Name = ZINC01840838
REMARK  12 active torsions:
REMARK  status: ('A' for Active; 'I' for Inactive)
REMARK    1  A    between atoms: C_1  and  C_2
REMARK    2  A    between atoms: C_2  and  C_4
REMARK    3  A    between atoms: C_4  and  O_43
REMARK    4  A    between atoms: C_9  and  C_42
REMARK    5  A    between atoms: C_20  and  N_25
REMARK    6  A    between atoms: C_23  and  C_24
REMARK    7  A    between atoms: N_25  and  O_26
REMARK    8  A    between atoms: O_26  and  C_27
REMARK    9  A    between atoms: C_27  and  C_28
REMARK   10  A    between atoms: N_30  and  CA_31
REMARK   11  A    between atoms: CA_31  and  C_33
REMARK   12  A    between atoms: CA_31  and  C_39
REMARK                            x       y       z     vdW  Elec       q    Type
REMARK                         _______ _______ _______ _____ _____    ______ ____
ROOT
ATOM      1  C   UNL     1      -1.313  -0.917   0.216  0.00  0.00    +0.129 C 
ATOM      2  C   UNL     1      -1.726  -1.504   1.580  0.00  0.00    +0.043 C 
ATOM      3  C   UNL     1      -1.562  -3.035   1.465  0.00  0.00    +0.008 C 
ATOM      4  C   UNL     1      -1.732  -3.334  -0.046  0.00  0.00    +0.002 C 
ATOM      5  C   UNL     1      -1.107  -2.108  -0.719  0.00  0.00    +0.007 C 
ATOM      6  C   UNL     1      -1.549  -1.882  -2.143  0.00  0.00    +0.010 C 
ATOM      7  C   UNL     1      -3.060  -2.021  -2.314  0.00  0.00    +0.005 C 
ATOM      8  C   UNL     1      -3.466  -3.426  -1.855  0.00  0.00    +0.003 C 
ATOM      9  C   UNL     1      -3.211  -3.536  -0.354  0.00  0.00    -0.003 C 
ATOM     10  C   UNL     1      -4.088  -2.568   0.432  0.00  0.00    +0.008 C 
ATOM     11  C   UNL     1      -5.570  -2.880   0.175  0.00  0.00    +0.031 C 
ATOM     12  C   UNL     1      -5.795  -2.814  -1.325  0.00  0.00    -0.061 C 
ATOM     13  C   UNL     1      -6.724  -2.001  -1.790  0.00  0.00    +0.027 C 
ATOM     14  C   UNL     1      -6.970  -1.891  -3.237  0.00  0.00    +0.057 C 
ATOM     15  C   UNL     1      -6.250  -2.610  -4.088  0.00  0.00    +0.001 C 
ATOM     16  C   UNL     1      -5.176  -3.553  -3.679  0.00  0.00    +0.040 C 
ATOM     17  C   UNL     1      -4.934  -3.674  -2.196  0.00  0.00    -0.004 C 
ATOM     18  C   UNL     1      -5.247  -5.130  -1.844  0.00  0.00    +0.016 C 
ATOM     19  C   UNL     1       0.420  -2.363  -0.778  0.00  0.00    +0.015 C 
ENDROOT
BRANCH   1  21
ATOM     20  C   UNL     1       0.344   0.938  -0.594  0.00  0.00    +0.089 C 
ATOM     21  C   UNL     1      -0.010  -0.163   0.372  0.00  0.00    +0.162 C 
ATOM     22  O   UNL     1       0.746  -0.444   1.270  0.00  0.00    -0.295 OA
ENDBRANCH   1  21
BRANCH  14  23
ATOM     23  N   UNL     1      -7.960  -1.030  -3.714  0.00  0.00    -0.266 N 
ATOM     24  H   UNL     1      -8.486  -0.503  -3.091  0.00  0.00    +0.194 HD
BRANCH  23  25
ATOM     25  O   UNL     1      -8.197  -0.924  -5.106  0.00  0.00    -0.265 OA
BRANCH  25  26
ATOM     26  C   UNL     1      -9.236  -0.007  -5.451  0.00  0.00    +0.288 C 
BRANCH  26  27
ATOM     27  C   UNL     1      -9.401   0.025  -6.949  0.00  0.00    +0.242 C 
ATOM     28  O   UNL     1      -8.698  -0.669  -7.651  0.00  0.00    -0.273 OA
ATOM     29  N   UNL     1     -10.331   0.825  -7.507  0.00  0.00    -0.297 N 
ATOM     30  H   UNL     1     -10.893   1.381  -6.945  0.00  0.00    +0.150 HD
BRANCH  29  31
ATOM     31  CA  UNL     1     -10.491   0.856  -8.963  0.00  0.00    +0.217 C 
BRANCH  31  32
ATOM     32  C   UNL     1     -11.893   1.290  -9.305  0.00  0.00    -0.016 A 
ATOM     33  C   UNL     1     -12.499   2.301  -8.582  0.00  0.00    +0.006 A 
ATOM     34  C   UNL     1     -13.786   2.699  -8.895  0.00  0.00    +0.000 A 
ATOM     35  C   UNL     1     -14.465   2.087  -9.932  0.00  0.00    +0.000 A 
ATOM     36  C   UNL     1     -13.858   1.078 -10.656  0.00  0.00    +0.000 A 
ATOM     37  C   UNL     1     -12.571   0.682 -10.345  0.00  0.00    +0.006 A 
ENDBRANCH  31  32
BRANCH  31  38
ATOM     38  C   UNL     1      -9.505   1.829  -9.557  0.00  0.00    +0.380 C 
ATOM     39  O   UNL     1      -9.069   1.647 -10.681  0.00  0.00    -0.244 OA
ATOM     40  OXT UNL     1      -9.143   2.800  -8.913  0.00  0.00    -0.244 OA
ENDBRANCH  31  38
ENDBRANCH  29  31
ENDBRANCH  26  27
ENDBRANCH  25  26
ENDBRANCH  23  25
ENDBRANCH  14  23
BRANCH   1  41
ATOM     41  O   UNL     1      -2.314  -0.029  -0.277  0.00  0.00    -0.381 OA
ATOM     42  H   UNL     1      -2.479   0.734   0.295  0.00  0.00    +0.211 HD
ENDBRANCH   1  41
TORSDOF 9
