REMARK  Name = ZINC66331263
REMARK  8 active torsions:
REMARK  status: ('A' for Active; 'I' for Inactive)
REMARK    1  A    between atoms: C_1  and  C_2
REMARK    2  A    between atoms: C_2  and  C_4
REMARK    3  A    between atoms: C_2  and  N_18
REMARK    4  A    between atoms: C_4  and  C_5
REMARK    5  A    between atoms: N_7  and  C_8
REMARK    6  A    between atoms: C_11  and  O_15
REMARK    7  A    between atoms: O_15  and  C_16
REMARK    8  A    between atoms: C_19  and  C_21
REMARK                            x       y       z     vdW  Elec       q    Type
REMARK                         _______ _______ _______ _____ _____    ______ ____
ROOT
ATOM      1  C   UNL     1       0.633  -2.000  -1.327  0.00  0.00    +0.219 C 
ATOM      2  O   UNL     1       0.063  -2.617  -0.451  0.00  0.00    -0.275 OA
ATOM      3  N   UNL     1       1.196  -2.660  -2.358  0.00  0.00    -0.285 N 
ATOM      4  H   UNL     1       1.593  -2.165  -3.092  0.00  0.00    +0.155 HD
ENDROOT
BRANCH   3   5
ATOM      5  C   UNL     1       1.207  -4.061  -2.371  0.00  0.00    +0.039 A 
ATOM      6  C   UNL     1       2.293  -4.741  -2.907  0.00  0.00    +0.065 A 
ATOM      7  C   UNL     1       2.304  -6.124  -2.919  0.00  0.00    +0.169 A 
ATOM      8  C   UNL     1       1.230  -6.832  -2.397  0.00  0.00    +0.190 A 
ATOM      9  C   UNL     1       0.145  -6.152  -1.861  0.00  0.00    +0.169 A 
ATOM     10  C   UNL     1       0.136  -4.769  -1.844  0.00  0.00    +0.065 A 
ATOM     11  F   UNL     1      -0.900  -6.840  -1.353  0.00  0.00    -0.201 F 
ATOM     12  F   UNL     1       3.360  -6.787  -3.440  0.00  0.00    -0.201 F 
BRANCH   8  13
ATOM     13  O   UNL     1       1.241  -8.193  -2.410  0.00  0.00    -0.490 OA
ATOM     14  C   UNL     1       1.806  -8.848  -1.273  0.00  0.00    +0.277 C 
ENDBRANCH   8  13
ENDBRANCH   3   5
BRANCH   1  15
ATOM     15  C   UNL     1       0.713  -0.497  -1.260  0.00  0.00    +0.118 C 
BRANCH  15  17
ATOM     16  C   UNL     1      -0.029   1.526   0.005  0.00  0.00    +0.028 C 
ATOM     17  C   UNL     1       0.000  -0.004   0.000  0.00  0.00    +0.079 C 
BRANCH  17  18
ATOM     18  N   UNL     1       0.717  -0.482   1.185  0.00  0.00    -0.312 N 
ATOM     19  C   UNL     1       0.064  -0.626   2.355  0.00  0.00    +0.216 C 
ATOM     20  O   UNL     1      -1.117  -0.360   2.428  0.00  0.00    -0.276 OA
ATOM     21  H   UNL     1       1.661  -0.695   1.127  0.00  0.00    +0.149 HD
BRANCH  19  22
ATOM     22  C   UNL     1       0.801  -1.118   3.574  0.00  0.00    +0.075 C 
ATOM     23  C   UNL     1       1.374  -2.510   3.296  0.00  0.00    +0.013 C 
ATOM     24  C   UNL     1       2.122  -3.009   4.534  0.00  0.00    +0.001 C 
ATOM     25  C   UNL     1       1.157  -3.082   5.719  0.00  0.00    +0.000 C 
ATOM     26  C   UNL     1       0.585  -1.691   5.996  0.00  0.00    +0.001 C 
ATOM     27  C   UNL     1      -0.164  -1.191   4.759  0.00  0.00    +0.013 C 
ENDBRANCH  19  22
ENDBRANCH  17  18
ENDBRANCH  15  17
ENDBRANCH   1  15
TORSDOF 6
