REMARK  Name = ZINC64986808
REMARK  5 active torsions:
REMARK  status: ('A' for Active; 'I' for Inactive)
REMARK    1  A    between atoms: C_1  and  C_2
REMARK    2  A    between atoms: C_13  and  S_25
REMARK    3  A    between atoms: C_14  and  O_18
REMARK    4  A    between atoms: O_18  and  C_19
REMARK    5  A    between atoms: S_25  and  N_28
REMARK                            x       y       z     vdW  Elec       q    Type
REMARK                         _______ _______ _______ _____ _____    ______ ____
ROOT
ATOM      1  C   UNL     1      -2.411  -0.247   0.465  0.00  0.00    +0.044 C 
ATOM      2  C   UNL     1      -1.900  -1.665   0.446  0.00  0.00    -0.048 A 
ATOM      3  C   UNL     1      -1.791  -2.344  -0.753  0.00  0.00    +0.007 A 
ATOM      4  C   UNL     1      -1.310  -3.639  -0.773  0.00  0.00    +0.048 A 
ATOM      5  C   UNL     1      -0.942  -4.266   0.410  0.00  0.00    +0.150 A 
ATOM      6  C   UNL     1      -1.070  -3.593   1.618  0.00  0.00    +0.077 A 
ATOM      7  C   UNL     1      -1.535  -2.282   1.627  0.00  0.00    +0.030 A 
ATOM      8  N   UNL     1      -0.773  -4.210   2.833  0.00  0.00    -0.278 N 
ATOM      9  C   UNL     1       0.240  -5.032   3.067  0.00  0.00    +0.252 C 
ATOM     10  O   UNL     1       0.362  -5.467   4.196  0.00  0.00    -0.270 OA
ATOM     11  C   UNL     1       1.226  -5.457   2.067  0.00  0.00    +0.081 A 
ATOM     12  C   UNL     1       2.570  -5.599   2.434  0.00  0.00    +0.049 A 
ATOM     13  C   UNL     1       3.495  -6.028   1.511  0.00  0.00    +0.148 A 
ATOM     14  C   UNL     1       3.100  -6.326   0.210  0.00  0.00    +0.158 A 
ATOM     15  C   UNL     1       1.774  -6.177  -0.168  0.00  0.00    +0.095 A 
ATOM     16  C   UNL     1       0.837  -5.729   0.749  0.00  0.00    +0.144 A 
ATOM     17  O   UNL     1      -0.442  -5.526   0.357  0.00  0.00    -0.453 OA
ATOM     18  H   UNL     1      -1.365  -4.020   3.578  0.00  0.00    +0.155 HD
ENDROOT
BRANCH  13  19
ATOM     19  S   UNL     1       5.185  -6.200   1.977  0.00  0.00    +0.064 S 
ATOM     20  O   UNL     1       5.951  -5.540   0.978  0.00  0.00    -0.153 OA
ATOM     21  O   UNL     1       5.265  -5.853   3.352  0.00  0.00    -0.153 OA
BRANCH  19  22
ATOM     22  N   UNL     1       5.560  -7.810   1.873  0.00  0.00    -0.176 NA
ATOM     23  C   UNL     1       5.362  -8.644   3.038  0.00  0.00    +0.109 C 
ATOM     24  C   UNL     1       6.645  -8.641   3.904  0.00  0.00    +0.017 C 
ATOM     25  C   UNL     1       7.714  -9.400   3.237  0.00  0.00    +0.001 C 
ATOM     26  C   UNL     1       8.159  -8.816   1.899  0.00  0.00    +0.001 C 
ATOM     27  C   UNL     1       7.248  -9.317   0.806  0.00  0.00    +0.017 C 
ATOM     28  C   UNL     1       6.077  -8.335   0.594  0.00  0.00    +0.109 C 
ENDBRANCH  19  22
ENDBRANCH  13  19
BRANCH  14  29
ATOM     29  O   UNL     1       4.015  -6.763  -0.691  0.00  0.00    -0.452 OA
BRANCH  29  30
ATOM     30  C   UNL     1       3.600  -6.982  -1.967  0.00  0.00    +0.147 A 
ATOM     31  C   UNL     1       3.654  -5.962  -2.912  0.00  0.00    +0.049 A 
ATOM     32  C   UNL     1       3.220  -6.233  -4.199  0.00  0.00    +0.023 A 
ATOM     33  C   UNL     1       2.751  -7.498  -4.501  0.00  0.00    +0.111 A 
ATOM     34  N   UNL     1       2.713  -8.443  -3.582  0.00  0.00    -0.260 NA
ATOM     35  C   UNL     1       3.122  -8.228  -2.347  0.00  0.00    +0.156 A 
ENDBRANCH  29  30
ENDBRANCH  14  29
TORSDOF 4
