REMARK  Name = ZINC08394740
REMARK  8 active torsions:
REMARK  status: ('A' for Active; 'I' for Inactive)
REMARK    1  A    between atoms: C_1  and  C_2
REMARK    2  A    between atoms: C_10  and  C_11
REMARK    3  A    between atoms: N_13  and  C_14
REMARK    4  A    between atoms: C_17  and  S_20
REMARK    5  A    between atoms: S_20  and  N_23
REMARK    6  A    between atoms: N_23  and  C_24
REMARK    7  A    between atoms: C_24  and  C_25
REMARK    8  A    between atoms: C_24  and  C_26
REMARK                            x       y       z     vdW  Elec       q    Type
REMARK                         _______ _______ _______ _____ _____    ______ ____
ROOT
ATOM      1  C   UNL     1       2.198  -2.733  -0.704  0.00  0.00    +0.284 C 
ATOM      2  O   UNL     1       3.097  -2.111  -1.237  0.00  0.00    -0.266 OA
ATOM      3  N   UNL     1       1.238  -2.079  -0.021  0.00  0.00    -0.279 N 
ATOM      4  H   UNL     1       0.559  -2.577   0.459  0.00  0.00    +0.155 HD
ENDROOT
BRANCH   1  14
ATOM      5  C   UNL     1       4.277  -4.477  -2.223  0.00  0.00    +0.048 C 
ATOM      6  C   UNL     1       3.067  -4.961  -1.467  0.00  0.00    +0.008 A 
ATOM      7  C   UNL     1       2.633  -6.347  -1.297  0.00  0.00    +0.025 A 
ATOM      8  C   UNL     1       3.128  -7.582  -1.725  0.00  0.00    +0.032 A 
ATOM      9  C   UNL     1       2.465  -8.730  -1.391  0.00  0.00    +0.042 A 
ATOM     10  C   UNL     1       1.303  -8.675  -0.630  0.00  0.00    +0.023 A 
ATOM     11  C   UNL     1       0.800  -7.467  -0.199  0.00  0.00    +0.048 A 
ATOM     12  C   UNL     1       1.457  -6.287  -0.526  0.00  0.00    +0.136 A 
ATOM     13  O   UNL     1       1.213  -4.990  -0.256  0.00  0.00    -0.450 OA
ATOM     14  C   UNL     1       2.159  -4.199  -0.804  0.00  0.00    +0.194 A 
ATOM     15 CL   UNL     1       3.077 -10.265  -1.922  0.00  0.00    -0.084 Cl
ENDBRANCH   1  14
BRANCH   3  16
ATOM     16  C   UNL     1       1.220  -0.680  -0.007  0.00  0.00    +0.034 A 
ATOM     17  C   UNL     1       0.009   0.000   0.006  0.00  0.00    +0.025 A 
ATOM     18  C   UNL     1      -0.005   1.381   0.020  0.00  0.00    +0.030 A 
ATOM     19  C   UNL     1       1.185   2.086   0.022  0.00  0.00    +0.105 A 
ATOM     20  C   UNL     1       2.392   1.412   0.009  0.00  0.00    +0.030 A 
ATOM     21  C   UNL     1       2.413   0.031  -0.005  0.00  0.00    +0.025 A 
BRANCH  19  22
ATOM     22  S   UNL     1       1.162   3.848   0.039  0.00  0.00    +0.059 S 
ATOM     23  O   UNL     1       2.400   4.275  -0.513  0.00  0.00    -0.153 OA
ATOM     24  O   UNL     1      -0.091   4.243  -0.502  0.00  0.00    -0.153 OA
BRANCH  22  25
ATOM     25  N   UNL     1       1.163   4.322   1.626  0.00  0.00    -0.187 NA
ATOM     26  H   UNL     1       0.397   4.791   1.992  0.00  0.00    +0.148 HD
BRANCH  25  27
ATOM     27  C   UNL     1       2.320   4.032   2.476  0.00  0.00    +0.070 C 
ATOM     28  C   UNL     1       2.524   5.180   3.468  0.00  0.00    +0.025 C 
ATOM     29  C   UNL     1       2.076   2.732   3.245  0.00  0.00    +0.025 C 
ENDBRANCH  25  27
ENDBRANCH  22  25
ENDBRANCH  19  22
ENDBRANCH   3  16
TORSDOF 5
