REMARK  Name = ZINC63383801
REMARK  11 active torsions:
REMARK  status: ('A' for Active; 'I' for Inactive)
REMARK    1  A    between atoms: C_1  and  C_2
REMARK    2  A    between atoms: C_2  and  C_3
REMARK    3  A    between atoms: C_2  and  C_4
REMARK    4  A    between atoms: C_4  and  C_5
REMARK    5  A    between atoms: C_5  and  N_6
REMARK    6  A    between atoms: C_7  and  C_9
REMARK    7  A    between atoms: C_9  and  C_11
REMARK    8  A    between atoms: C_9  and  N_14
REMARK    9  A    between atoms: C_11  and  C_12
REMARK   10  A    between atoms: C_11  and  C_13
REMARK   11  A    between atoms: C_15  and  C_17
REMARK                            x       y       z     vdW  Elec       q    Type
REMARK                         _______ _______ _______ _____ _____    ______ ____
ROOT
ATOM      1  C   UNL     1       8.570  -0.360  -4.834  0.00  0.00    +0.167 C 
ATOM      2  C   UNL     1       9.229  -1.475  -3.999  0.00  0.00    +0.065 C 
ATOM      3  C   UNL     1       9.934  -0.804  -2.846  0.00  0.00    -0.034 C 
ATOM      4  C   UNL     1       9.873  -1.046  -1.540  0.00  0.00    -0.001 A 
ATOM      5  C   UNL     1       9.186  -2.096  -0.771  0.00  0.00    +0.010 A 
ATOM      6  C   UNL     1       9.324  -2.036   0.580  0.00  0.00    +0.001 A 
ATOM      7  C   UNL     1      10.065  -1.048   1.235  0.00  0.00    +0.002 A 
ATOM      8  C   UNL     1      10.734  -0.048   0.607  0.00  0.00    +0.026 A 
ATOM      9  C   UNL     1      10.671  -0.010  -0.817  0.00  0.00    +0.043 A 
ATOM     10  N   UNL     1      11.224   0.808  -1.662  0.00  0.00    -0.375 N 
ATOM     11  C   UNL     1      10.893   0.365  -3.017  0.00  0.00    +0.131 C 
ATOM     12  C   UNL     1      10.158   1.444  -3.810  0.00  0.00    +0.134 C 
ATOM     13  N   UNL     1       8.823   0.922  -4.164  0.00  0.00    -0.276 N 
ATOM     14  C   UNL     1       7.894   1.807  -3.753  0.00  0.00    +0.248 C 
ATOM     15  O   UNL     1       6.706   1.732  -3.996  0.00  0.00    -0.270 OA
ATOM     16  C   UNL     1       8.527   2.872  -2.971  0.00  0.00    +0.042 A 
ATOM     17  C   UNL     1       9.932   2.671  -2.989  0.00  0.00    -0.013 A 
ATOM     18  C   UNL     1      10.802   3.514  -2.336  0.00  0.00    +0.006 A 
ATOM     19  C   UNL     1      10.246   4.592  -1.653  0.00  0.00    +0.000 A 
ATOM     20  C   UNL     1       8.883   4.813  -1.630  0.00  0.00    +0.001 A 
ATOM     21  C   UNL     1       7.970   3.956  -2.288  0.00  0.00    +0.013 A 
ATOM     22  H   UNL     1      11.764   1.581  -1.433  0.00  0.00    +0.160 HD
ENDROOT
BRANCH   1  24
ATOM     23  N   UNL     1       6.315  -0.490  -3.826  0.00  0.00    -0.302 N 
ATOM     24  C   UNL     1       7.086  -0.602  -4.926  0.00  0.00    +0.235 C 
ATOM     25  O   UNL     1       6.584  -0.898  -5.990  0.00  0.00    -0.274 OA
ATOM     26  H   UNL     1       6.716  -0.253  -2.975  0.00  0.00    +0.150 HD
BRANCH  23  27
ATOM     27  C   UNL     1       4.872  -0.726  -3.915  0.00  0.00    +0.161 C 
BRANCH  27  29
ATOM     28  N   UNL     1       2.860   0.306  -2.913  0.00  0.00    -0.314 N 
ATOM     29  C   UNL     1       4.172   0.019  -2.807  0.00  0.00    +0.234 C 
ATOM     30  O   UNL     1       4.790   0.360  -1.821  0.00  0.00    -0.274 OA
ATOM     31  H   UNL     1       2.381   0.097  -3.731  0.00  0.00    +0.149 HD
BRANCH  28  32
ATOM     32  C   UNL     1       2.154   0.933  -1.792  0.00  0.00    +0.104 C 
BRANCH  32  33
ATOM     33  C   UNL     1       0.688   1.149  -2.169  0.00  0.00    +0.022 C 
BRANCH  33  35
ATOM     34  C   UNL     1       0.518   3.204  -0.759  0.00  0.00    +0.007 C 
ATOM     35  C   UNL     1      -0.049   1.804  -0.999  0.00  0.00    -0.016 C 
ATOM     36  C   UNL     1      -1.540   1.906  -1.327  0.00  0.00    +0.007 C 
ENDBRANCH  33  35
ENDBRANCH  32  33
ENDBRANCH  28  32
ENDBRANCH  27  29
BRANCH  27  37
ATOM     37  C   UNL     1       4.591  -2.223  -3.780  0.00  0.00    +0.012 C 
ATOM     38  C   UNL     1       3.094  -2.480  -3.965  0.00  0.00    +0.009 C 
ATOM     39  C   UNL     1       5.375  -2.988  -4.848  0.00  0.00    +0.009 C 
ENDBRANCH  27  37
ENDBRANCH  23  27
ENDBRANCH   1  24
TORSDOF 7
