REMARK  Name = ZINC48786922
REMARK  4 active torsions:
REMARK  status: ('A' for Active; 'I' for Inactive)
REMARK    1  A    between atoms: C_8  and  O_10
REMARK    2  A    between atoms: O_10  and  C_11
REMARK    3  A    between atoms: C_14  and  N_21
REMARK    4  A    between atoms: C_16  and  C_17
REMARK                            x       y       z     vdW  Elec       q    Type
REMARK                         _______ _______ _______ _____ _____    ______ ____
ROOT
ATOM      1  C   UNL     1       4.922  -3.176  -0.166  0.00  0.00    +0.145 A 
ATOM      2  C   UNL     1       5.556  -1.942  -0.158  0.00  0.00    +0.049 A 
ATOM      3  C   UNL     1       6.930  -1.871  -0.278  0.00  0.00    +0.026 A 
ATOM      4  C   UNL     1       7.676  -3.035  -0.405  0.00  0.00    +0.025 A 
ATOM      5  C   UNL     1       7.041  -4.270  -0.412  0.00  0.00    +0.038 A 
ATOM      6  C   UNL     1       5.667  -4.340  -0.288  0.00  0.00    +0.099 A 
ENDROOT
BRANCH   6   7
ATOM      7  C   UNL     1       4.978  -5.679  -0.289  0.00  0.00    +0.421 C 
ATOM      8  F   UNL     1       5.931  -6.695  -0.422  0.00  0.00    -0.166 F 
ATOM      9  F   UNL     1       4.282  -5.848   0.913  0.00  0.00    -0.166 F 
ATOM     10  F   UNL     1       4.079  -5.740  -1.360  0.00  0.00    -0.166 F 
ENDBRANCH   6   7
BRANCH   4  11
ATOM     11  N   UNL     1       9.068  -2.964  -0.527  0.00  0.00    -0.358 N 
ATOM     12  H   UNL     1       9.512  -2.102  -0.522  0.00  0.00    +0.142 HD
ATOM     13  H   UNL     1       9.590  -3.777  -0.616  0.00  0.00    +0.142 HD
ENDBRANCH   4  11
BRANCH   1  14
ATOM     14  O   UNL     1       3.568  -3.245  -0.049  0.00  0.00    -0.410 OA
BRANCH  14  22
ATOM     15  C   UNL     1       0.087   1.297   1.148  0.00  0.00    +0.002 A 
ATOM     16  C   UNL     1       1.289   1.957   1.357  0.00  0.00    +0.004 A 
ATOM     17  C   UNL     1       2.488   1.293   1.196  0.00  0.00    +0.048 A 
ATOM     18  C   UNL     1       2.494  -0.041   0.824  0.00  0.00    +0.159 A 
ATOM     19  C   UNL     1       1.281  -0.712   0.611  0.00  0.00    +0.113 A 
ATOM     20  C   UNL     1       0.075  -0.029   0.777  0.00  0.00    +0.032 A 
ATOM     21  N   UNL     1       1.598  -1.989   0.261  0.00  0.00    -0.175 NA
ATOM     22  C   UNL     1       2.899  -2.111   0.254  0.00  0.00    +0.402 A 
ATOM     23  O   UNL     1       3.475  -0.944   0.592  0.00  0.00    -0.408 OA
ENDBRANCH  14  22
ENDBRANCH   1  14
TORSDOF 4
