REMARK  Name = ZINC49309867
REMARK  10 active torsions:
REMARK  status: ('A' for Active; 'I' for Inactive)
REMARK    1  A    between atoms: C_1  and  C_2
REMARK    2  A    between atoms: C_7  and  C_9
REMARK    3  A    between atoms: C_7  and  N_20
REMARK    4  A    between atoms: C_9  and  N_10
REMARK    5  A    between atoms: N_10  and  C_11
REMARK    6  A    between atoms: C_11  and  C_12
REMARK    7  A    between atoms: N_14  and  C_15
REMARK    8  A    between atoms: C_15  and  C_16
REMARK    9  A    between atoms: N_20  and  C_21
REMARK   10  A    between atoms: N_20  and  C_22
REMARK                            x       y       z     vdW  Elec       q    Type
REMARK                         _______ _______ _______ _____ _____    ______ ____
ROOT
ATOM      1  N   UNL     1       2.978  -2.150   2.130  0.00  0.00    +0.384 N 
ATOM      2  H   UNL     1       3.300  -2.514   1.246  0.00  0.00    -0.085 HD
ATOM      3  H   UNL     1       3.054  -1.143   2.127  0.00  0.00    -0.085 HD
ENDROOT
BRANCH   1   4
ATOM      4  C   UNL     1       1.576  -2.535   2.338  0.00  0.00    -0.094 C 
BRANCH   4  10
ATOM      5  C   UNL     1       0.146   1.561  -0.142  0.00  0.00    +0.007 C 
ATOM      6  C   UNL     1       0.010   0.039  -0.060  0.00  0.00    -0.015 C 
ATOM      7  C   UNL     1       0.490  -0.587  -1.371  0.00  0.00    +0.003 C 
ATOM      8  C   UNL     1       0.355  -2.109  -1.289  0.00  0.00    -0.001 C 
ATOM      9  C   UNL     1       1.206  -2.635  -0.131  0.00  0.00    -0.014 C 
ATOM     10  C   UNL     1       0.726  -2.009   1.180  0.00  0.00    -0.082 C 
ATOM     11  C   UNL     1       0.861  -0.487   1.098  0.00  0.00    -0.011 C 
BRANCH  10  12
ATOM     12  N   UNL     1      -0.682  -2.364   1.406  0.00  0.00    +0.379 N 
ATOM     13  C   UNL     1      -0.812  -3.825   1.486  0.00  0.00    -0.096 C 
ATOM     14  C   UNL     1      -1.144  -1.761   2.663  0.00  0.00    -0.096 C 
ATOM     15  H   UNL     1      -1.243  -2.018   0.641  0.00  0.00    -0.082 HD
ENDBRANCH  10  12
ENDBRANCH   4  10
ENDBRANCH   1   4
BRANCH   1  16
ATOM     16  C   UNL     1       3.803  -2.699   3.215  0.00  0.00    +0.015 C 
BRANCH  16  17
ATOM     17  C   UNL     1       5.241  -2.304   3.002  0.00  0.00    +0.196 C 
ATOM     18  O   UNL     1       5.549  -1.631   2.041  0.00  0.00    -0.278 OA
ATOM     19  N   UNL     1       6.186  -2.699   3.878  0.00  0.00    -0.308 N 
ATOM     20  H   UNL     1       5.939  -3.237   4.647  0.00  0.00    +0.149 HD
BRANCH  19  21
ATOM     21  C   UNL     1       7.584  -2.314   3.671  0.00  0.00    +0.217 C 
BRANCH  21  22
ATOM     22  C   UNL     1       8.443  -2.886   4.800  0.00  0.00    +0.405 C 
ATOM     23  F   UNL     1       8.339  -4.282   4.805  0.00  0.00    -0.169 F 
ATOM     24  F   UNL     1       9.779  -2.520   4.603  0.00  0.00    -0.169 F 
ATOM     25  F   UNL     1       7.998  -2.382   6.027  0.00  0.00    -0.169 F 
ENDBRANCH  21  22
ENDBRANCH  19  21
ENDBRANCH  16  17
ENDBRANCH   1  16
TORSDOF 7
