REMARK  Name = ZINC39896220
REMARK  10 active torsions:
REMARK  status: ('A' for Active; 'I' for Inactive)
REMARK    1  A    between atoms: C_1  and  C_2
REMARK    2  A    between atoms: C_2  and  C_3
REMARK    3  A    between atoms: C_6  and  N_9
REMARK    4  A    between atoms: C_12  and  C_25
REMARK    5  A    between atoms: C_16  and  C_17
REMARK    6  A    between atoms: C_16  and  C_19
REMARK    7  A    between atoms: N_21  and  C_22
REMARK    8  A    between atoms: C_22  and  C_23
REMARK    9  A    between atoms: C_25  and  C_26
REMARK   10  A    between atoms: C_28  and  C_33
REMARK                            x       y       z     vdW  Elec       q    Type
REMARK                         _______ _______ _______ _____ _____    ______ ____
ROOT
ATOM      1  N   UNL     1       2.666  -2.144  -4.583  0.00  0.00    -0.232 N 
ATOM      2  C   UNL     1       1.956  -2.619  -5.592  0.00  0.00    +0.238 C 
ATOM      3  O   UNL     1       0.743  -2.624  -5.581  0.00  0.00    -0.274 OA
ATOM      4  C   UNL     1       2.756  -3.158  -6.768  0.00  0.00    +0.143 C 
ATOM      5  S   UNL     1       4.468  -2.860  -6.161  0.00  0.00    -0.095 S 
ATOM      6  C   UNL     1       4.040  -2.128  -4.588  0.00  0.00    +0.098 C 
ATOM      7  C   UNL     1       4.900  -1.653  -3.597  0.00  0.00    +0.141 C 
ENDROOT
BRANCH   1  11
ATOM      8  C   UNL     1       0.660  -0.620  -1.263  0.00  0.00    -0.048 A 
ATOM      9  C   UNL     1       0.725  -1.987  -1.463  0.00  0.00    +0.005 A 
ATOM     10  C   UNL     1       1.389  -2.495  -2.562  0.00  0.00    +0.024 A 
ATOM     11  C   UNL     1       1.992  -1.632  -3.467  0.00  0.00    +0.042 A 
ATOM     12  C   UNL     1       1.925  -0.260  -3.265  0.00  0.00    +0.024 A 
ATOM     13  C   UNL     1       1.255   0.242  -2.166  0.00  0.00    +0.005 A 
BRANCH   8  15
ATOM     14  C   UNL     1      -1.534   0.165  -0.417  0.00  0.00    +0.009 C 
ATOM     15  C   UNL     1      -0.065  -0.069  -0.062  0.00  0.00    +0.032 C 
ENDBRANCH   8  15
ENDBRANCH   1  11
BRANCH   7  16
ATOM     16  C   UNL     1       4.368  -1.274  -2.289  0.00  0.00    +0.257 C 
ATOM     17  O   UNL     1       4.244  -0.098  -2.000  0.00  0.00    -0.269 OA
ATOM     18  N   UNL     1       4.016  -2.227  -1.402  0.00  0.00    -0.307 N 
ATOM     19  H   UNL     1       4.115  -3.164  -1.633  0.00  0.00    +0.149 HD
BRANCH  18  20
ATOM     20  C   UNL     1       3.483  -1.847  -0.092  0.00  0.00    +0.131 C 
BRANCH  20  21
ATOM     21  C   UNL     1       3.170  -3.088   0.703  0.00  0.00    -0.016 C 
ATOM     22  C   UNL     1       3.692  -3.254   1.892  0.00  0.00    +0.005 C 
ENDBRANCH  20  21
ENDBRANCH  18  20
ENDBRANCH   7  16
BRANCH   7  23
ATOM     23  C   UNL     1       6.302  -1.538  -3.861  0.00  0.00    +0.107 C 
ATOM     24  N   UNL     1       7.415  -1.446  -4.070  0.00  0.00    -0.191 NA
ENDBRANCH   7  23
BRANCH   4  25
ATOM     25  C   UNL     1       2.493  -4.650  -6.981  0.00  0.00    +0.060 C 
BRANCH  25  26
ATOM     26  C   UNL     1       3.206  -5.113  -8.225  0.00  0.00    -0.027 A 
ATOM     27  C   UNL     1       4.411  -5.783  -8.122  0.00  0.00    +0.017 A 
ATOM     28  C   UNL     1       5.066  -6.208  -9.262  0.00  0.00    +0.055 A 
ATOM     29  C   UNL     1       4.516  -5.963 -10.507  0.00  0.00    +0.014 A 
ATOM     30  C   UNL     1       3.312  -5.294 -10.612  0.00  0.00    +0.021 A 
ATOM     31  C   UNL     1       2.653  -4.873  -9.470  0.00  0.00    +0.044 A 
ATOM     32 CL   UNL     1       1.137  -4.038  -9.600  0.00  0.00    -0.083 Cl
BRANCH  28  33
ATOM     33  C   UNL     1       6.379  -6.938  -9.149  0.00  0.00    +0.417 C 
ATOM     34  F   UNL     1       6.142  -8.313  -9.056  0.00  0.00    -0.166 F 
ATOM     35  F   UNL     1       7.158  -6.675 -10.282  0.00  0.00    -0.166 F 
ATOM     36  F   UNL     1       7.058  -6.502  -8.006  0.00  0.00    -0.166 F 
ENDBRANCH  28  33
ENDBRANCH  25  26
ENDBRANCH   4  25
TORSDOF 9
