REMARK  Name = ZINC19862180
REMARK  6 active torsions:
REMARK  status: ('A' for Active; 'I' for Inactive)
REMARK    1  A    between atoms: C_4  and  C_7
REMARK    2  A    between atoms: C_7  and  O_8
REMARK    3  A    between atoms: O_8  and  C_9
REMARK    4  A    between atoms: C_11  and  O_32
REMARK    5  A    between atoms: C_13  and  O_31
REMARK    6  A    between atoms: C_22  and  C_25
REMARK                            x       y       z     vdW  Elec       q    Type
REMARK                         _______ _______ _______ _____ _____    ______ ____
ROOT
ATOM      1  C   UNL     1      -5.066   3.846  -3.235  0.00  0.00    +0.282 C 
ATOM      2  C   UNL     1      -4.989   4.679  -1.954  0.00  0.00    +0.201 C 
ATOM      3  C   UNL     1      -4.909   3.749  -0.738  0.00  0.00    +0.179 C 
ATOM      4  C   UNL     1      -3.707   2.821  -0.916  0.00  0.00    +0.184 C 
ATOM      5  C   UNL     1      -3.885   2.036  -2.223  0.00  0.00    +0.178 C 
ATOM      6  O   UNL     1      -3.948   2.957  -3.310  0.00  0.00    -0.341 OA
ATOM      7  C   UNL     1      -2.703   1.078  -2.376  0.00  0.00    +0.197 C 
ATOM      8  O   UNL     1      -2.635   0.254  -1.205  0.00  0.00    -0.345 OA
ATOM      9  C   UNL     1      -2.514   0.980   0.019  0.00  0.00    +0.282 C 
ATOM     10  O   UNL     1      -3.609   1.891   0.162  0.00  0.00    -0.339 OA
ENDROOT
BRANCH   9  11
ATOM     11  C   UNL     1      -1.219   1.751   0.017  0.00  0.00    +0.008 A 
ATOM     12  C   UNL     1      -0.135   1.280  -0.699  0.00  0.00    +0.008 A 
ATOM     13  C   UNL     1       1.051   1.990  -0.706  0.00  0.00    +0.000 A 
ATOM     14  C   UNL     1       1.155   3.168   0.009  0.00  0.00    +0.000 A 
ATOM     15  C   UNL     1       0.072   3.637   0.730  0.00  0.00    +0.000 A 
ATOM     16  C   UNL     1      -1.114   2.927   0.736  0.00  0.00    +0.008 A 
ENDBRANCH   9  11
BRANCH   3  17
ATOM     17  O   UNL     1      -4.748   4.526   0.451  0.00  0.00    -0.386 OA
ATOM     18  H   UNL     1      -4.671   4.026   1.428  0.00  0.00    +0.210 HD
ENDBRANCH   3  17
BRANCH   2  19
ATOM     19  O   UNL     1      -6.154   5.499  -1.849  0.00  0.00    -0.384 OA
ATOM     20  H   UNL     1      -6.277   6.172  -0.987  0.00  0.00    +0.210 HD
ENDBRANCH   2  19
BRANCH   1  21
ATOM     21  O   UNL     1      -5.056   4.717  -4.368  0.00  0.00    -0.344 OA
BRANCH  21  22
ATOM     22  C   UNL     1      -5.363   4.067  -5.603  0.00  0.00    +0.198 C 
BRANCH  22  26
ATOM     23  C   UNL     1      -5.252   6.921  -8.780  0.00  0.00    +0.000 A 
ATOM     24  C   UNL     1      -4.107   6.229  -8.433  0.00  0.00    +0.000 A 
ATOM     25  C   UNL     1      -4.143   5.305  -7.405  0.00  0.00    +0.006 A 
ATOM     26  C   UNL     1      -5.324   5.074  -6.724  0.00  0.00    -0.022 A 
ATOM     27  C   UNL     1      -6.470   5.763  -7.074  0.00  0.00    +0.006 A 
ATOM     28  C   UNL     1      -6.433   6.690  -8.100  0.00  0.00    +0.000 A 
ENDBRANCH  22  26
ENDBRANCH  21  22
ENDBRANCH   1  21
TORSDOF 6
