REMARK  Name = ZINC65298006
REMARK  8 active torsions:
REMARK  status: ('A' for Active; 'I' for Inactive)
REMARK    1  A    between atoms: C_1  and  C_2
REMARK    2  A    between atoms: C_2  and  O_3
REMARK    3  A    between atoms: O_3  and  C_4
REMARK    4  A    between atoms: C_7  and  C_10
REMARK    5  A    between atoms: N_15  and  C_18
REMARK    6  A    between atoms: C_18  and  C_19
REMARK    7  A    between atoms: C_26  and  C_29
REMARK    8  A    between atoms: C_34  and  O_35
REMARK                            x       y       z     vdW  Elec       q    Type
REMARK                         _______ _______ _______ _____ _____    ______ ____
ROOT
ATOM      1  C   UNL     1       1.140  -6.030   1.762  0.00  0.00    +0.047 C 
ATOM      2  N   UNL     1       0.632  -6.784   0.861  0.00  0.00    -0.266 NA
ATOM      3  C   UNL     1       0.685  -8.241   0.886  0.00  0.00    +0.109 C 
ATOM      4  C   UNL     1       1.766  -8.731  -0.083  0.00  0.00    +0.027 C 
ATOM      5  C   UNL     1       1.395  -8.308  -1.506  0.00  0.00    -0.075 C 
ATOM      6  N   UNL     1       0.103  -8.898  -1.875  0.00  0.00    +0.383 N 
ATOM      7  C   UNL     1      -0.951  -8.383  -0.994  0.00  0.00    -0.075 C 
ATOM      8  C   UNL     1      -0.669  -8.810   0.448  0.00  0.00    +0.027 C 
ATOM      9  N   UNL     1       0.996  -8.720   2.240  0.00  0.00    -0.286 NA
ATOM     10  C   UNL     1       2.196  -8.040   2.756  0.00  0.00    +0.095 C 
ATOM     11  C   UNL     1       1.856  -6.563   2.972  0.00  0.00    +0.079 C 
ATOM     12  H   UNL     1       0.211  -8.589   2.859  0.00  0.00    +0.125 HD
ATOM     13  H   UNL     1       0.155  -9.902  -1.785  0.00  0.00    -0.081 HD
ENDROOT
BRANCH  10  14
ATOM     14  C   UNL     1       2.612  -8.665   4.063  0.00  0.00    +0.013 A 
ATOM     15  C   UNL     1       1.706  -9.410   4.792  0.00  0.00    +0.028 A 
ATOM     16  C   UNL     1       2.088  -9.984   5.992  0.00  0.00    +0.042 A 
ATOM     17  C   UNL     1       3.378  -9.813   6.463  0.00  0.00    +0.023 A 
ATOM     18  C   UNL     1       4.287  -9.068   5.737  0.00  0.00    +0.047 A 
ATOM     19  C   UNL     1       3.907  -8.496   4.531  0.00  0.00    +0.122 A 
ATOM     20 CL   UNL     1       0.948 -10.920   6.907  0.00  0.00    -0.084 Cl
BRANCH  19  21
ATOM     21  O   UNL     1       4.802  -7.768   3.812  0.00  0.00    -0.506 OA
ATOM     22  H   UNL     1       4.810  -6.827   4.032  0.00  0.00    +0.292 HD
ENDBRANCH  19  21
ENDBRANCH  10  14
BRANCH   1  26
ATOM     23  C   UNL     1       0.802  -1.823   1.306  0.00  0.00    +0.121 A 
ATOM     24  C   UNL     1       0.258  -2.670   0.348  0.00  0.00    +0.046 A 
ATOM     25  C   UNL     1       0.365  -4.035   0.492  0.00  0.00    +0.013 A 
ATOM     26  C   UNL     1       1.023  -4.569   1.603  0.00  0.00    -0.004 A 
ATOM     27  C   UNL     1       1.570  -3.713   2.564  0.00  0.00    +0.013 A 
ATOM     28  C   UNL     1       1.462  -2.349   2.409  0.00  0.00    +0.046 A 
BRANCH  23  29
ATOM     29  O   UNL     1       0.693  -0.477   1.160  0.00  0.00    -0.492 OA
BRANCH  29  31
ATOM     30  C   UNL     1      -0.019   1.526   0.010  0.00  0.00    +0.048 C 
ATOM     31  C   UNL     1       0.002  -0.004   0.002  0.00  0.00    +0.225 C 
ENDBRANCH  29  31
ENDBRANCH  23  29
ENDBRANCH   1  26
BRANCH   6  32
ATOM     32  C   UNL     1      -0.212  -8.551  -3.268  0.00  0.00    -0.043 C 
BRANCH  32  33
ATOM     33  C   UNL     1      -1.476  -9.257  -3.688  0.00  0.00    -0.064 A 
ATOM     34  C   UNL     1      -1.409 -10.516  -4.254  0.00  0.00    +0.002 A 
ATOM     35  C   UNL     1      -2.568 -11.163  -4.640  0.00  0.00    +0.000 A 
ATOM     36  C   UNL     1      -3.794 -10.551  -4.458  0.00  0.00    +0.000 A 
ATOM     37  C   UNL     1      -3.861  -9.293  -3.890  0.00  0.00    +0.000 A 
ATOM     38  C   UNL     1      -2.703  -8.647  -3.501  0.00  0.00    +0.002 A 
ENDBRANCH  32  33
ENDBRANCH   6  32
TORSDOF 7
