REMARK  Name = ZINC13022485
REMARK  14 active torsions:
REMARK  status: ('A' for Active; 'I' for Inactive)
REMARK    1  A    between atoms: C_1  and  C_2
REMARK    2  A    between atoms: C_2  and  C_3
REMARK    3  A    between atoms: C_3  and  N_4
REMARK    4  A    between atoms: N_4  and  C_5
REMARK    5  A    between atoms: C_6  and  N_21
REMARK    6  A    between atoms: N_7  and  C_14
REMARK    7  A    between atoms: C_14  and  C_15
REMARK    8  A    between atoms: C_22  and  C_24
REMARK    9  A    between atoms: C_24  and  O_25
REMARK   10  A    between atoms: O_25  and  C_26
REMARK   11  A    between atoms: C_26  and  C_28
REMARK   12  A    between atoms: C_30  and  C_34
REMARK   13  A    between atoms: C_31  and  C_33
REMARK   14  A    between atoms: C_34  and  C_35
REMARK                            x       y       z     vdW  Elec       q    Type
REMARK                         _______ _______ _______ _____ _____    ______ ____
ROOT
ATOM      1  C   UNL     1      -0.283  -2.739  -1.737  0.00  0.00    +0.140 A 
ATOM      2  C   UNL     1      -0.662  -2.736  -3.064  0.00  0.00    +0.128 A 
ATOM      3  N   UNL     1      -1.687  -3.558  -3.471  0.00  0.00    -0.276 N 
ATOM      4  C   UNL     1      -2.312  -4.356  -2.587  0.00  0.00    +0.331 A 
ATOM      5  O   UNL     1      -3.216  -5.076  -2.967  0.00  0.00    -0.246 OA
ATOM      6  N   UNL     1      -1.956  -4.373  -1.290  0.00  0.00    -0.273 N 
ATOM      7  H   UNL     1      -2.423  -4.958  -0.673  0.00  0.00    +0.173 HD
ATOM      8  C   UNL     1      -0.955  -3.591  -0.841  0.00  0.00    +0.277 A 
ATOM      9  O   UNL     1      -0.637  -3.618   0.336  0.00  0.00    -0.266 OA
ENDROOT
BRANCH   1  10
ATOM     10  N   UNL     1       0.764  -1.907  -1.288  0.00  0.00    -0.261 N 
ATOM     11  C   UNL     1       1.911  -2.453  -0.832  0.00  0.00    +0.258 C 
ATOM     12  O   UNL     1       2.081  -3.652  -0.899  0.00  0.00    -0.272 OA
BRANCH  10  13
ATOM     13  C   UNL     1       0.606  -0.451  -1.316  0.00  0.00    +0.114 C 
BRANCH  13  15
ATOM     14  C   UNL     1      -0.267   1.531  -0.069  0.00  0.00    +0.005 C 
ATOM     15  C   UNL     1      -0.101   0.010  -0.040  0.00  0.00    +0.016 C 
ENDBRANCH  13  15
ENDBRANCH  10  13
BRANCH  11  16
ATOM     16  C   UNL     1       2.981  -1.572  -0.240  0.00  0.00    +0.328 C 
BRANCH  16  17
ATOM     17  O   UNL     1       4.090  -2.377   0.166  0.00  0.00    -0.451 OA
BRANCH  17  18
ATOM     18  C   UNL     1       5.140  -1.738   0.720  0.00  0.00    +0.346 C 
ATOM     19  O   UNL     1       5.115  -0.529   0.854  0.00  0.00    -0.244 OA
BRANCH  18  20
ATOM     20  C   UNL     1       6.311  -2.498   1.161  0.00  0.00    +0.097 A 
ATOM     21  C   UNL     1       7.479  -2.041   1.753  0.00  0.00    +0.026 A 
ATOM     22  C   UNL     1       8.410  -3.004   2.058  0.00  0.00    -0.037 A 
ATOM     23  C   UNL     1       8.136  -4.301   1.770  0.00  0.00    -0.009 A 
ATOM     24  S   UNL     1       6.604  -4.255   1.083  0.00  0.00    -0.087 S 
ATOM     25  C   UNL     1       9.005  -5.507   2.016  0.00  0.00    +0.052 C 
BRANCH  22  26
ATOM     26  C   UNL     1       9.718  -2.625   2.703  0.00  0.00    +0.032 C 
ATOM     27  C   UNL     1      10.789  -2.454   1.624  0.00  0.00    +0.009 C 
ENDBRANCH  22  26
ENDBRANCH  18  20
ENDBRANCH  17  18
ENDBRANCH  16  17
ENDBRANCH  11  16
ENDBRANCH   1  10
BRANCH   2  28
ATOM     28  N   UNL     1      -0.024  -1.920  -3.967  0.00  0.00    -0.343 N 
ATOM     29  H   UNL     1       0.652  -1.295  -3.663  0.00  0.00    +0.144 HD
ATOM     30  H   UNL     1      -0.249  -1.970  -4.909  0.00  0.00    +0.144 HD
ENDBRANCH   2  28
BRANCH   3  31
ATOM     31  C   UNL     1      -2.099  -3.565  -4.877  0.00  0.00    +0.163 C 
BRANCH  31  32
ATOM     32  C   UNL     1      -1.304  -4.601  -5.629  0.00  0.00    -0.028 A 
ATOM     33  C   UNL     1      -0.102  -4.255  -6.218  0.00  0.00    +0.005 A 
ATOM     34  C   UNL     1       0.627  -5.205  -6.909  0.00  0.00    +0.000 A 
ATOM     35  C   UNL     1       0.155  -6.501  -7.009  0.00  0.00    +0.000 A 
ATOM     36  C   UNL     1      -1.046  -6.846  -6.419  0.00  0.00    +0.000 A 
ATOM     37  C   UNL     1      -1.774  -5.897  -5.726  0.00  0.00    +0.005 A 
ENDBRANCH  31  32
ENDBRANCH   3  31
TORSDOF 11
