REMARK  Name = ZINC40980662
REMARK  13 active torsions:
REMARK  status: ('A' for Active; 'I' for Inactive)
REMARK    1  A    between atoms: C_1  and  C_2
REMARK    2  A    between atoms: C_2  and  C_3
REMARK    3  A    between atoms: C_3  and  S_4
REMARK    4  A    between atoms: S_4  and  C_5
REMARK    5  A    between atoms: C_10  and  C_19
REMARK    6  A    between atoms: C_12  and  C_16
REMARK    7  A    between atoms: C_13  and  C_15
REMARK    8  A    between atoms: C_16  and  C_18
REMARK    9  A    between atoms: C_22  and  O_27
REMARK   10  A    between atoms: C_23  and  O_25
REMARK   11  A    between atoms: O_25  and  C_26
REMARK   12  A    between atoms: O_27  and  C_28
REMARK   13  A    between atoms: C_28  and  C_29
REMARK                            x       y       z     vdW  Elec       q    Type
REMARK                         _______ _______ _______ _____ _____    ______ ____
ROOT
ATOM      1  C   UNL     1      -3.057  -3.107  -0.007  0.00  0.00    +0.210 A 
ATOM      2  N   UNL     1      -4.000  -2.154  -0.010  0.00  0.00    -0.187 NA
ATOM      3  C   UNL     1      -5.181  -2.709   0.012  0.00  0.00    +0.219 A 
ATOM      4  N   UNL     1      -5.014  -4.054   0.035  0.00  0.00    -0.220 N 
ATOM      5  N   UNL     1      -3.639  -4.287   0.014  0.00  0.00    -0.141 NA
ATOM      6  C   UNL     1      -6.121  -5.007   0.074  0.00  0.00    +0.176 C 
ATOM      7  C   UNL     1      -7.411  -4.286  -0.216  0.00  0.00    +0.040 C 
ATOM      8  C   UNL     1      -7.514  -2.943  -0.229  0.00  0.00    +0.016 C 
ATOM      9  N   UNL     1      -6.441  -2.127   0.012  0.00  0.00    -0.287 N 
ATOM     10  C   UNL     1      -8.854  -2.318  -0.519  0.00  0.00    +0.061 C 
ATOM     11  H   UNL     1      -6.557  -1.178   0.177  0.00  0.00    +0.155 HD
ENDROOT
BRANCH   6  12
ATOM     12  C   UNL     1      -6.193  -5.638   1.441  0.00  0.00    -0.015 A 
ATOM     13  C   UNL     1      -6.399  -4.846   2.556  0.00  0.00    +0.010 A 
ATOM     14  C   UNL     1      -6.467  -5.421   3.811  0.00  0.00    +0.050 A 
ATOM     15  C   UNL     1      -6.328  -6.792   3.955  0.00  0.00    +0.162 A 
ATOM     16  C   UNL     1      -6.121  -7.588   2.833  0.00  0.00    +0.162 A 
ATOM     17  C   UNL     1      -6.059  -7.007   1.576  0.00  0.00    +0.055 A 
BRANCH  16  18
ATOM     18  O   UNL     1      -5.985  -8.934   2.968  0.00  0.00    -0.491 OA
ATOM     19  C   UNL     1      -5.775  -9.689   1.772  0.00  0.00    +0.277 C 
ENDBRANCH  16  18
BRANCH  15  20
ATOM     20  O   UNL     1      -6.394  -7.358   5.189  0.00  0.00    -0.484 OA
BRANCH  20  21
ATOM     21  C   UNL     1      -6.608  -6.479   6.296  0.00  0.00    +0.264 C 
BRANCH  21  22
ATOM     22  C   UNL     1      -6.652  -7.279   7.572  0.00  0.00    -0.010 A 
ATOM     23  C   UNL     1      -7.854  -7.784   8.030  0.00  0.00    +0.008 A 
ATOM     24  C   UNL     1      -7.895  -8.518   9.201  0.00  0.00    +0.020 A 
ATOM     25  C   UNL     1      -6.732  -8.748   9.914  0.00  0.00    +0.041 A 
ATOM     26  C   UNL     1      -5.529  -8.243   9.454  0.00  0.00    +0.020 A 
ATOM     27  C   UNL     1      -5.488  -7.514   8.281  0.00  0.00    +0.008 A 
ATOM     28 CL   UNL     1      -6.782  -9.669  11.384  0.00  0.00    -0.084 Cl
ENDBRANCH  21  22
ENDBRANCH  20  21
ENDBRANCH  15  20
ENDBRANCH   6  12
BRANCH   7  29
ATOM     29  C   UNL     1      -8.557  -5.049  -0.485  0.00  0.00    +0.160 C 
ATOM     30  O   UNL     1      -9.493  -5.033   0.290  0.00  0.00    -0.293 OA
ATOM     31  C   UNL     1      -8.628  -5.887  -1.736  0.00  0.00    +0.091 C 
ENDBRANCH   7  29
BRANCH   1  32
ATOM     32  S   UNL     1      -1.317  -2.825  -0.034  0.00  0.00    -0.084 S 
BRANCH  32  33
ATOM     33  C   UNL     1      -1.166  -1.018  -0.056  0.00  0.00    +0.077 C 
BRANCH  33  35
ATOM     34  C   UNL     1       0.442   0.894  -0.099  0.00  0.00    +0.004 C 
ATOM     35  C   UNL     1       0.314  -0.630  -0.080  0.00  0.00    +0.008 C 
ENDBRANCH  33  35
ENDBRANCH  32  33
ENDBRANCH   1  32
TORSDOF 9
