REMARK  Name = ZINC13262150
REMARK  7 active torsions:
REMARK  status: ('A' for Active; 'I' for Inactive)
REMARK    1  A    between atoms: C_4  and  C_24
REMARK    2  A    between atoms: C_6  and  S_7
REMARK    3  A    between atoms: S_7  and  N_10
REMARK    4  A    between atoms: N_10  and  N_11
REMARK    5  A    between atoms: C_12  and  C_14
REMARK    6  A    between atoms: C_14  and  S_15
REMARK    7  A    between atoms: S_15  and  C_16
REMARK                            x       y       z     vdW  Elec       q    Type
REMARK                         _______ _______ _______ _____ _____    ______ ____
ROOT
ATOM      1  N   UNL     1      -0.897   1.885  -1.312  0.00  0.00    -0.108 NA
ATOM      2  H   UNL     1      -1.201   1.223  -1.952  0.00  0.00    +0.172 HD
ENDROOT
BRANCH   1   3
ATOM      3  N   UNL     1      -1.204   3.239  -1.506  0.00  0.00    -0.231 N 
ATOM      4  C   UNL     1      -0.870   3.847  -2.661  0.00  0.00    +0.238 C 
ATOM      5  O   UNL     1      -0.303   3.223  -3.533  0.00  0.00    -0.274 OA
ATOM      6  H   UNL     1      -1.657   3.738  -0.808  0.00  0.00    +0.171 HD
BRANCH   4   7
ATOM      7  C   UNL     1      -1.199   5.303  -2.869  0.00  0.00    +0.171 C 
BRANCH   7   8
ATOM      8  S   UNL     1      -0.626   5.824  -4.510  0.00  0.00    -0.114 S 
BRANCH   8   9
ATOM      9  C   UNL     1      -1.079   7.524  -4.599  0.00  0.00    +0.028 A 
ATOM     10  C   UNL     1      -1.732   8.128  -3.532  0.00  0.00    +0.036 A 
ATOM     11  C   UNL     1      -2.081   9.463  -3.603  0.00  0.00    +0.042 A 
ATOM     12  C   UNL     1      -1.791  10.196  -4.741  0.00  0.00    +0.021 A 
ATOM     13  C   UNL     1      -1.146   9.597  -5.808  0.00  0.00    +0.022 A 
ATOM     14  C   UNL     1      -0.788   8.264  -5.740  0.00  0.00    +0.054 A 
ATOM     15 CL   UNL     1       0.022   7.513  -7.080  0.00  0.00    -0.082 Cl
ATOM     16 CL   UNL     1      -2.891  10.220  -2.268  0.00  0.00    -0.084 Cl
ENDBRANCH   8   9
ENDBRANCH   7   8
ENDBRANCH   4   7
ENDBRANCH   1   3
BRANCH   1  17
ATOM     17  S   UNL     1      -0.017   1.417   0.010  0.00  0.00    +0.074 S 
ATOM     18  O   UNL     1       0.002  -0.004   0.002  0.00  0.00    -0.152 OA
ATOM     19  O   UNL     1       1.172   2.195   0.003  0.00  0.00    -0.152 OA
BRANCH  17  25
ATOM     20  C   UNL     1      -0.715   3.147   2.003  0.00  0.00    +0.031 A 
ATOM     21  C   UNL     1      -1.427   3.538   3.122  0.00  0.00    +0.041 A 
ATOM     22  C   UNL     1      -2.349   2.680   3.692  0.00  0.00    +0.138 A 
ATOM     23  C   UNL     1      -2.563   1.417   3.130  0.00  0.00    +0.100 A 
ATOM     24  C   UNL     1      -1.843   1.033   1.996  0.00  0.00    +0.046 A 
ATOM     25  C   UNL     1      -0.927   1.900   1.439  0.00  0.00    +0.108 A 
ATOM     26  F   UNL     1      -3.041   3.061   4.788  0.00  0.00    -0.205 F 
BRANCH  23  27
ATOM     27  C   UNL     1      -3.546   0.494   3.731  0.00  0.00    +0.389 C 
ATOM     28  O   UNL     1      -4.171   0.831   4.717  0.00  0.00    -0.240 OA
ATOM     29  O   UNL     1      -3.750  -0.721   3.187  0.00  0.00    -0.240 OA
ENDBRANCH  23  27
ENDBRANCH  17  25
ENDBRANCH   1  17
TORSDOF 7
