REMARK  Name = ZINC13019848
REMARK  8 active torsions:
REMARK  status: ('A' for Active; 'I' for Inactive)
REMARK    1  A    between atoms: C_1  and  C_2
REMARK    2  A    between atoms: C_5  and  C_8
REMARK    3  A    between atoms: C_8  and  N_9
REMARK    4  A    between atoms: N_12  and  C_13
REMARK    5  A    between atoms: C_13  and  C_15
REMARK    6  A    between atoms: C_13  and  C_26
REMARK    7  A    between atoms: C_26  and  C_27
REMARK    8  A    between atoms: C_26  and  C_28
REMARK                            x       y       z     vdW  Elec       q    Type
REMARK                         _______ _______ _______ _____ _____    ______ ____
ROOT
ATOM      1  C   UNL     1      -2.164   1.050   1.278  0.00  0.00    +0.107 C 
ENDROOT
BRANCH   1   2
ATOM      2  C   UNL     1      -2.870   1.536   2.518  0.00  0.00    -0.023 A 
ATOM      3  C   UNL     1      -3.374   2.822   2.564  0.00  0.00    +0.009 A 
ATOM      4  C   UNL     1      -4.028   3.273   3.696  0.00  0.00    +0.050 A 
ATOM      5  C   UNL     1      -4.165   2.434   4.789  0.00  0.00    +0.162 A 
ATOM      6  C   UNL     1      -3.655   1.145   4.745  0.00  0.00    +0.162 A 
ATOM      7  C   UNL     1      -3.005   0.695   3.608  0.00  0.00    +0.055 A 
ATOM      8  O   UNL     1      -3.796   0.326   5.827  0.00  0.00    -0.488 OA
ATOM      9  C   UNL     1      -3.052   0.693   6.990  0.00  0.00    +0.232 C 
ATOM     10  C   UNL     1      -3.810   1.724   7.812  0.00  0.00    +0.082 C 
ATOM     11  C   UNL     1      -3.982   3.041   7.071  0.00  0.00    +0.232 C 
ATOM     12  O   UNL     1      -4.803   2.869   5.915  0.00  0.00    -0.488 OA
ENDBRANCH   1   2
BRANCH   1  16
ATOM     13  N   UNL     1      -3.424   1.312  -2.167  0.00  0.00    -0.295 N 
ATOM     14  C   UNL     1      -2.772   0.866  -1.075  0.00  0.00    +0.300 C 
ATOM     15  O   UNL     1      -2.093  -0.141  -1.141  0.00  0.00    -0.253 OA
ATOM     16  N   UNL     1      -2.873   1.535   0.091  0.00  0.00    -0.292 N 
ATOM     17  H   UNL     1      -3.966   2.115  -2.114  0.00  0.00    +0.151 HD
ATOM     18  H   UNL     1      -3.414   2.338   0.144  0.00  0.00    +0.151 HD
BRANCH  13  19
ATOM     19  C   UNL     1      -3.314   0.585  -3.434  0.00  0.00    +0.141 C 
BRANCH  19  24
ATOM     20  C   UNL     1      -6.448   3.274  -7.476  0.00  0.00    +0.044 C 
ATOM     21  C   UNL     1      -5.631   2.572  -6.422  0.00  0.00    -0.050 A 
ATOM     22  C   UNL     1      -4.304   2.913  -6.236  0.00  0.00    +0.003 A 
ATOM     23  C   UNL     1      -3.554   2.270  -5.269  0.00  0.00    +0.005 A 
ATOM     24  C   UNL     1      -4.131   1.286  -4.488  0.00  0.00    -0.030 A 
ATOM     25  C   UNL     1      -5.457   0.942  -4.677  0.00  0.00    +0.005 A 
ATOM     26  C   UNL     1      -6.208   1.589  -5.641  0.00  0.00    +0.003 A 
ENDBRANCH  19  24
ENDBRANCH  13  19
ENDBRANCH   1  16
BRANCH   1  27
ATOM     27  C   UNL     1      -0.729   1.579   1.267  0.00  0.00    +0.008 C 
ATOM     28  C   UNL     1      -0.013   1.086   0.008  0.00  0.00    +0.009 C 
ATOM     29  C   UNL     1       0.011   1.072   2.506  0.00  0.00    +0.009 C 
ENDBRANCH   1  27
TORSDOF 5
