REMARK  Name = ZINC12532086
REMARK  12 active torsions:
REMARK  status: ('A' for Active; 'I' for Inactive)
REMARK    1  A    between atoms: C_1  and  O_2
REMARK    2  A    between atoms: O_2  and  C_3
REMARK    3  A    between atoms: C_6  and  N_9
REMARK    4  A    between atoms: C_10  and  C_12
REMARK    5  A    between atoms: C_12  and  C_13
REMARK    6  A    between atoms: N_19  and  N_20
REMARK    7  A    between atoms: C_21  and  C_22
REMARK    8  A    between atoms: C_24  and  O_33
REMARK    9  A    between atoms: C_25  and  O_29
REMARK   10  A    between atoms: O_29  and  C_30
REMARK   11  A    between atoms: C_30  and  C_31
REMARK   12  A    between atoms: O_33  and  C_34
REMARK                            x       y       z     vdW  Elec       q    Type
REMARK                         _______ _______ _______ _____ _____    ______ ____
ROOT
ATOM      1  C   UNL     1      10.842   2.584  -0.088  0.00  0.00    +0.149 C 
ATOM      2  C   UNL     1       9.707   3.595  -0.076  0.00  0.00    +0.233 C 
ATOM      3  O   UNL     1       9.909   4.791  -0.079  0.00  0.00    -0.274 OA
ATOM      4  N   UNL     1       8.485   3.089  -0.069  0.00  0.00    -0.263 N 
ATOM      5  C   UNL     1       8.250   1.730  -0.060  0.00  0.00    +0.183 C 
ATOM      6  N   UNL     1       7.091   1.107  -0.047  0.00  0.00    -0.127 NA
ATOM      7  S   UNL     1       9.887   1.016  -0.077  0.00  0.00    -0.075 S 
ATOM      8  H   UNL     1       7.612   3.759  -0.070  0.00  0.00    +0.157 HD
ENDROOT
BRANCH   6   9
ATOM      9  N   UNL     1       5.993   1.785  -0.035  0.00  0.00    -0.155 NA
ATOM     10  C   UNL     1       4.844   1.166  -0.023  0.00  0.00    +0.143 C 
BRANCH  10  11
ATOM     11  C   UNL     1       3.592   1.939  -0.010  0.00  0.00    -0.000 A 
ATOM     12  C   UNL     1       2.359   1.278   0.004  0.00  0.00    +0.059 A 
ATOM     13  C   UNL     1       1.187   2.010   0.017  0.00  0.00    +0.164 A 
ATOM     14  C   UNL     1       1.234   3.402   0.010  0.00  0.00    +0.182 A 
ATOM     15  C   UNL     1       2.456   4.060   0.003  0.00  0.00    +0.087 A 
ATOM     16  C   UNL     1       3.632   3.337  -0.010  0.00  0.00    +0.033 A 
ATOM     17 CL   UNL     1       2.506   5.795   0.002  0.00  0.00    -0.080 Cl
BRANCH  13  18
ATOM     18  O   UNL     1      -0.013   1.370   0.030  0.00  0.00    -0.491 OA
ATOM     19  C   UNL     1       0.013  -0.059   0.030  0.00  0.00    +0.277 C 
ENDBRANCH  13  18
BRANCH  14  20
ATOM     20  O   UNL     1       0.078   4.119   0.017  0.00  0.00    -0.474 OA
BRANCH  20  21
ATOM     21  C   UNL     1      -0.462   4.467   1.294  0.00  0.00    +0.317 C 
BRANCH  21  22
ATOM     22  C   UNL     1      -1.704   5.235   1.109  0.00  0.00    -0.065 C 
ATOM     23  C   UNL     1      -2.694   5.848   0.961  0.00  0.00    +0.007 C 
ENDBRANCH  21  22
ENDBRANCH  20  21
ENDBRANCH  14  20
ENDBRANCH  10  11
ENDBRANCH   6   9
BRANCH   1  24
ATOM     24  C   UNL     1      11.684   2.712  -1.359  0.00  0.00    +0.120 C 
BRANCH  24  26
ATOM     25  N   UNL     1      13.623   1.572  -2.388  0.00  0.00    -0.285 N 
ATOM     26  C   UNL     1      12.756   1.653  -1.359  0.00  0.00    +0.219 C 
ATOM     27  O   UNL     1      12.839   0.873  -0.434  0.00  0.00    -0.275 OA
ATOM     28  H   UNL     1      13.503   2.229  -3.262  0.00  0.00    +0.155 HD
BRANCH  25  32
ATOM     29  C   UNL     1      16.765  -1.167  -2.256  0.00  0.00    +0.120 A 
ATOM     30  C   UNL     1      15.538  -1.491  -1.695  0.00  0.00    +0.047 A 
ATOM     31  C   UNL     1      14.498  -0.585  -1.738  0.00  0.00    +0.027 A 
ATOM     32  C   UNL     1      14.679   0.652  -2.344  0.00  0.00    +0.034 A 
ATOM     33  C   UNL     1      15.905   0.973  -2.910  0.00  0.00    +0.027 A 
ATOM     34  C   UNL     1      16.947   0.068  -2.861  0.00  0.00    +0.047 A 
BRANCH  29  36
ATOM     35  C   UNL     1      19.025  -1.659  -2.809  0.00  0.00    +0.277 C 
ATOM     36  O   UNL     1      17.790  -2.059  -2.212  0.00  0.00    -0.495 OA
ENDBRANCH  29  36
ENDBRANCH  25  32
ENDBRANCH  24  26
ENDBRANCH   1  24
TORSDOF 10
