REMARK  Name = ZINC00633760
REMARK  3 active torsions:
REMARK  status: ('A' for Active; 'I' for Inactive)
REMARK    1  A    between atoms: C_1  and  C_2
REMARK    2  A    between atoms: C_7  and  C_17
REMARK    3  A    between atoms: C_10  and  C_12
REMARK                            x       y       z     vdW  Elec       q    Type
REMARK                         _______ _______ _______ _____ _____    ______ ____
ROOT
ATOM      1  C   UNL     1      -0.018   1.503   0.010  0.00  0.00    +0.090 C 
ATOM      2  C   UNL     1       0.002  -0.004   0.002  0.00  0.00    +0.150 A 
ATOM      3  N   UNL     1       0.008  -0.768  -1.092  0.00  0.00    -0.195 NA
ATOM      4  C   UNL     1       0.025  -2.032  -0.747  0.00  0.00    +0.250 A 
ATOM      5  N   UNL     1       0.038  -2.084   0.622  0.00  0.00    -0.221 N 
ATOM      6  N   UNL     1       0.023  -0.767   1.069  0.00  0.00    -0.153 NA
ATOM      7  C   UNL     1       0.075  -3.343   1.364  0.00  0.00    +0.147 C 
ATOM      8  C   UNL     1      -0.619  -4.416   0.516  0.00  0.00    +0.088 C 
ATOM      9  C   UNL     1      -0.212  -4.310  -0.927  0.00  0.00    +0.061 C 
ATOM     10  N   UNL     1       0.051  -3.160  -1.502  0.00  0.00    -0.215 NA
ENDROOT
BRANCH   7  11
ATOM     11  C   UNL     1      -0.649  -3.183   2.676  0.00  0.00    -0.023 A 
ATOM     12  C   UNL     1      -1.988  -2.838   2.688  0.00  0.00    +0.007 A 
ATOM     13  C   UNL     1      -2.653  -2.691   3.891  0.00  0.00    +0.015 A 
ATOM     14  C   UNL     1      -1.979  -2.889   5.083  0.00  0.00    +0.018 A 
ATOM     15  C   UNL     1      -0.639  -3.234   5.070  0.00  0.00    +0.015 A 
ATOM     16  C   UNL     1       0.023  -3.386   3.866  0.00  0.00    +0.007 A 
ATOM     17 BR   UNL     1      -2.888  -2.687   6.728  0.00  0.00    -0.050 Br
ENDBRANCH   7  11
BRANCH   9  18
ATOM     18  C   UNL     1      -0.109  -5.494  -1.694  0.00  0.00    +0.034 A 
ATOM     19  C   UNL     1       0.250  -5.646  -3.029  0.00  0.00    +0.017 A 
ATOM     20  C   UNL     1       0.260  -6.937  -3.499  0.00  0.00    +0.008 A 
ATOM     21  C   UNL     1      -0.070  -7.948  -2.658  0.00  0.00    +0.046 A 
ATOM     22  S   UNL     1      -0.399  -7.182  -1.199  0.00  0.00    -0.095 S 
ENDBRANCH   9  18
TORSDOF 2
