REMARK  Name = ZINC35594701
REMARK  13 active torsions:
REMARK  status: ('A' for Active; 'I' for Inactive)
REMARK    1  A    between atoms: C_1  and  C_2
REMARK    2  A    between atoms: C_2  and  N_3
REMARK    3  A    between atoms: N_3  and  C_4
REMARK    4  A    between atoms: N_3  and  C_6
REMARK    5  A    between atoms: C_4  and  C_5
REMARK    6  A    between atoms: C_6  and  C_7
REMARK    7  A    between atoms: C_7  and  N_8
REMARK    8  A    between atoms: C_9  and  C_11
REMARK    9  A    between atoms: C_14  and  C_16
REMARK   10  A    between atoms: C_16  and  N_17
REMARK   11  A    between atoms: C_25  and  C_27
REMARK   12  A    between atoms: C_32  and  O_33
REMARK   13  A    between atoms: O_33  and  C_34
REMARK                            x       y       z     vdW  Elec       q    Type
REMARK                         _______ _______ _______ _____ _____    ______ ____
ROOT
ATOM      1  C   UNL     1       3.319  -8.876  -0.379  0.00  0.00    -0.002 C 
ENDROOT
BRANCH   1   2
ATOM      2  N   UNL     1       4.401  -9.098   0.590  0.00  0.00    +0.394 N 
ATOM      3  C   UNL     1       5.680  -9.208  -0.124  0.00  0.00    -0.055 C 
ATOM      4  C   UNL     1       6.842  -9.124   0.873  0.00  0.00    +0.103 C 
ATOM      5  N   UNL     1       6.587 -10.087   1.951  0.00  0.00    -0.353 N 
ATOM      6  C   UNL     1       7.459 -10.570   2.871  0.00  0.00    +0.086 A 
ATOM      7  C   UNL     1       6.796 -11.437   3.666  0.00  0.00    +0.019 A 
ATOM      8  C   UNL     1       5.459 -11.486   3.217  0.00  0.00    +0.021 A 
ATOM      9  C   UNL     1       5.357 -10.652   2.172  0.00  0.00    +0.010 A 
ATOM     10  C   UNL     1       4.138 -10.338   1.341  0.00  0.00    +0.014 C 
ATOM     11  H   UNL     1       4.442  -8.320   1.231  0.00  0.00    -0.080 HD
BRANCH  10  12
ATOM     12  C   UNL     1       2.945 -10.143   2.241  0.00  0.00    -0.014 A 
ATOM     13  C   UNL     1       2.536  -8.867   2.581  0.00  0.00    +0.006 A 
ATOM     14  C   UNL     1       1.443  -8.688   3.408  0.00  0.00    +0.000 A 
ATOM     15  C   UNL     1       0.755  -9.784   3.896  0.00  0.00    +0.004 A 
ATOM     16  C   UNL     1       1.159 -11.061   3.559  0.00  0.00    +0.046 A 
ATOM     17  C   UNL     1       2.253 -11.243   2.725  0.00  0.00    +0.122 A 
BRANCH  17  18
ATOM     18  O   UNL     1       2.650 -12.499   2.388  0.00  0.00    -0.495 OA
ATOM     19  C   UNL     1       1.890 -13.585   2.923  0.00  0.00    +0.277 C 
ENDBRANCH  17  18
ENDBRANCH  10  12
ENDBRANCH   1   2
BRANCH   1  23
ATOM     20  C   UNL     1       3.414  -5.401  -1.498  0.00  0.00    +0.189 A 
ATOM     21  C   UNL     1       4.161  -5.974  -2.486  0.00  0.00    +0.055 A 
ATOM     22  C   UNL     1       4.225  -7.347  -2.198  0.00  0.00    +0.043 A 
ATOM     23  C   UNL     1       3.522  -7.548  -1.062  0.00  0.00    +0.090 A 
ATOM     24  O   UNL     1       3.039  -6.372  -0.640  0.00  0.00    -0.457 OA
BRANCH  20  26
ATOM     25  N   UNL     1       2.336  -3.538  -0.352  0.00  0.00    -0.311 N 
ATOM     26  C   UNL     1       3.081  -3.976  -1.385  0.00  0.00    +0.279 C 
ATOM     27  O   UNL     1       3.479  -3.191  -2.225  0.00  0.00    -0.267 OA
ATOM     28  H   UNL     1       2.019  -4.164   0.318  0.00  0.00    +0.149 HD
BRANCH  25  29
ATOM     29  C   UNL     1       2.004  -2.115  -0.240  0.00  0.00    +0.086 C 
BRANCH  29  30
ATOM     30  C   UNL     1       1.156  -1.887   1.013  0.00  0.00    -0.060 C 
BRANCH  30  31
ATOM     31  N   UNL     1       0.823  -0.461   1.126  0.00  0.00    +0.380 N 
ATOM     32  H   UNL     1       1.671   0.085   1.109  0.00  0.00    -0.082 HD
BRANCH  31  34
ATOM     33  C   UNL     1      -0.264   1.445   0.037  0.00  0.00    -0.017 C 
ATOM     34  C   UNL     1      -0.034  -0.067  -0.001  0.00  0.00    -0.082 C 
ENDBRANCH  31  34
BRANCH  31  35
ATOM     35  C   UNL     1       0.111  -0.222   2.389  0.00  0.00    -0.082 C 
ATOM     36  C   UNL     1       1.053  -0.495   3.563  0.00  0.00    -0.017 C 
ENDBRANCH  31  35
ENDBRANCH  30  31
ENDBRANCH  29  30
ENDBRANCH  25  29
ENDBRANCH  20  26
ENDBRANCH   1  23
TORSDOF 10
