REMARK  Name = ZINC08749844
REMARK  6 active torsions:
REMARK  status: ('A' for Active; 'I' for Inactive)
REMARK    1  A    between atoms: C_1  and  C_2
REMARK    2  A    between atoms: C_2  and  C_4
REMARK    3  A    between atoms: C_2  and  N_11
REMARK    4  A    between atoms: C_12  and  C_14
REMARK    5  A    between atoms: C_14  and  N_49
REMARK    6  A    between atoms: C_18  and  C_20
REMARK                            x       y       z     vdW  Elec       q    Type
REMARK                         _______ _______ _______ _____ _____    ______ ____
ROOT
ATOM      1  C   UNL     1       0.507  -2.633   1.273  0.00  0.00    -0.077 C 
ATOM      2  C   UNL     1       1.079  -4.058   1.483  0.00  0.00    -0.020 C 
ATOM      3  C   UNL     1       2.512  -3.907   0.908  0.00  0.00    -0.010 C 
ATOM      4  C   UNL     1       2.313  -2.937  -0.275  0.00  0.00    -0.011 C 
ATOM      5  N   UNL     1       1.059  -2.203  -0.025  0.00  0.00    +0.391 N 
ATOM      6  H   UNL     1       0.384  -2.419  -0.768  0.00  0.00    -0.080 HD
ENDROOT
BRANCH   4   7
ATOM      7  C   UNL     1       3.477  -1.983  -0.358  0.00  0.00    +0.066 A 
ATOM      8  N   UNL     1       3.757  -0.979   0.424  0.00  0.00    -0.246 NA
ATOM      9  C   UNL     1       4.843  -0.200   0.242  0.00  0.00    +0.078 A 
ATOM     10  C   UNL     1       5.280   0.910   0.999  0.00  0.00    +0.029 A 
ATOM     11  C   UNL     1       6.410   1.584   0.654  0.00  0.00    +0.002 A 
ATOM     12  C   UNL     1       7.173   1.213  -0.445  0.00  0.00    +0.001 A 
ATOM     13  C   UNL     1       6.779   0.133  -1.211  0.00  0.00    +0.017 A 
ATOM     14  C   UNL     1       5.639  -0.555  -0.871  0.00  0.00    +0.039 A 
ATOM     15  S   UNL     1       4.763  -1.954  -1.524  0.00  0.00    -0.074 S 
ENDBRANCH   4   7
BRANCH   5  16
ATOM     16  C   UNL     1       1.317  -0.740  -0.015  0.00  0.00    +0.019 C 
BRANCH  16  18
ATOM     17  N   UNL     1      -0.016   1.344   0.009  0.00  0.00    -0.310 N 
ATOM     18  C   UNL     1       0.002  -0.004   0.002  0.00  0.00    +0.197 C 
ATOM     19  O   UNL     1      -1.040  -0.625   0.009  0.00  0.00    -0.278 OA
ATOM     20  H   UNL     1       0.817   1.840   0.004  0.00  0.00    +0.149 HD
BRANCH  17  22
ATOM     21  C   UNL     1      -1.794   2.190   1.460  0.00  0.00    +0.033 C 
ATOM     22  C   UNL     1      -1.295   2.059   0.019  0.00  0.00    +0.100 C 
BRANCH  22  23
ATOM     23  C   UNL     1      -1.107   3.431  -0.575  0.00  0.00    -0.027 A 
ATOM     24  C   UNL     1       0.027   4.163  -0.278  0.00  0.00    +0.006 A 
ATOM     25  C   UNL     1       0.202   5.420  -0.827  0.00  0.00    +0.015 A 
ATOM     26  C   UNL     1      -0.764   5.949  -1.663  0.00  0.00    +0.018 A 
ATOM     27  C   UNL     1      -1.902   5.219  -1.955  0.00  0.00    +0.015 A 
ATOM     28  C   UNL     1      -2.073   3.960  -1.411  0.00  0.00    +0.006 A 
ATOM     29 BR   UNL     1      -0.529   7.672  -2.408  0.00  0.00    -0.050 Br
ENDBRANCH  22  23
ENDBRANCH  17  22
ENDBRANCH  16  18
ENDBRANCH   5  16
TORSDOF 5
