REMARK  Name = ZINC66727896
REMARK  10 active torsions:
REMARK  status: ('A' for Active; 'I' for Inactive)
REMARK    1  A    between atoms: C_1  and  C_2
REMARK    2  A    between atoms: C_5  and  C_8
REMARK    3  A    between atoms: C_8  and  C_9
REMARK    4  A    between atoms: C_9  and  C_10
REMARK    5  A    between atoms: C_10  and  C_11
REMARK    6  A    between atoms: C_11  and  C_12
REMARK    7  A    between atoms: C_21  and  C_23
REMARK    8  A    between atoms: C_23  and  C_24
REMARK    9  A    between atoms: C_23  and  C_25
REMARK   10  A    between atoms: C_23  and  C_26
REMARK                            x       y       z     vdW  Elec       q    Type
REMARK                         _______ _______ _______ _____ _____    ______ ____
ROOT
ATOM      1  C   UNL     1       3.542  -8.827  -1.769  0.00  0.00    +0.216 C 
ATOM      2  O   UNL     1       2.585  -9.526  -2.028  0.00  0.00    -0.276 OA
ATOM      3  N   UNL     1       4.704  -9.390  -1.384  0.00  0.00    -0.300 N 
ATOM      4  C   UNL     1       4.846 -10.800  -1.277  0.00  0.00    +0.109 C 
ATOM      5  C   UNL     1       4.350 -11.404   0.078  0.00  0.00    +0.038 C 
ATOM      6  C   UNL     1       4.741 -10.395   1.206  0.00  0.00    +0.109 C 
ATOM      7  N   UNL     1       6.004  -9.767   1.028  0.00  0.00    -0.299 N 
ATOM      8  C   UNL     1       6.007  -8.424   0.393  0.00  0.00    +0.126 C 
ATOM      9  C   UNL     1       5.896  -8.565  -1.060  0.00  0.00    +0.126 C 
ATOM     10  C   UNL     1       7.148 -10.364   1.417  0.00  0.00    +0.221 C 
ATOM     11  O   UNL     1       7.111 -11.442   1.971  0.00  0.00    -0.275 OA
ENDROOT
BRANCH  10  12
ATOM     12  C   UNL     1       8.473  -9.692   1.164  0.00  0.00    +0.039 C 
ATOM     13  C   UNL     1       9.608 -10.663   1.492  0.00  0.00    +0.020 C 
ATOM     14  C   UNL     1       8.563  -9.279  -0.306  0.00  0.00    +0.020 C 
ATOM     15  C   UNL     1       8.592  -8.450   2.050  0.00  0.00    +0.020 C 
ENDBRANCH  10  12
BRANCH   1  16
ATOM     16  C   UNL     1       3.430  -7.328  -1.878  0.00  0.00    +0.096 C 
BRANCH  16  17
ATOM     17  C   UNL     1       2.018  -6.953  -2.330  0.00  0.00    +0.009 C 
BRANCH  17  18
ATOM     18  C   UNL     1       1.905  -5.431  -2.440  0.00  0.00    +0.005 C 
BRANCH  18  19
ATOM     19  C   UNL     1       0.492  -5.056  -2.892  0.00  0.00    +0.035 C 
BRANCH  19  24
ATOM     20  C   UNL     1       0.062   0.692  -3.310  0.00  0.00    +0.044 C 
ATOM     21  C   UNL     1       0.174  -0.807  -3.201  0.00  0.00    -0.050 A 
ATOM     22  C   UNL     1       0.578  -1.552  -4.294  0.00  0.00    +0.003 A 
ATOM     23  C   UNL     1       0.681  -2.926  -4.194  0.00  0.00    +0.004 A 
ATOM     24  C   UNL     1       0.381  -3.557  -3.001  0.00  0.00    -0.047 A 
ATOM     25  C   UNL     1      -0.021  -2.813  -1.908  0.00  0.00    +0.004 A 
ATOM     26  C   UNL     1      -0.120  -1.437  -2.007  0.00  0.00    +0.003 A 
ENDBRANCH  19  24
ENDBRANCH  18  19
ENDBRANCH  17  18
ENDBRANCH  16  17
ENDBRANCH   1  16
TORSDOF 6
