REMARK  Name = ZINC14466629
REMARK  5 active torsions:
REMARK  status: ('A' for Active; 'I' for Inactive)
REMARK    1  A    between atoms: C_5  and  C_7
REMARK    2  A    between atoms: C_18  and  S_23
REMARK    3  A    between atoms: S_23  and  N_26
REMARK    4  A    between atoms: N_26  and  C_27
REMARK    5  A    between atoms: C_27  and  C_28
REMARK                            x       y       z     vdW  Elec       q    Type
REMARK                         _______ _______ _______ _____ _____    ______ ____
ROOT
ATOM      1  C   UNL     1       2.155   0.707   2.071  0.00  0.00    +0.106 C 
ATOM      2  C   UNL     1       2.316   0.620   0.550  0.00  0.00    +0.029 C 
ATOM      3  C   UNL     1       1.515   1.803  -0.069  0.00  0.00    +0.033 C 
ATOM      4  C   UNL     1       0.091   1.282  -0.105  0.00  0.00    -0.030 C 
ATOM      5  C   UNL     1       0.081  -0.029  -0.069  0.00  0.00    -0.023 C 
ATOM      6  C   UNL     1       1.493  -0.561   0.001  0.00  0.00    +0.049 C 
ATOM      7  C   UNL     1       1.576  -1.781   0.862  0.00  0.00    -0.018 A 
ATOM      8  C   UNL     1       1.095  -2.983   0.361  0.00  0.00    +0.034 A 
ATOM      9  C   UNL     1       1.153  -4.133   1.122  0.00  0.00    +0.106 A 
ATOM     10  C   UNL     1       1.694  -4.101   2.395  0.00  0.00    +0.030 A 
ATOM     11  C   UNL     1       2.175  -2.911   2.903  0.00  0.00    +0.025 A 
ATOM     12  C   UNL     1       2.115  -1.753   2.138  0.00  0.00    +0.031 A 
ATOM     13  N   UNL     1       2.605  -0.554   2.668  0.00  0.00    -0.336 N 
ATOM     14  H   UNL     1       3.227  -0.557   3.413  0.00  0.00    +0.147 HD
ENDROOT
BRANCH   1  19
ATOM     15  C   UNL     1       4.746   3.442   2.308  0.00  0.00    +0.000 A 
ATOM     16  C   UNL     1       4.513   3.935   3.579  0.00  0.00    +0.001 A 
ATOM     17  C   UNL     1       3.517   3.383   4.362  0.00  0.00    +0.020 A 
ATOM     18  C   UNL     1       2.753   2.338   3.874  0.00  0.00    +0.046 A 
ATOM     19  C   UNL     1       2.986   1.846   2.602  0.00  0.00    -0.009 A 
ATOM     20  C   UNL     1       3.986   2.395   1.822  0.00  0.00    +0.007 A 
ATOM     21 CL   UNL     1       1.501   1.645   4.857  0.00  0.00    -0.083 Cl
ENDBRANCH   1  19
BRANCH   9  22
ATOM     22  S   UNL     1       0.537  -5.649   0.469  0.00  0.00    +0.058 S 
ATOM     23  O   UNL     1       0.208  -6.468   1.584  0.00  0.00    -0.153 OA
ATOM     24  O   UNL     1      -0.414  -5.305  -0.529  0.00  0.00    -0.153 OA
BRANCH  22  25
ATOM     25  N   UNL     1       1.794  -6.394  -0.310  0.00  0.00    -0.187 NA
ATOM     26  H   UNL     1       1.758  -6.527  -1.271  0.00  0.00    +0.148 HD
BRANCH  25  27
ATOM     27  C   UNL     1       2.959  -6.851   0.450  0.00  0.00    +0.137 C 
BRANCH  27  28
ATOM     28  C   UNL     1       3.782  -7.814  -0.409  0.00  0.00    +0.134 C 
ATOM     29  C   UNL     1       4.949  -8.391   0.422  0.00  0.00    +0.035 C 
ATOM     30  C   UNL     1       6.108  -8.416  -0.610  0.00  0.00    +0.031 C 
ATOM     31  C   UNL     1       5.784  -7.154  -1.449  0.00  0.00    +0.160 C 
ATOM     32  O   UNL     1       4.349  -7.110  -1.520  0.00  0.00    -0.375 OA
ENDBRANCH  27  28
ENDBRANCH  25  27
ENDBRANCH  22  25
ENDBRANCH   9  22
TORSDOF 5
