REMARK  Name = ZINC66178384
REMARK  7 active torsions:
REMARK  status: ('A' for Active; 'I' for Inactive)
REMARK    1  A    between atoms: C_1  and  C_2
REMARK    2  A    between atoms: N_8  and  C_9
REMARK    3  A    between atoms: C_9  and  C_11
REMARK    4  A    between atoms: C_9  and  C_12
REMARK    5  A    between atoms: C_12  and  N_13
REMARK    6  A    between atoms: N_16  and  C_17
REMARK    7  A    between atoms: N_16  and  C_18
REMARK                            x       y       z     vdW  Elec       q    Type
REMARK                         _______ _______ _______ _____ _____    ______ ____
ROOT
ATOM      1  N   UNL     1      -0.661   1.951   0.864  0.00  0.00    -0.301 N 
ATOM      2  C   UNL     1      -0.974   3.202   0.472  0.00  0.00    +0.302 C 
ATOM      3  O   UNL     1      -0.575   4.157   1.110  0.00  0.00    -0.253 OA
ATOM      4  N   UNL     1      -1.729   3.394  -0.628  0.00  0.00    -0.286 N 
ATOM      5  C   UNL     1      -2.301   2.245  -1.334  0.00  0.00    +0.134 C 
ATOM      6  H   UNL     1      -0.917   1.193   0.317  0.00  0.00    +0.150 HD
ENDROOT
BRANCH   4   7
ATOM      7  C   UNL     1      -1.978   4.752  -1.118  0.00  0.00    +0.080 C 
ATOM      8  C   UNL     1      -3.483   5.028  -1.113  0.00  0.00    +0.041 C 
ATOM      9  C   UNL     1      -3.737   6.461  -1.592  0.00  0.00    +0.108 C 
ATOM     10  N   UNL     1      -3.095   6.642  -2.901  0.00  0.00    -0.317 N 
ATOM     11  C   UNL     1      -1.669   6.318  -3.039  0.00  0.00    +0.108 C 
ATOM     12  C   UNL     1      -1.438   4.887  -2.543  0.00  0.00    +0.041 C 
ATOM     13  C   UNL     1      -3.823   7.110  -3.989  0.00  0.00    +0.099 A 
ATOM     14  C   UNL     1      -3.239   7.136  -5.251  0.00  0.00    +0.042 A 
ATOM     15  C   UNL     1      -3.975   7.604  -6.324  0.00  0.00    +0.005 A 
ATOM     16  C   UNL     1      -5.276   8.034  -6.098  0.00  0.00    +0.018 A 
ATOM     17  C   UNL     1      -5.793   7.981  -4.819  0.00  0.00    +0.084 A 
ATOM     18  N   UNL     1      -5.069   7.523  -3.815  0.00  0.00    -0.350 N 
ATOM     19  H   UNL     1      -5.458   7.493  -2.927  0.00  0.00    +0.166 HD
ENDBRANCH   4   7
BRANCH   1  20
ATOM     20  C   UNL     1       0.067   1.738   2.118  0.00  0.00    +0.090 C 
BRANCH  20  21
ATOM     21  C   UNL     1       0.189   0.236   2.387  0.00  0.00    -0.054 C 
ATOM     22  C   UNL     1       1.020   0.011   3.652  0.00  0.00    -0.012 C 
BRANCH  21  29
ATOM     23  C   UNL     1      -0.526  -2.389   1.692  0.00  0.00    -0.013 C 
ATOM     24  C   UNL     1       0.894  -1.863   1.470  0.00  0.00    -0.071 C 
ATOM     25  C   UNL     1       1.506  -2.552   0.248  0.00  0.00    -0.016 C 
ATOM     26  C   UNL     1       2.927  -2.023   0.029  0.00  0.00    -0.003 C 
ATOM     27  C   UNL     1       2.875  -0.501  -0.128  0.00  0.00    -0.019 C 
ATOM     28  C   UNL     1       2.212   0.112   1.108  0.00  0.00    -0.078 C 
ATOM     29  N   UNL     1       0.849  -0.413   1.246  0.00  0.00    +0.384 N 
ATOM     30  H   UNL     1       0.327  -0.220   0.404  0.00  0.00    -0.081 HD
ENDBRANCH  21  29
ENDBRANCH  20  21
ENDBRANCH   1  20
TORSDOF 4
