REMARK  Name = ZINC13643477
REMARK  5 active torsions:
REMARK  status: ('A' for Active; 'I' for Inactive)
REMARK    1  A    between atoms: C_1  and  N_2
REMARK    2  A    between atoms: N_2  and  C_3
REMARK    3  A    between atoms: N_2  and  C_4
REMARK    4  A    between atoms: C_7  and  C_10
REMARK    5  A    between atoms: C_21  and  C_26
REMARK                            x       y       z     vdW  Elec       q    Type
REMARK                         _______ _______ _______ _____ _____    ______ ____
ROOT
ATOM      1  C   UNL     1       3.617   0.888  -0.370  0.00  0.00    +0.105 C 
ATOM      2  C   UNL     1       2.159   0.678  -0.737  0.00  0.00    +0.029 C 
ATOM      3  C   UNL     1       1.434  -0.504  -0.080  0.00  0.00    +0.033 C 
ATOM      4  C   UNL     1      -0.008   0.004  -0.038  0.00  0.00    -0.030 C 
ATOM      5  C   UNL     1      -0.022   1.332  -0.022  0.00  0.00    -0.023 C 
ATOM      6  C   UNL     1       1.381   1.820  -0.016  0.00  0.00    +0.049 C 
ATOM      7  C   UNL     1       1.766   3.100  -0.651  0.00  0.00    -0.018 A 
ATOM      8  C   UNL     1       0.886   4.144  -0.792  0.00  0.00    +0.025 A 
ATOM      9  C   UNL     1       1.307   5.346  -1.369  0.00  0.00    +0.052 A 
ATOM     10  C   UNL     1       2.629   5.479  -1.802  0.00  0.00    +0.020 A 
ATOM     11  C   UNL     1       3.506   4.429  -1.665  0.00  0.00    +0.024 A 
ATOM     12  C   UNL     1       3.090   3.228  -1.096  0.00  0.00    +0.031 A 
ATOM     13  N   UNL     1       4.001   2.177  -0.986  0.00  0.00    -0.336 N 
ATOM     14  H   UNL     1       4.904   2.293  -1.321  0.00  0.00    +0.147 HD
ENDROOT
BRANCH   1  18
ATOM     15  C   UNL     1       6.010  -2.278  -1.955  0.00  0.00    +0.029 A 
ATOM     16  C   UNL     1       5.630  -2.295  -0.619  0.00  0.00    +0.023 A 
ATOM     17  C   UNL     1       4.857  -1.270  -0.110  0.00  0.00    +0.007 A 
ATOM     18  C   UNL     1       4.461  -0.228  -0.929  0.00  0.00    -0.027 A 
ATOM     19  C   UNL     1       4.833  -0.211  -2.260  0.00  0.00    +0.007 A 
ATOM     20  C   UNL     1       5.611  -1.230  -2.774  0.00  0.00    +0.023 A 
BRANCH  15  22
ATOM     21  C   UNL     1       7.318  -4.351  -1.582  0.00  0.00    +0.129 C 
ATOM     22  N   UNL     1       6.793  -3.313  -2.473  0.00  0.00    -0.336 N 
ATOM     23  C   UNL     1       7.088  -3.361  -3.907  0.00  0.00    +0.129 C 
ENDBRANCH  15  22
ENDBRANCH   1  18
BRANCH   9  24
ATOM     24  C   UNL     1       0.388   6.435  -1.515  0.00  0.00    +0.099 C 
ATOM     25  N   UNL     1      -0.341   7.298  -1.632  0.00  0.00    -0.191 NA
ENDBRANCH   9  24
TORSDOF 3
