REMARK  Name = ZINC09926145
REMARK  6 active torsions:
REMARK  status: ('A' for Active; 'I' for Inactive)
REMARK    1  A    between atoms: C_10  and  C_11
REMARK    2  A    between atoms: C_11  and  C_13
REMARK    3  A    between atoms: C_13  and  C_14
REMARK    4  A    between atoms: C_14  and  O_31
REMARK    5  A    between atoms: N_21  and  C_24
REMARK    6  A    between atoms: C_24  and  C_25
REMARK                            x       y       z     vdW  Elec       q    Type
REMARK                         _______ _______ _______ _____ _____    ______ ____
ROOT
ATOM      1  C   UNL     1       4.723   5.867   0.078  0.00  0.00    +0.175 C 
ATOM      2  C   UNL     1       6.016   6.623   0.277  0.00  0.00    +0.016 A 
ATOM      3  C   UNL     1       7.185   6.687  -0.448  0.00  0.00    +0.024 A 
ATOM      4  C   UNL     1       8.226   7.487  -0.010  0.00  0.00    +0.018 A 
ATOM      5  C   UNL     1       8.088   8.220   1.155  0.00  0.00    +0.017 A 
ATOM      6  C   UNL     1       6.918   8.157   1.883  0.00  0.00    +0.025 A 
ATOM      7  C   UNL     1       5.865   7.354   1.448  0.00  0.00    +0.043 A 
ATOM      8  N   UNL     1       4.603   7.126   2.000  0.00  0.00    -0.264 N 
ATOM      9  C   UNL     1       3.873   6.271   1.263  0.00  0.00    +0.257 C 
ATOM     10  O   UNL     1       2.746   5.895   1.504  0.00  0.00    -0.272 OA
ATOM     11 BR   UNL     1       9.834   7.579  -1.002  0.00  0.00    -0.050 Br
ENDROOT
BRANCH   1  12
ATOM     12  O   UNL     1       4.095   6.257  -1.145  0.00  0.00    -0.374 OA
ATOM     13  H   UNL     1       3.246   5.823  -1.307  0.00  0.00    +0.211 HD
ENDBRANCH   1  12
BRANCH   1  14
ATOM     14  C   UNL     1       4.977   4.358   0.091  0.00  0.00    +0.129 C 
BRANCH  14  15
ATOM     15  C   UNL     1       3.664   3.626  -0.013  0.00  0.00    +0.167 C 
ATOM     16  O   UNL     1       2.627   4.250  -0.091  0.00  0.00    -0.292 OA
BRANCH  15  26
ATOM     17  C   UNL     1       0.003  -0.004   0.042  0.00  0.00    +0.001 A 
ATOM     18  C   UNL     1      -0.016   1.388   0.050  0.00  0.00    +0.001 A 
ATOM     19  C   UNL     1       1.144   2.104   0.030  0.00  0.00    +0.009 A 
ATOM     20  C   UNL     1       2.371   1.433   0.001  0.00  0.00    -0.007 A 
ATOM     21  C   UNL     1       2.394   0.017  -0.008  0.00  0.00    -0.017 A 
ATOM     22  C   UNL     1       1.179  -0.690   0.013  0.00  0.00    +0.008 A 
ATOM     23  C   UNL     1       3.628  -0.654  -0.038  0.00  0.00    +0.008 A 
ATOM     24  C   UNL     1       4.799   0.043  -0.059  0.00  0.00    +0.001 A 
ATOM     25  C   UNL     1       4.825   1.429  -0.052  0.00  0.00    +0.012 A 
ATOM     26  C   UNL     1       3.640   2.160  -0.022  0.00  0.00    +0.025 A 
ENDBRANCH  15  26
ENDBRANCH  14  15
ENDBRANCH   1  14
BRANCH   8  27
ATOM     27  C   UNL     1       4.129   7.748   3.238  0.00  0.00    +0.156 C 
BRANCH  27  28
ATOM     28  C   UNL     1       4.489   6.872   4.410  0.00  0.00    +0.007 A 
ATOM     29  C   UNL     1       5.613   6.879   5.168  0.00  0.00    +0.013 A 
ATOM     30  C   UNL     1       5.726   5.975   6.207  0.00  0.00    +0.008 A 
ATOM     31  C   UNL     1       4.714   5.102   6.432  0.00  0.00    +0.045 A 
ATOM     32  S   UNL     1       3.549   5.551   5.157  0.00  0.00    -0.100 S 
ENDBRANCH  27  28
ENDBRANCH   8  27
TORSDOF 6
