REMARK  Name = ZINC09601198
REMARK  11 active torsions:
REMARK  status: ('A' for Active; 'I' for Inactive)
REMARK    1  A    between atoms: C_1  and  C_2
REMARK    2  A    between atoms: C_5  and  C_8
REMARK    3  A    between atoms: N_10  and  C_11
REMARK    4  A    between atoms: C_11  and  C_13
REMARK    5  A    between atoms: C_11  and  C_14
REMARK    6  A    between atoms: C_17  and  S_20
REMARK    7  A    between atoms: N_18  and  C_19
REMARK    8  A    between atoms: S_20  and  C_21
REMARK    9  A    between atoms: C_21  and  C_22
REMARK   10  A    between atoms: N_24  and  C_25
REMARK   11  A    between atoms: C_26  and  C_34
REMARK                            x       y       z     vdW  Elec       q    Type
REMARK                         _______ _______ _______ _____ _____    ______ ____
ROOT
ATOM      1  C   UNL     1      -2.406   5.554  -0.557  0.00  0.00    +0.154 A 
ATOM      2  N   UNL     1      -1.435   6.382  -0.292  0.00  0.00    -0.132 NA
ATOM      3  N   UNL     1      -1.576   7.461  -0.976  0.00  0.00    -0.122 NA
ATOM      4  C   UNL     1      -2.660   7.383  -1.714  0.00  0.00    +0.192 A 
ATOM      5  N   UNL     1      -3.223   6.163  -1.469  0.00  0.00    -0.308 N 
ATOM      6  C   UNL     1      -4.449   5.621  -2.060  0.00  0.00    +0.152 C 
ENDROOT
BRANCH   1   7
ATOM      7  C   UNL     1      -2.597   4.183   0.037  0.00  0.00    +0.138 C 
ATOM      8  C   UNL     1      -3.096   4.315   1.477  0.00  0.00    +0.036 C 
BRANCH   7  11
ATOM      9  C   UNL     1      -1.305   2.116   0.020  0.00  0.00    +0.245 C 
ATOM     10  O   UNL     1      -2.351   1.497   0.021  0.00  0.00    -0.270 OA
ATOM     11  N   UNL     1      -1.320   3.464   0.027  0.00  0.00    -0.302 N 
ATOM     12  H   UNL     1      -0.486   3.958   0.026  0.00  0.00    +0.150 HD
BRANCH   9  17
ATOM     13  C   UNL     1       3.710  -0.705  -0.038  0.00  0.00    +0.044 C 
ATOM     14  C   UNL     1       2.396   0.034  -0.021  0.00  0.00    -0.050 A 
ATOM     15  C   UNL     1       1.208  -0.674  -0.013  0.00  0.00    +0.004 A 
ATOM     16  C   UNL     1       0.002  -0.004   0.002  0.00  0.00    +0.013 A 
ATOM     17  C   UNL     1      -0.017   1.391   0.010  0.00  0.00    +0.037 A 
ATOM     18  C   UNL     1       1.186   2.100   0.002  0.00  0.00    +0.013 A 
ATOM     19  C   UNL     1       2.385   1.417  -0.013  0.00  0.00    +0.004 A 
ENDBRANCH   9  17
ENDBRANCH   7  11
ENDBRANCH   1   7
BRANCH   4  20
ATOM     20  S   UNL     1      -3.271   8.618  -2.812  0.00  0.00    -0.077 S 
BRANCH  20  21
ATOM     21  C   UNL     1      -2.008   9.894  -2.584  0.00  0.00    +0.173 C 
BRANCH  21  22
ATOM     22  C   UNL     1      -2.333  11.083  -3.451  0.00  0.00    +0.228 C 
ATOM     23  O   UNL     1      -3.321  11.069  -4.154  0.00  0.00    -0.275 OA
ATOM     24  N   UNL     1      -1.525  12.162  -3.445  0.00  0.00    -0.278 N 
ATOM     25  H   UNL     1      -0.735  12.173  -2.883  0.00  0.00    +0.155 HD
BRANCH  24  26
ATOM     26  C   UNL     1      -1.825  13.257  -4.244  0.00  0.00    +0.090 A 
ATOM     27  C   UNL     1      -1.126  14.449  -4.369  0.00  0.00    +0.084 A 
ATOM     28  C   UNL     1      -1.654  15.444  -5.286  0.00  0.00    -0.018 A 
ATOM     29  C   UNL     1      -2.796  15.094  -5.920  0.00  0.00    -0.004 A 
ATOM     30  S   UNL     1      -3.165  13.470  -5.321  0.00  0.00    -0.077 S 
ATOM     31  C   UNL     1      -3.567  15.913  -6.909  0.00  0.00    +0.043 C 
ATOM     32  C   UNL     1      -3.076  17.365  -6.821  0.00  0.00    +0.005 C 
ATOM     33  C   UNL     1      -1.544  17.371  -6.847  0.00  0.00    +0.005 C 
ATOM     34  C   UNL     1      -1.000  16.797  -5.538  0.00  0.00    +0.037 C 
BRANCH  27  35
ATOM     35  C   UNL     1       0.074  14.688  -3.625  0.00  0.00    +0.102 C 
ATOM     36  N   UNL     1       1.026  14.877  -3.035  0.00  0.00    -0.191 NA
ENDBRANCH  27  35
ENDBRANCH  24  26
ENDBRANCH  21  22
ENDBRANCH  20  21
ENDBRANCH   4  20
TORSDOF 8
