REMARK  Name = ZINC35703471
REMARK  12 active torsions:
REMARK  status: ('A' for Active; 'I' for Inactive)
REMARK    1  A    between atoms: C_1  and  N_2
REMARK    2  A    between atoms: N_2  and  C_3
REMARK    3  A    between atoms: N_2  and  C_4
REMARK    4  A    between atoms: C_4  and  C_5
REMARK    5  A    between atoms: C_5  and  N_6
REMARK    6  A    between atoms: N_6  and  C_7
REMARK    7  A    between atoms: C_7  and  C_8
REMARK    8  A    between atoms: C_13  and  C_24
REMARK    9  A    between atoms: N_15  and  C_16
REMARK   10  A    between atoms: C_19  and  O_22
REMARK   11  A    between atoms: O_22  and  C_23
REMARK   12  A    between atoms: C_31  and  C_33
REMARK                            x       y       z     vdW  Elec       q    Type
REMARK                         _______ _______ _______ _____ _____    ______ ____
ROOT
ATOM      1  C   UNL     1      -3.083  -5.084  -1.213  0.00  0.00    +0.237 C 
ATOM      2  O   UNL     1      -2.523  -5.634  -0.288  0.00  0.00    -0.274 OA
ATOM      3  N   UNL     1      -3.590  -5.816  -2.225  0.00  0.00    -0.254 N 
ATOM      4  C   UNL     1      -3.472  -7.200  -2.209  0.00  0.00    +0.207 A 
ATOM      5  N   UNL     1      -2.897  -7.906  -1.267  0.00  0.00    -0.214 NA
ATOM      6  C   UNL     1      -2.970  -9.216  -1.585  0.00  0.00    +0.091 A 
ATOM      7  C   UNL     1      -3.617  -9.324  -2.773  0.00  0.00    +0.122 A 
ATOM      8  N   UNL     1      -3.940  -8.049  -3.167  0.00  0.00    -0.287 N 
ATOM      9  H   UNL     1      -4.038  -5.376  -2.965  0.00  0.00    +0.158 HD
ENDROOT
BRANCH   6  10
ATOM     10  C   UNL     1      -2.437 -10.340  -0.777  0.00  0.00    +0.002 A 
ATOM     11  C   UNL     1      -2.575 -11.652  -1.228  0.00  0.00    +0.011 A 
ATOM     12  C   UNL     1      -2.077 -12.694  -0.473  0.00  0.00    +0.020 A 
ATOM     13  C   UNL     1      -1.441 -12.438   0.730  0.00  0.00    +0.041 A 
ATOM     14  C   UNL     1      -1.301 -11.137   1.181  0.00  0.00    +0.020 A 
ATOM     15  C   UNL     1      -1.790 -10.088   0.431  0.00  0.00    +0.011 A 
ATOM     16 CL   UNL     1      -0.818 -13.754   1.676  0.00  0.00    -0.084 Cl
ENDBRANCH   6  10
BRANCH   8  17
ATOM     17  C   UNL     1      -4.622  -7.686  -4.339  0.00  0.00    +0.049 A 
ATOM     18  C   UNL     1      -5.705  -6.821  -4.273  0.00  0.00    +0.030 A 
ATOM     19  C   UNL     1      -6.375  -6.465  -5.427  0.00  0.00    +0.047 A 
ATOM     20  C   UNL     1      -5.966  -6.972  -6.652  0.00  0.00    +0.120 A 
ATOM     21  C   UNL     1      -4.883  -7.837  -6.718  0.00  0.00    +0.047 A 
ATOM     22  C   UNL     1      -4.210  -8.190  -5.566  0.00  0.00    +0.030 A 
BRANCH  20  23
ATOM     23  O   UNL     1      -6.626  -6.621  -7.787  0.00  0.00    -0.495 OA
ATOM     24  C   UNL     1      -6.151  -7.180  -9.013  0.00  0.00    +0.277 C 
ENDBRANCH  20  23
ENDBRANCH   8  17
BRANCH   1  25
ATOM     25  C   UNL     1      -3.211  -3.583  -1.231  0.00  0.00    +0.203 C 
BRANCH  25  26
ATOM     26  N   UNL     1      -2.585  -3.025  -0.030  0.00  0.00    -0.294 N 
ATOM     27  C   UNL     1      -3.326  -2.796   1.072  0.00  0.00    +0.219 C 
ATOM     28  O   UNL     1      -2.831  -2.244   2.032  0.00  0.00    -0.275 OA
BRANCH  27  29
ATOM     29  C   UNL     1      -4.770  -3.225   1.111  0.00  0.00    +0.075 C 
ATOM     30  C   UNL     1      -5.681  -2.054   0.691  0.00  0.00    +0.013 C 
ATOM     31  C   UNL     1      -6.925  -2.194   1.604  0.00  0.00    +0.001 C 
ATOM     32  C   UNL     1      -6.310  -2.642   2.953  0.00  0.00    +0.001 C 
ATOM     33  C   UNL     1      -5.169  -3.599   2.550  0.00  0.00    +0.013 C 
ENDBRANCH  27  29
BRANCH  26  34
ATOM     34  C   UNL     1      -1.153  -2.716  -0.027  0.00  0.00    +0.090 C 
BRANCH  34  35
ATOM     35  C   UNL     1      -0.942  -1.271  -0.484  0.00  0.00    -0.060 C 
BRANCH  35  37
ATOM     36  C   UNL     1       0.707   0.383  -1.032  0.00  0.00    -0.097 C 
ATOM     37  N   UNL     1       0.494  -0.962  -0.481  0.00  0.00    +0.377 N 
ATOM     38  C   UNL     1       1.003  -1.012   0.896  0.00  0.00    -0.097 C 
ATOM     39  H   UNL     1       0.986  -1.638  -1.046  0.00  0.00    -0.083 HD
ENDBRANCH  35  37
ENDBRANCH  34  35
ENDBRANCH  26  34
ENDBRANCH  25  26
ENDBRANCH   1  25
TORSDOF 9
