REMARK  Name = ZINC67075769
REMARK  9 active torsions:
REMARK  status: ('A' for Active; 'I' for Inactive)
REMARK    1  A    between atoms: C_1  and  C_2
REMARK    2  A    between atoms: N_10  and  C_13
REMARK    3  A    between atoms: C_13  and  C_15
REMARK    4  A    between atoms: C_13  and  C_16
REMARK    5  A    between atoms: N_18  and  C_19
REMARK    6  A    between atoms: C_19  and  C_21
REMARK    7  A    between atoms: C_19  and  C_22
REMARK    8  A    between atoms: C_24  and  C_28
REMARK    9  A    between atoms: C_26  and  C_27
REMARK                            x       y       z     vdW  Elec       q    Type
REMARK                         _______ _______ _______ _____ _____    ______ ____
ROOT
ATOM      1  C   UNL     1       0.087  -5.607   2.373  0.00  0.00    +0.167 C 
ATOM      2  C   UNL     1      -1.153  -6.422   2.002  0.00  0.00    +0.038 C 
ENDROOT
BRANCH   1  12
ATOM      3  C   UNL     1      -0.018   1.503   0.010  0.00  0.00    +0.044 C 
ATOM      4  C   UNL     1       0.002  -0.004   0.002  0.00  0.00    -0.050 A 
ATOM      5  C   UNL     1       0.006  -0.684  -1.202  0.00  0.00    +0.004 A 
ATOM      6  C   UNL     1       0.024  -2.070  -1.226  0.00  0.00    +0.014 A 
ATOM      7  C   UNL     1       0.039  -2.777  -0.035  0.00  0.00    +0.049 A 
ATOM      8  C   UNL     1       0.036  -2.084   1.192  0.00  0.00    +0.050 A 
ATOM      9  C   UNL     1       0.023  -0.699   1.201  0.00  0.00    +0.017 A 
ATOM     10  C   UNL     1       0.054  -3.123   2.244  0.00  0.00    +0.254 C 
ATOM     11  O   UNL     1       0.057  -2.920   3.441  0.00  0.00    -0.270 OA
ATOM     12  N   UNL     1       0.067  -4.331   1.652  0.00  0.00    -0.222 N 
ATOM     13  C   UNL     1       0.059  -4.214   0.312  0.00  0.00    +0.254 C 
ATOM     14  O   UNL     1       0.067  -5.135  -0.480  0.00  0.00    -0.270 OA
ENDBRANCH   1  12
BRANCH   1  15
ATOM     15  C   UNL     1       1.326  -6.378   1.995  0.00  0.00    +0.234 C 
ATOM     16  O   UNL     1       2.114  -5.908   1.202  0.00  0.00    -0.274 OA
ATOM     17  N   UNL     1       1.558  -7.589   2.538  0.00  0.00    -0.307 N 
ATOM     18  H   UNL     1       0.927  -7.965   3.172  0.00  0.00    +0.149 HD
BRANCH  17  19
ATOM     19  C   UNL     1       2.762  -8.338   2.170  0.00  0.00    +0.103 C 
ATOM     20  C   UNL     1       2.500  -9.127   0.886  0.00  0.00    +0.033 C 
BRANCH  19  21
ATOM     21  C   UNL     1       3.119  -9.292   3.281  0.00  0.00    +0.013 A 
ATOM     22  C   UNL     1       2.234  -9.840   4.238  0.00  0.00    +0.050 A 
ATOM     23  C   UNL     1       2.967 -10.636   5.037  0.00  0.00    +0.103 A 
ATOM     24  O   UNL     1       4.243 -10.598   4.617  0.00  0.00    -0.465 OA
ATOM     25  C   UNL     1       4.340  -9.789   3.550  0.00  0.00    +0.107 A 
ATOM     26  C   UNL     1       5.602  -9.486   2.785  0.00  0.00    +0.086 C 
ATOM     27  C   UNL     1       2.447 -11.434   6.204  0.00  0.00    +0.086 C 
ENDBRANCH  19  21
ENDBRANCH  17  19
ENDBRANCH   1  15
TORSDOF 4
