REMARK  Name = ZINC09642829
REMARK  7 active torsions:
REMARK  status: ('A' for Active; 'I' for Inactive)
REMARK    1  A    between atoms: C_1  and  C_2
REMARK    2  A    between atoms: C_2  and  C_4
REMARK    3  A    between atoms: C_2  and  C_29
REMARK    4  A    between atoms: C_4  and  N_5
REMARK    5  A    between atoms: C_6  and  C_8
REMARK    6  A    between atoms: C_8  and  C_9
REMARK    7  A    between atoms: C_12  and  N_15
REMARK                            x       y       z     vdW  Elec       q    Type
REMARK                         _______ _______ _______ _____ _____    ______ ____
ROOT
ATOM      1  C   UNL     1       3.357  -2.152  -5.234  0.00  0.00    -0.039 A 
ATOM      2  C   UNL     1       2.181  -1.439  -5.370  0.00  0.00    +0.006 A 
ATOM      3  C   UNL     1       1.746  -0.619  -4.347  0.00  0.00    +0.023 A 
ATOM      4  C   UNL     1       2.493  -0.511  -3.181  0.00  0.00    +0.035 A 
ATOM      5  C   UNL     1       3.677  -1.224  -3.050  0.00  0.00    +0.023 A 
ATOM      6  C   UNL     1       4.103  -2.047  -4.074  0.00  0.00    +0.006 A 
ENDROOT
BRANCH   4   7
ATOM      7  N   UNL     1       2.055   0.320  -2.143  0.00  0.00    -0.269 N 
ATOM      8  C   UNL     1       0.738   0.450  -1.893  0.00  0.00    +0.311 C 
ATOM      9  O   UNL     1      -0.075  -0.088  -2.621  0.00  0.00    -0.252 OA
ATOM     10  N   UNL     1       0.320   1.175  -0.837  0.00  0.00    -0.255 N 
ATOM     11  C   UNL     1      -1.114   1.331  -0.544  0.00  0.00    +0.115 C 
ATOM     12  C   UNL     1      -1.554   0.322   0.490  0.00  0.00    +0.020 C 
ATOM     13  C   UNL     1      -0.891   0.511   1.848  0.00  0.00    +0.006 C 
ATOM     14  C   UNL     1       0.591   0.156   1.792  0.00  0.00    +0.037 C 
ATOM     15  C   UNL     1       1.377   1.367   1.321  0.00  0.00    -0.026 A 
ATOM     16  C   UNL     1       1.236   1.802   0.015  0.00  0.00    +0.041 A 
ATOM     17  C   UNL     1       1.985   2.881  -0.437  0.00  0.00    +0.024 A 
ATOM     18  C   UNL     1       2.863   3.513   0.422  0.00  0.00    +0.002 A 
ATOM     19  C   UNL     1       2.981   3.089   1.733  0.00  0.00    +0.000 A 
ATOM     20  C   UNL     1       2.236   2.012   2.184  0.00  0.00    +0.005 A 
ATOM     21  H   UNL     1       2.701   0.802  -1.603  0.00  0.00    +0.156 HD
ENDBRANCH   4   7
BRANCH   1  22
ATOM     22  C   UNL     1       3.829  -3.046  -6.352  0.00  0.00    +0.130 C 
BRANCH  22  24
ATOM     23  N   UNL     1       5.248  -2.856  -8.369  0.00  0.00    -0.314 N 
ATOM     24  C   UNL     1       4.708  -2.258  -7.288  0.00  0.00    +0.217 C 
ATOM     25  O   UNL     1       4.931  -1.086  -7.069  0.00  0.00    -0.275 OA
ATOM     26  H   UNL     1       5.070  -3.793  -8.544  0.00  0.00    +0.149 HD
BRANCH  23  27
ATOM     27  C   UNL     1       6.104  -2.090  -9.279  0.00  0.00    +0.112 C 
BRANCH  27  29
ATOM     28  C   UNL     1       5.382  -3.434 -11.258  0.00  0.00    +0.014 C 
ATOM     29  C   UNL     1       6.582  -2.997 -10.414  0.00  0.00    +0.033 C 
BRANCH  29  30
ATOM     30  C   UNL     1       7.558  -2.245 -11.281  0.00  0.00    -0.043 A 
ATOM     31  C   UNL     1       7.161  -1.090 -11.928  0.00  0.00    +0.004 A 
ATOM     32  C   UNL     1       8.058  -0.398 -12.720  0.00  0.00    +0.000 A 
ATOM     33  C   UNL     1       9.350  -0.866 -12.872  0.00  0.00    +0.000 A 
ATOM     34  C   UNL     1       9.746  -2.023 -12.229  0.00  0.00    +0.000 A 
ATOM     35  C   UNL     1       8.850  -2.713 -11.434  0.00  0.00    +0.004 A 
ENDBRANCH  29  30
ENDBRANCH  27  29
ENDBRANCH  23  27
ENDBRANCH  22  24
ENDBRANCH   1  22
TORSDOF 6
