REMARK  Name = ZINC15981630
REMARK  9 active torsions:
REMARK  status: ('A' for Active; 'I' for Inactive)
REMARK    1  A    between atoms: C_4  and  N_18
REMARK    2  A    between atoms: C_5  and  C_7
REMARK    3  A    between atoms: C_7  and  O_9
REMARK    4  A    between atoms: O_9  and  C_10
REMARK    5  A    between atoms: C_10  and  C_11
REMARK    6  A    between atoms: N_18  and  S_19
REMARK    7  A    between atoms: S_19  and  C_22
REMARK    8  A    between atoms: C_25  and  O_31
REMARK    9  A    between atoms: C_26  and  N_28
REMARK                            x       y       z     vdW  Elec       q    Type
REMARK                         _______ _______ _______ _____ _____    ______ ____
ROOT
ATOM      1  C   UNL     1      -0.017   1.373   0.010  0.00  0.00    +0.001 A 
ATOM      2  C   UNL     1       1.170   2.090   0.002  0.00  0.00    +0.002 A 
ATOM      3  C   UNL     1       2.383   1.433  -0.013  0.00  0.00    +0.027 A 
ATOM      4  C   UNL     1       2.423   0.044  -0.021  0.00  0.00    +0.088 A 
ATOM      5  C   UNL     1       1.223  -0.685  -0.013  0.00  0.00    +0.083 A 
ATOM      6  C   UNL     1       0.002  -0.004   0.002  0.00  0.00    +0.017 A 
ENDROOT
BRANCH   5   7
ATOM      7  C   UNL     1       1.250  -2.157  -0.022  0.00  0.00    +0.341 C 
ATOM      8  O   UNL     1       2.314  -2.745  -0.036  0.00  0.00    -0.245 OA
BRANCH   7   9
ATOM      9  O   UNL     1       0.096  -2.853  -0.015  0.00  0.00    -0.456 OA
BRANCH   9  10
ATOM     10  C   UNL     1       0.198  -4.278  -0.024  0.00  0.00    +0.268 C 
BRANCH  10  11
ATOM     11  C   UNL     1      -1.184  -4.880  -0.014  0.00  0.00    -0.010 A 
ATOM     12  C   UNL     1      -1.808  -5.158   1.188  0.00  0.00    +0.008 A 
ATOM     13  C   UNL     1      -3.075  -5.710   1.198  0.00  0.00    +0.015 A 
ATOM     14  C   UNL     1      -3.719  -5.984   0.005  0.00  0.00    +0.018 A 
ATOM     15  C   UNL     1      -3.094  -5.706  -1.198  0.00  0.00    +0.015 A 
ATOM     16  C   UNL     1      -1.829  -5.149  -1.206  0.00  0.00    +0.008 A 
ATOM     17 BR   UNL     1      -5.452  -6.739   0.017  0.00  0.00    -0.050 Br
ENDBRANCH  10  11
ENDBRANCH   9  10
ENDBRANCH   7   9
ENDBRANCH   5   7
BRANCH   4  18
ATOM     18  N   UNL     1       3.643  -0.619  -0.037  0.00  0.00    -0.097 NA
BRANCH  18  19
ATOM     19  S   UNL     1       5.055   0.246  -0.046  0.00  0.00    +0.092 S 
ATOM     20  O   UNL     1       5.101   0.934  -1.288  0.00  0.00    -0.148 OA
ATOM     21  O   UNL     1       5.126   0.921   1.202  0.00  0.00    -0.148 OA
BRANCH  19  22
ATOM     22  C   UNL     1       6.378  -0.918  -0.065  0.00  0.00    +0.113 A 
ATOM     23  C   UNL     1       6.904  -1.385   1.125  0.00  0.00    +0.032 A 
ATOM     24  C   UNL     1       7.941  -2.297   1.113  0.00  0.00    +0.049 A 
ATOM     25  C   UNL     1       8.454  -2.745  -0.096  0.00  0.00    +0.147 A 
ATOM     26  C   UNL     1       7.925  -2.276  -1.289  0.00  0.00    +0.169 A 
ATOM     27  C   UNL     1       6.884  -1.367  -1.271  0.00  0.00    +0.065 A 
BRANCH  26  28
ATOM     28  N   UNL     1       8.470  -2.752  -2.580  0.00  0.00    +0.060 N 
ATOM     29  O   UNL     1       8.008  -2.343  -3.619  0.00  0.00    -0.126 OA
ATOM     30  O   UNL     1       9.378  -3.550  -2.595  0.00  0.00    -0.126 OA
ENDBRANCH  26  28
BRANCH  25  31
ATOM     31  O   UNL     1       9.475  -3.643  -0.111  0.00  0.00    -0.504 OA
ATOM     32  H   UNL     1       9.187  -4.566  -0.117  0.00  0.00    +0.292 HD
ENDBRANCH  25  31
ENDBRANCH  19  22
ENDBRANCH  18  19
ENDBRANCH   4  18
TORSDOF 9
