REMARK  Name = ZINC00313630
REMARK  6 active torsions:
REMARK  status: ('A' for Active; 'I' for Inactive)
REMARK    1  A    between atoms: C_1  and  C_2
REMARK    2  A    between atoms: C_5  and  C_25
REMARK    3  A    between atoms: C_6  and  C_8
REMARK    4  A    between atoms: C_11  and  C_12
REMARK    5  A    between atoms: C_14  and  N_19
REMARK    6  A    between atoms: C_17  and  C_18
REMARK                            x       y       z     vdW  Elec       q    Type
REMARK                         _______ _______ _______ _____ _____    ______ ____
ROOT
ATOM      1  C   UNL     1       1.289   1.768  -0.528  0.00  0.00    +0.140 C 
ATOM      2  C   UNL     1       2.195   0.781  -0.368  0.00  0.00    +0.062 C 
ATOM      3  C   UNL     1       1.434  -0.479  -0.311  0.00  0.00    +0.063 C 
ATOM      4  C   UNL     1       1.926  -1.758  -0.157  0.00  0.00    +0.023 C 
ATOM      5  C   UNL     1       0.025  -0.061  -0.458  0.00  0.00    +0.345 C 
ATOM      6  O   UNL     1      -0.951  -0.786  -0.467  0.00  0.00    -0.245 OA
ATOM      7  O   UNL     1       0.034   1.278  -0.580  0.00  0.00    -0.422 OA
ENDROOT
BRANCH   1  13
ATOM      8  C   UNL     1       3.618   5.796   1.272  0.00  0.00    +0.044 C 
ATOM      9  C   UNL     1       2.748   5.144   0.229  0.00  0.00    -0.050 A 
ATOM     10  C   UNL     1       2.264   5.889  -0.832  0.00  0.00    +0.003 A 
ATOM     11  C   UNL     1       1.464   5.299  -1.794  0.00  0.00    +0.004 A 
ATOM     12  C   UNL     1       1.143   3.960  -1.702  0.00  0.00    -0.040 A 
ATOM     13  C   UNL     1       1.628   3.201  -0.634  0.00  0.00    +0.021 A 
ATOM     14  C   UNL     1       2.431   3.806   0.337  0.00  0.00    +0.015 A 
ATOM     15  C   UNL     1       0.272   3.318  -2.750  0.00  0.00    +0.044 C 
ENDBRANCH   1  13
BRANCH   4  16
ATOM     16  C   UNL     1       1.003  -2.880   0.044  0.00  0.00    -0.019 A 
ATOM     17  C   UNL     1      -0.160  -2.707   0.807  0.00  0.00    +0.041 A 
ATOM     18  C   UNL     1      -1.022  -3.766   0.991  0.00  0.00    +0.127 A 
ATOM     19  C   UNL     1      -0.742  -4.998   0.424  0.00  0.00    +0.033 A 
ATOM     20  C   UNL     1       0.404  -5.178  -0.331  0.00  0.00    +0.006 A 
ATOM     21  C   UNL     1       1.275  -4.128  -0.529  0.00  0.00    -0.043 A 
ATOM     22  C   UNL     1       2.520  -4.325  -1.356  0.00  0.00    +0.044 C 
BRANCH  18  23
ATOM     23  N   UNL     1      -2.251  -3.586   1.796  0.00  0.00    +0.056 N 
ATOM     24  O   UNL     1      -2.498  -2.503   2.295  0.00  0.00    -0.126 OA
ATOM     25  O   UNL     1      -3.014  -4.521   1.960  0.00  0.00    -0.126 OA
ENDBRANCH  18  23
ENDBRANCH   4  16
TORSDOF 3
