REMARK  Name = ZINC02792592
REMARK  7 active torsions:
REMARK  status: ('A' for Active; 'I' for Inactive)
REMARK    1  A    between atoms: C_1  and  C_2
REMARK    2  A    between atoms: C_5  and  N_8
REMARK    3  A    between atoms: C_9  and  C_14
REMARK    4  A    between atoms: C_20  and  C_29
REMARK    5  A    between atoms: C_23  and  C_25
REMARK    6  A    between atoms: C_32  and  O_35
REMARK    7  A    between atoms: O_35  and  C_36
REMARK                            x       y       z     vdW  Elec       q    Type
REMARK                         _______ _______ _______ _____ _____    ______ ____
ROOT
ATOM      1  C   UNL     1      -2.215  -4.628   1.040  0.00  0.00    +0.079 A 
ATOM      2  C   UNL     1      -2.679  -3.309   1.249  0.00  0.00    +0.148 A 
ATOM      3  N   UNL     1      -3.862  -3.372   1.803  0.00  0.00    -0.177 NA
ATOM      4  N   UNL     1      -4.213  -4.710   1.973  0.00  0.00    -0.238 N 
ATOM      5  C   UNL     1      -3.197  -5.475   1.498  0.00  0.00    +0.129 A 
ATOM      6  N   UNL     1      -3.229  -6.866   1.518  0.00  0.00    -0.322 N 
ATOM      7  C   UNL     1      -4.296  -7.480   2.334  0.00  0.00    +0.104 C 
ATOM      8  C   UNL     1      -5.600  -6.715   2.083  0.00  0.00    +0.063 C 
ATOM      9  C   UNL     1      -5.444  -5.260   2.548  0.00  0.00    +0.215 C 
ATOM     10  H   UNL     1      -2.589  -7.401   1.024  0.00  0.00    +0.148 HD
ENDROOT
BRANCH   1  12
ATOM     11  N   UNL     1       0.058  -4.172  -0.021  0.00  0.00    -0.270 N 
ATOM     12  C   UNL     1      -0.925  -5.021   0.438  0.00  0.00    +0.174 A 
ATOM     13  N   UNL     1      -0.497  -6.247   0.239  0.00  0.00    -0.128 NA
ATOM     14  N   UNL     1       0.667  -6.225  -0.304  0.00  0.00    -0.121 NA
ATOM     15  C   UNL     1       1.056  -4.986  -0.492  0.00  0.00    +0.207 A 
ATOM     16  S   UNL     1       2.577  -4.466  -1.212  0.00  0.00    -0.009 SA
BRANCH  11  21
ATOM     17  C   UNL     1      -0.018   1.503   0.010  0.00  0.00    +0.044 C 
ATOM     18  C   UNL     1       0.002  -0.004   0.002  0.00  0.00    -0.050 A 
ATOM     19  C   UNL     1       0.006  -0.688  -1.200  0.00  0.00    +0.005 A 
ATOM     20  C   UNL     1       0.024  -2.068  -1.211  0.00  0.00    +0.026 A 
ATOM     21  C   UNL     1       0.040  -2.771  -0.013  0.00  0.00    +0.051 A 
ATOM     22  C   UNL     1       0.036  -2.082   1.192  0.00  0.00    +0.026 A 
ATOM     23  C   UNL     1       0.023  -0.700   1.196  0.00  0.00    +0.005 A 
ENDBRANCH  11  21
ENDBRANCH   1  12
BRANCH   7  24
ATOM     24  C   UNL     1      -3.928  -7.397   3.793  0.00  0.00    -0.027 A 
ATOM     25  C   UNL     1      -3.334  -6.252   4.292  0.00  0.00    +0.009 A 
ATOM     26  C   UNL     1      -2.996  -6.175   5.628  0.00  0.00    +0.046 A 
ATOM     27  C   UNL     1      -3.252  -7.247   6.471  0.00  0.00    +0.120 A 
ATOM     28  C   UNL     1      -3.848  -8.394   5.969  0.00  0.00    +0.046 A 
ATOM     29  C   UNL     1      -4.189  -8.465   4.632  0.00  0.00    +0.009 A 
BRANCH  27  30
ATOM     30  O   UNL     1      -2.919  -7.173   7.787  0.00  0.00    -0.495 OA
ATOM     31  C   UNL     1      -3.212  -8.314   8.595  0.00  0.00    +0.277 C 
ENDBRANCH  27  30
ENDBRANCH   7  24
BRANCH   9  32
ATOM     32  C   UNL     1      -6.645  -4.446   2.062  0.00  0.00    +0.412 C 
ATOM     33  F   UNL     1      -6.716  -4.508   0.666  0.00  0.00    -0.168 F 
ATOM     34  F   UNL     1      -7.819  -4.973   2.612  0.00  0.00    -0.168 F 
ATOM     35  F   UNL     1      -6.499  -3.114   2.464  0.00  0.00    -0.168 F 
ENDBRANCH   9  32
TORSDOF 5
