REMARK  Name = ZINC09549532
REMARK  9 active torsions:
REMARK  status: ('A' for Active; 'I' for Inactive)
REMARK    1  A    between atoms: C_1  and  O_2
REMARK    2  A    between atoms: O_2  and  C_3
REMARK    3  A    between atoms: C_3  and  C_4
REMARK    4  A    between atoms: C_4  and  N_5
REMARK    5  A    between atoms: C_6  and  C_8
REMARK    6  A    between atoms: C_12  and  N_13
REMARK    7  A    between atoms: C_14  and  C_16
REMARK    8  A    between atoms: C_16  and  N_59
REMARK    9  A    between atoms: C_20  and  C_22
REMARK                            x       y       z     vdW  Elec       q    Type
REMARK                         _______ _______ _______ _____ _____    ______ ____
ROOT
ATOM      1  C   UNL     1      -1.719   0.236  -4.773  0.00  0.00    +0.069 A 
ATOM      2  C   UNL     1      -2.769   0.604  -5.707  0.00  0.00    -0.023 A 
ATOM      3  C   UNL     1      -3.776   1.336  -5.182  0.00  0.00    -0.004 A 
ATOM      4  S   UNL     1      -3.349   1.534  -3.475  0.00  0.00    -0.077 S 
ATOM      5  C   UNL     1      -1.854   0.656  -3.458  0.00  0.00    +0.084 A 
ATOM      6  C   UNL     1      -4.981   1.861  -5.900  0.00  0.00    +0.043 C 
ATOM      7  C   UNL     1      -4.724   1.764  -7.411  0.00  0.00    +0.005 C 
ATOM      8  C   UNL     1      -4.188   0.366  -7.731  0.00  0.00    +0.005 C 
ATOM      9  C   UNL     1      -2.768   0.215  -7.181  0.00  0.00    +0.037 C 
ENDROOT
BRANCH   1  11
ATOM     10  N   UNL     1       0.547   0.068  -5.656  0.00  0.00    -0.309 N 
ATOM     11  C   UNL     1      -0.561  -0.553  -5.204  0.00  0.00    +0.247 C 
ATOM     12  O   UNL     1      -0.599  -1.768  -5.153  0.00  0.00    -0.270 OA
ATOM     13  H   UNL     1       0.578   1.036  -5.697  0.00  0.00    +0.149 HD
BRANCH  10  14
ATOM     14  C   UNL     1       1.704  -0.721  -6.087  0.00  0.00    +0.132 C 
BRANCH  14  15
ATOM     15  C   UNL     1       2.818   0.220  -6.551  0.00  0.00    +0.178 C 
BRANCH  15  17
ATOM     16  C   UNL     1       4.326   1.911  -5.770  0.00  0.00    +0.194 C 
ATOM     17  O   UNL     1       3.280   0.995  -5.443  0.00  0.00    -0.381 OA
ENDBRANCH  15  17
ENDBRANCH  14  15
ENDBRANCH  10  14
ENDBRANCH   1  11
BRANCH   5  18
ATOM     18  N   UNL     1      -0.999   0.434  -2.390  0.00  0.00    -0.281 N 
ATOM     19  C   UNL     1      -1.296   0.930  -1.173  0.00  0.00    +0.201 C 
ATOM     20  O   UNL     1      -2.313   1.572  -1.012  0.00  0.00    -0.278 OA
ATOM     21  H   UNL     1      -0.186  -0.080  -2.518  0.00  0.00    +0.155 HD
BRANCH  19  22
ATOM     22  C   UNL     1      -0.366   0.688  -0.012  0.00  0.00    +0.020 C 
BRANCH  22  27
ATOM     23  C   UNL     1      -0.734   2.794   1.141  0.00  0.00    -0.077 C 
ATOM     24  C   UNL     1      -0.502   3.217   2.613  0.00  0.00    -0.020 C 
ATOM     25  C   UNL     1       0.345   2.034   3.150  0.00  0.00    -0.012 C 
ATOM     26  C   UNL     1      -0.247   0.818   2.408  0.00  0.00    -0.030 C 
ATOM     27  N   UNL     1      -0.925   1.334   1.204  0.00  0.00    +0.390 N 
ATOM     28  H   UNL     1      -1.929   1.125   1.264  0.00  0.00    -0.080 HD
BRANCH  26  29
ATOM     29  C   UNL     1       0.852  -0.141   2.027  0.00  0.00    -0.024 A 
ATOM     30  C   UNL     1       1.017  -1.437   2.387  0.00  0.00    +0.009 A 
ATOM     31  C   UNL     1       2.113  -2.131   1.909  0.00  0.00    +0.008 A 
ATOM     32  C   UNL     1       2.995  -1.492   1.103  0.00  0.00    +0.045 A 
ATOM     33  S   UNL     1       2.279   0.139   0.991  0.00  0.00    -0.103 S 
ENDBRANCH  26  29
ENDBRANCH  22  27
ENDBRANCH  19  22
ENDBRANCH   5  18
TORSDOF 8
