REMARK  Name = ZINC16246790
REMARK  7 active torsions:
REMARK  status: ('A' for Active; 'I' for Inactive)
REMARK    1  A    between atoms: C_1  and  C_2
REMARK    2  A    between atoms: C_2  and  C_4
REMARK    3  A    between atoms: C_2  and  S_15
REMARK    4  A    between atoms: S_15  and  C_16
REMARK    5  A    between atoms: N_26  and  C_27
REMARK    6  A    between atoms: C_27  and  C_28
REMARK    7  A    between atoms: C_27  and  C_29
REMARK                            x       y       z     vdW  Elec       q    Type
REMARK                         _______ _______ _______ _____ _____    ______ ____
ROOT
ATOM      1  S   UNL     1       0.879  -0.605   1.472  0.00  0.00    -0.075 S 
ENDROOT
BRANCH   1   2
ATOM      2  C   UNL     1       2.533  -0.042   1.241  0.00  0.00    +0.173 A 
ATOM      3  N   UNL     1       2.814   0.647   0.162  0.00  0.00    -0.223 NA
ATOM      4  C   UNL     1       4.063   1.110  -0.077  0.00  0.00    +0.080 A 
ATOM      5  C   UNL     1       4.364   1.845  -1.227  0.00  0.00    +0.048 A 
ATOM      6  C   UNL     1       5.650   2.296  -1.427  0.00  0.00    +0.043 A 
ATOM      7  C   UNL     1       6.651   2.028  -0.500  0.00  0.00    +0.021 A 
ATOM      8  C   UNL     1       6.381   1.311   0.632  0.00  0.00    +0.017 A 
ATOM      9  C   UNL     1       5.088   0.842   0.860  0.00  0.00    +0.065 A 
ATOM     10  C   UNL     1       4.745   0.068   2.060  0.00  0.00    +0.263 A 
ATOM     11  O   UNL     1       5.583  -0.194   2.902  0.00  0.00    -0.267 OA
ATOM     12  N   UNL     1       3.462  -0.340   2.197  0.00  0.00    -0.285 N 
ATOM     13 CL   UNL     1       6.026   3.209  -2.855  0.00  0.00    -0.083 Cl
BRANCH  12  14
ATOM     14  C   UNL     1       3.066  -1.110   3.378  0.00  0.00    +0.087 C 
ATOM     15  C   UNL     1       3.882  -2.404   3.440  0.00  0.00    +0.031 C 
ATOM     16  C   UNL     1       3.327  -0.282   4.638  0.00  0.00    +0.031 C 
ENDBRANCH  12  14
ENDBRANCH   1   2
BRANCH   1  18
ATOM     17  C   UNL     1      -0.019   1.526   0.010  0.00  0.00    +0.029 C 
ATOM     18  C   UNL     1       0.002  -0.004   0.002  0.00  0.00    +0.137 C 
BRANCH  18  19
ATOM     19  C   UNL     1      -1.412  -0.526   0.013  0.00  0.00    +0.231 C 
ATOM     20  O   UNL     1      -1.939  -0.827   1.062  0.00  0.00    -0.274 OA
ATOM     21  N   UNL     1      -2.090  -0.657  -1.144  0.00  0.00    -0.268 N 
ATOM     22  C   UNL     1      -3.399  -1.140  -1.134  0.00  0.00    +0.143 A 
ATOM     23  C   UNL     1      -4.091  -1.279  -2.333  0.00  0.00    +0.082 A 
ATOM     24  C   UNL     1      -5.389  -1.760  -2.309  0.00  0.00    +0.045 A 
ATOM     25  C   UNL     1      -5.952  -2.086  -1.082  0.00  0.00    +0.061 A 
ATOM     26  C   UNL     1      -5.205  -1.923   0.069  0.00  0.00    +0.133 A 
ATOM     27  N   UNL     1      -3.968  -1.467   0.014  0.00  0.00    -0.237 NA
ATOM     28 CL   UNL     1      -7.576  -2.693  -0.995  0.00  0.00    -0.082 Cl
ATOM     29 CL   UNL     1      -3.338  -0.854  -3.839  0.00  0.00    -0.080 Cl
ATOM     30  H   UNL     1      -1.669  -0.416  -1.984  0.00  0.00    +0.156 HD
ENDBRANCH  18  19
ENDBRANCH   1  18
TORSDOF 4
