REMARK  Name = ZINC28714836
REMARK  12 active torsions:
REMARK  status: ('A' for Active; 'I' for Inactive)
REMARK    1  A    between atoms: C_1  and  C_2
REMARK    2  A    between atoms: C_5  and  C_9
REMARK    3  A    between atoms: C_7  and  C_8
REMARK    4  A    between atoms: C_9  and  C_11
REMARK    5  A    between atoms: C_9  and  N_12
REMARK    6  A    between atoms: C_13  and  C_15
REMARK    7  A    between atoms: C_15  and  S_16
REMARK    8  A    between atoms: S_16  and  C_17
REMARK    9  A    between atoms: C_20  and  C_23
REMARK   10  A    between atoms: N_21  and  N_22
REMARK   11  A    between atoms: C_26  and  O_29
REMARK   12  A    between atoms: O_29  and  C_30
REMARK                            x       y       z     vdW  Elec       q    Type
REMARK                         _______ _______ _______ _____ _____    ______ ____
ROOT
ATOM      1  C   UNL     1      -0.568  -2.108   0.156  0.00  0.00    +0.209 A 
ATOM      2  N   UNL     1       0.695  -2.006  -0.195  0.00  0.00    -0.121 NA
ATOM      3  N   UNL     1       1.028  -0.769  -0.291  0.00  0.00    -0.127 NA
ATOM      4  C   UNL     1       0.002  -0.004   0.002  0.00  0.00    +0.182 A 
ATOM      5  N   UNL     1      -1.053  -0.838   0.294  0.00  0.00    -0.224 N 
ENDROOT
BRANCH   4   6
ATOM      6  C   UNL     1      -0.018   1.474   0.010  0.00  0.00    +0.021 A 
ATOM      7  C   UNL     1      -1.235   2.157   0.020  0.00  0.00    +0.015 A 
ATOM      8  C   UNL     1      -1.250   3.536   0.033  0.00  0.00    +0.046 A 
ATOM      9  C   UNL     1      -0.056   4.245   0.025  0.00  0.00    +0.127 A 
ATOM     10  C   UNL     1       1.157   3.568   0.010  0.00  0.00    +0.046 A 
ATOM     11  C   UNL     1       1.180   2.190   0.003  0.00  0.00    +0.015 A 
BRANCH   9  12
ATOM     12  O   UNL     1      -0.074   5.603   0.033  0.00  0.00    -0.434 OA
BRANCH  12  13
ATOM     13  C   UNL     1      -1.356   6.234   0.048  0.00  0.00    +0.541 C 
ATOM     14  F   UNL     1      -2.077   5.855  -1.089  0.00  0.00    -0.166 F 
ATOM     15  F   UNL     1      -2.054   5.843   1.195  0.00  0.00    -0.166 F 
ENDBRANCH  12  13
ENDBRANCH   9  12
ENDBRANCH   4   6
BRANCH   5  16
ATOM     16  N   UNL     1      -2.321  -0.472   0.647  0.00  0.00    -0.295 N 
ATOM     17  H   UNL     1      -2.585   0.593   0.723  0.00  0.00    +0.163 HD
ATOM     18  H   UNL     1      -3.077  -1.243   0.856  0.00  0.00    +0.163 HD
ENDBRANCH   5  16
BRANCH   1  19
ATOM     19  S   UNL     1      -1.467  -3.603   0.403  0.00  0.00    -0.075 S 
BRANCH  19  20
ATOM     20  C   UNL     1      -0.171  -4.813   0.040  0.00  0.00    +0.173 C 
BRANCH  20  22
ATOM     21  N   UNL     1       0.063  -7.274  -0.030  0.00  0.00    -0.308 N 
ATOM     22  C   UNL     1      -0.727  -6.205   0.192  0.00  0.00    +0.224 C 
ATOM     23  O   UNL     1      -1.885  -6.364   0.513  0.00  0.00    -0.275 OA
ATOM     24  H   UNL     1       1.114  -7.130  -0.322  0.00  0.00    +0.149 HD
BRANCH  21  25
ATOM     25  C   UNL     1      -0.477  -8.628   0.117  0.00  0.00    +0.100 C 
ATOM     26  C   UNL     1      -1.163  -9.048  -1.185  0.00  0.00    +0.033 C 
BRANCH  25  31
ATOM     27  C   UNL     1       3.823 -12.301   1.303  0.00  0.00    +0.044 C 
ATOM     28  C   UNL     1       2.701 -11.343   0.994  0.00  0.00    -0.048 A 
ATOM     29  C   UNL     1       2.889 -10.335   0.067  0.00  0.00    +0.004 A 
ATOM     30  C   UNL     1       1.860  -9.459  -0.220  0.00  0.00    +0.006 A 
ATOM     31  C   UNL     1       0.644  -9.586   0.426  0.00  0.00    -0.027 A 
ATOM     32  C   UNL     1       0.456 -10.595   1.352  0.00  0.00    +0.009 A 
ATOM     33  C   UNL     1       1.485 -11.473   1.636  0.00  0.00    -0.047 A 
ATOM     34  C   UNL     1       1.279 -12.573   2.646  0.00  0.00    +0.044 C 
ENDBRANCH  25  31
ENDBRANCH  21  25
ENDBRANCH  20  22
ENDBRANCH  19  20
ENDBRANCH   1  19
TORSDOF 9
