REMARK  Name = ZINC67501913
REMARK  5 active torsions:
REMARK  status: ('A' for Active; 'I' for Inactive)
REMARK    1  A    between atoms: C_5  and  C_6
REMARK    2  A    between atoms: C_6  and  N_7
REMARK    3  A    between atoms: N_7  and  C_8
REMARK    4  A    between atoms: N_13  and  C_15
REMARK    5  A    between atoms: C_15  and  C_16
REMARK                            x       y       z     vdW  Elec       q    Type
REMARK                         _______ _______ _______ _____ _____    ______ ____
ROOT
ATOM      1  C   UNL     1      -2.674  -2.215  -1.408  0.00  0.00    +0.037 C 
ATOM      2  C   UNL     1      -2.148  -3.650  -1.311  0.00  0.00    +0.015 C 
ATOM      3  C   UNL     1      -3.324  -4.623  -1.425  0.00  0.00    -0.017 C 
ATOM      4  C   UNL     1      -4.067  -4.366  -2.737  0.00  0.00    -0.078 C 
ATOM      5  N   UNL     1      -4.568  -2.986  -2.758  0.00  0.00    +0.386 N 
ATOM      6  C   UNL     1      -3.442  -2.046  -2.720  0.00  0.00    -0.059 C 
ATOM      7  H   UNL     1      -5.159  -2.832  -1.955  0.00  0.00    -0.081 HD
ENDROOT
BRANCH   1   8
ATOM      8  N   UNL     1      -1.546  -1.275  -1.375  0.00  0.00    -0.311 NA
ATOM      9  H   UNL     1      -1.762  -0.431  -1.884  0.00  0.00    +0.122 HD
BRANCH   8  10
ATOM     10  C   UNL     1      -1.156  -0.969   0.008  0.00  0.00    +0.123 C 
BRANCH  10  15
ATOM     11  C   UNL     1      -0.016   1.351   0.009  0.00  0.00    +0.027 A 
ATOM     12  C   UNL     1       1.184   2.038   0.002  0.00  0.00    +0.025 A 
ATOM     13  C   UNL     1       2.343   1.335  -0.013  0.00  0.00    +0.060 A 
ATOM     14  S   UNL     1       1.753  -0.350  -0.017  0.00  0.00    -0.099 S 
ATOM     15  C   UNL     1       0.002  -0.004   0.002  0.00  0.00    +0.005 A 
ATOM     16 BR   UNL     1       1.208   3.929   0.011  0.00  0.00    -0.050 Br
ENDBRANCH  10  15
ENDBRANCH   8  10
ENDBRANCH   1   8
BRANCH   5  17
ATOM     17  C   UNL     1      -5.346  -2.767  -3.984  0.00  0.00    +0.018 C 
BRANCH  17  18
ATOM     18  C   UNL     1      -6.576  -3.639  -3.961  0.00  0.00    +0.194 C 
ATOM     19  O   UNL     1      -6.783  -4.370  -3.016  0.00  0.00    -0.278 OA
ATOM     20  N   UNL     1      -7.445  -3.605  -4.991  0.00  0.00    -0.331 N 
ATOM     21  H   UNL     1      -7.279  -3.021  -5.747  0.00  0.00    +0.145 HD
ATOM     22  H   UNL     1      -8.236  -4.166  -4.976  0.00  0.00    +0.145 HD
ENDBRANCH  17  18
ENDBRANCH   5  17
TORSDOF 5
