REMARK  Name = ZINC63514362
REMARK  12 active torsions:
REMARK  status: ('A' for Active; 'I' for Inactive)
REMARK    1  A    between atoms: C_1  and  C_2
REMARK    2  A    between atoms: C_4  and  C_32
REMARK    3  A    between atoms: C_5  and  S_10
REMARK    4  A    between atoms: C_7  and  O_8
REMARK    5  A    between atoms: O_8  and  C_9
REMARK    6  A    between atoms: S_10  and  N_13
REMARK    7  A    between atoms: N_13  and  C_14
REMARK    8  A    between atoms: C_14  and  C_15
REMARK    9  A    between atoms: C_15  and  C_16
REMARK   10  A    between atoms: C_19  and  O_27
REMARK   11  A    between atoms: C_24  and  C_26
REMARK   12  A    between atoms: O_27  and  C_28
REMARK                            x       y       z     vdW  Elec       q    Type
REMARK                         _______ _______ _______ _____ _____    ______ ____
ROOT
ATOM      1  C   UNL     1      -2.257  -5.567  -1.881  0.00  0.00    +0.050 C 
ENDROOT
BRANCH   1   2
ATOM      2  C   UNL     1      -2.485  -5.316  -3.349  0.00  0.00    -0.037 C 
ATOM      3  C   UNL     1      -1.719  -4.566  -4.174  0.00  0.00    +0.003 A 
ATOM      4  C   UNL     1      -0.493  -3.790  -3.962  0.00  0.00    +0.056 A 
ATOM      5  C   UNL     1       0.063  -3.123  -5.001  0.00  0.00    +0.129 A 
ATOM      6  C   UNL     1      -0.494  -3.145  -6.292  0.00  0.00    +0.048 A 
ATOM      7  C   UNL     1      -1.620  -3.830  -6.585  0.00  0.00    +0.029 A 
ATOM      8  C   UNL     1      -2.305  -4.589  -5.534  0.00  0.00    +0.043 A 
ATOM      9  N   UNL     1      -3.390  -5.323  -5.549  0.00  0.00    -0.378 N 
ATOM     10  C   UNL     1      -3.613  -5.856  -4.200  0.00  0.00    +0.103 C 
ATOM     11  C   UNL     1      -3.572  -7.385  -4.221  0.00  0.00    +0.035 C 
ATOM     12  H   UNL     1      -3.950  -5.489  -6.323  0.00  0.00    +0.160 HD
BRANCH   5  13
ATOM     13  O   UNL     1       1.199  -2.407  -4.790  0.00  0.00    -0.420 OA
BRANCH  13  14
ATOM     14  C   UNL     1       1.752  -1.720  -5.914  0.00  0.00    +0.489 C 
ATOM     15  F   UNL     1       2.070  -2.643  -6.915  0.00  0.00    -0.149 F 
ATOM     16  F   UNL     1       0.816  -0.803  -6.406  0.00  0.00    -0.149 F 
ATOM     17 CL   UNL     1       3.244  -0.843  -5.409  0.00  0.00    +0.000 Cl
ENDBRANCH  13  14
ENDBRANCH   5  13
ENDBRANCH   1   2
BRANCH   1  18
ATOM     18  C   UNL     1      -1.006  -4.815  -1.423  0.00  0.00    +0.110 C 
BRANCH  18  19
ATOM     19  N   UNL     1      -0.780  -5.067   0.003  0.00  0.00    -0.190 NA
ATOM     20  H   UNL     1      -1.488  -5.445   0.547  0.00  0.00    +0.148 HD
BRANCH  19  21
ATOM     21  S   UNL     1       0.685  -4.705   0.685  0.00  0.00    +0.059 S 
ATOM     22  O   UNL     1       0.592  -5.058   2.058  0.00  0.00    -0.153 OA
ATOM     23  O   UNL     1       1.019  -3.391   0.257  0.00  0.00    -0.153 OA
BRANCH  21  28
ATOM     24  C   UNL     1       4.759  -8.419  -1.775  0.00  0.00    +0.047 C 
ATOM     25  C   UNL     1       3.743  -7.491  -1.161  0.00  0.00    -0.008 A 
ATOM     26  C   UNL     1       2.725  -8.000  -0.379  0.00  0.00    +0.012 A 
ATOM     27  C   UNL     1       1.792  -7.149   0.184  0.00  0.00    -0.024 A 
ATOM     28  C   UNL     1       1.876  -5.786  -0.034  0.00  0.00    +0.112 A 
ATOM     29  C   UNL     1       2.892  -5.272  -0.815  0.00  0.00    +0.074 A 
ATOM     30  C   UNL     1       3.833  -6.124  -1.377  0.00  0.00    +0.125 A 
ATOM     31  C   UNL     1       0.682  -7.708   1.037  0.00  0.00    +0.046 C 
BRANCH  30  32
ATOM     32  O   UNL     1       4.837  -5.620  -2.142  0.00  0.00    -0.495 OA
ATOM     33  C   UNL     1       4.867  -4.202  -2.321  0.00  0.00    +0.277 C 
ENDBRANCH  30  32
ENDBRANCH  21  28
ENDBRANCH  19  21
ENDBRANCH  18  19
ENDBRANCH   1  18
TORSDOF 8
