REMARK  Name = ZINC63506286
REMARK  11 active torsions:
REMARK  status: ('A' for Active; 'I' for Inactive)
REMARK    1  A    between atoms: C_1  and  C_2
REMARK    2  A    between atoms: C_6  and  C_35
REMARK    3  A    between atoms: N_8  and  C_10
REMARK    4  A    between atoms: C_10  and  C_11
REMARK    5  A    between atoms: N_13  and  C_14
REMARK    6  A    between atoms: C_14  and  C_15
REMARK    7  A    between atoms: C_15  and  C_16
REMARK    8  A    between atoms: C_19  and  O_27
REMARK    9  A    between atoms: C_24  and  C_26
REMARK   10  A    between atoms: O_27  and  C_28
REMARK   11  A    between atoms: C_28  and  C_29
REMARK                            x       y       z     vdW  Elec       q    Type
REMARK                         _______ _______ _______ _____ _____    ______ ____
ROOT
ATOM      1  C   UNL     1       3.149  -3.956   7.483  0.00  0.00    -0.037 C 
ATOM      2  C   UNL     1       1.912  -3.771   7.997  0.00  0.00    +0.003 A 
ATOM      3  C   UNL     1       0.646  -3.320   7.409  0.00  0.00    +0.055 A 
ATOM      4  C   UNL     1      -0.457  -3.230   8.190  0.00  0.00    +0.122 A 
ATOM      5  C   UNL     1      -0.438  -3.555   9.557  0.00  0.00    +0.048 A 
ATOM      6  C   UNL     1       0.678  -3.979  10.188  0.00  0.00    +0.029 A 
ATOM      7  C   UNL     1       1.931  -4.114   9.439  0.00  0.00    +0.043 A 
ATOM      8  N   UNL     1       3.131  -4.494   9.800  0.00  0.00    -0.378 N 
ATOM      9  C   UNL     1       4.011  -4.444   8.626  0.00  0.00    +0.103 C 
ATOM     10  C   UNL     1       5.160  -3.465   8.875  0.00  0.00    +0.035 C 
ATOM     11  H   UNL     1       3.394  -4.768  10.692  0.00  0.00    +0.160 HD
ENDROOT
BRANCH   1  12
ATOM     12  C   UNL     1       3.580  -3.728   6.057  0.00  0.00    +0.052 C 
BRANCH  12  13
ATOM     13  C   UNL     1       2.387  -3.233   5.236  0.00  0.00    +0.108 C 
BRANCH  13  16
ATOM     14  C   UNL     1       1.916  -2.572   2.939  0.00  0.00    +0.229 C 
ATOM     15  O   UNL     1       0.767  -2.360   3.267  0.00  0.00    -0.274 OA
ATOM     16  N   UNL     1       2.806  -3.012   3.850  0.00  0.00    -0.314 N 
ATOM     17  H   UNL     1       3.724  -3.182   3.588  0.00  0.00    +0.149 HD
BRANCH  14  18
ATOM     18  C   UNL     1       2.347  -2.345   1.513  0.00  0.00    +0.198 C 
BRANCH  18  23
ATOM     19  C   UNL     1      -0.019   1.526   0.010  0.00  0.00    +0.027 C 
ATOM     20  C   UNL     1       0.002  -0.004   0.002  0.00  0.00    +0.086 C 
ATOM     21  C   UNL     1       0.768  -0.531  -1.233  0.00  0.00    +0.117 C 
ATOM     22  C   UNL     1       1.556  -1.748  -0.707  0.00  0.00    +0.089 C 
ATOM     23  N   UNL     1       1.201  -1.869   0.725  0.00  0.00    -0.230 NA
ATOM     24  N   UNL     1       0.790  -0.523   1.151  0.00  0.00    -0.249 NA
ATOM     25  C   UNL     1       1.143  -3.012  -1.464  0.00  0.00    +0.027 C 
ATOM     26 CL   UNL     1       1.895   0.729  -1.860  0.00  0.00    -0.118 Cl
ATOM     27  H   UNL     1       0.227  -0.562   1.987  0.00  0.00    +0.141 HD
ENDBRANCH  18  23
ENDBRANCH  14  18
ENDBRANCH  13  16
ENDBRANCH  12  13
ENDBRANCH   1  12
BRANCH   4  28
ATOM     28  O   UNL     1      -1.623  -2.810   7.631  0.00  0.00    -0.487 OA
BRANCH  28  29
ATOM     29  C   UNL     1      -2.762  -2.730   8.491  0.00  0.00    +0.264 C 
BRANCH  29  30
ATOM     30  C   UNL     1      -3.953  -2.250   7.702  0.00  0.00    -0.010 A 
ATOM     31  C   UNL     1      -4.216  -0.896   7.602  0.00  0.00    +0.007 A 
ATOM     32  C   UNL     1      -5.309  -0.456   6.879  0.00  0.00    +0.000 A 
ATOM     33  C   UNL     1      -6.138  -1.369   6.256  0.00  0.00    +0.000 A 
ATOM     34  C   UNL     1      -5.875  -2.723   6.355  0.00  0.00    +0.000 A 
ATOM     35  C   UNL     1      -4.780  -3.163   7.075  0.00  0.00    +0.007 A 
ENDBRANCH  29  30
ENDBRANCH  28  29
ENDBRANCH   4  28
TORSDOF 8
