REMARK  Name = ZINC12652046
REMARK  8 active torsions:
REMARK  status: ('A' for Active; 'I' for Inactive)
REMARK    1  A    between atoms: C_1  and  C_2
REMARK    2  A    between atoms: C_2  and  C_37
REMARK    3  A    between atoms: C_6  and  C_26
REMARK    4  A    between atoms: N_8  and  C_16
REMARK    5  A    between atoms: C_16  and  C_17
REMARK    6  A    between atoms: N_22  and  C_25
REMARK    7  A    between atoms: C_31  and  O_32
REMARK    8  A    between atoms: O_32  and  C_33
REMARK                            x       y       z     vdW  Elec       q    Type
REMARK                         _______ _______ _______ _____ _____    ______ ____
ROOT
ATOM      1  C   UNL     1       0.277   1.497   2.457  0.00  0.00    +0.011 C 
ATOM      2  C   UNL     1      -0.487   1.948   1.210  0.00  0.00    -0.023 C 
ATOM      3  C   UNL     1      -1.905   1.370   1.229  0.00  0.00    +0.058 C 
ATOM      4  C   UNL     1      -2.654   1.801  -0.018  0.00  0.00    +0.017 C 
ATOM      5  C   UNL     1      -2.007   1.971  -1.186  0.00  0.00    +0.037 C 
ATOM      6  C   UNL     1      -2.634   2.343  -2.509  0.00  0.00    +0.143 C 
ATOM      7  N   UNL     1      -4.077   2.262  -2.551  0.00  0.00    -0.308 N 
ATOM      8  C   UNL     1      -4.724   3.207  -1.763  0.00  0.00    +0.052 A 
ATOM      9  C   UNL     1      -5.408   4.267  -2.346  0.00  0.00    +0.025 A 
ATOM     10  C   UNL     1      -6.004   5.218  -1.537  0.00  0.00    +0.002 A 
ATOM     11  C   UNL     1      -5.923   5.119  -0.160  0.00  0.00    +0.002 A 
ATOM     12  C   UNL     1      -5.250   4.058   0.422  0.00  0.00    +0.025 A 
ATOM     13  C   UNL     1      -4.660   3.103  -0.389  0.00  0.00    +0.052 A 
ATOM     14  N   UNL     1      -3.987   2.006   0.140  0.00  0.00    -0.316 N 
ATOM     15  C   UNL     1      -0.606   1.786  -1.249  0.00  0.00    +0.163 C 
ATOM     16  O   UNL     1      -0.044   1.931  -2.317  0.00  0.00    -0.292 OA
ATOM     17  C   UNL     1       0.212   1.420  -0.047  0.00  0.00    +0.086 C 
ATOM     18  C   UNL     1      -0.551   3.476   1.165  0.00  0.00    +0.011 C 
ATOM     19  H   UNL     1      -4.590   1.284   0.711  0.00  0.00    +0.152 HD
ENDROOT
BRANCH   6  20
ATOM     20  C   UNL     1      -2.077   1.431  -3.571  0.00  0.00    +0.019 A 
ATOM     21  C   UNL     1      -2.441   0.098  -3.598  0.00  0.00    +0.009 A 
ATOM     22  C   UNL     1      -1.930  -0.739  -4.572  0.00  0.00    +0.001 A 
ATOM     23  C   UNL     1      -1.054  -0.246  -5.522  0.00  0.00    +0.004 A 
ATOM     24  C   UNL     1      -0.688   1.086  -5.499  0.00  0.00    +0.046 A 
ATOM     25  C   UNL     1      -1.203   1.929  -4.525  0.00  0.00    +0.125 A 
BRANCH  25  26
ATOM     26  O   UNL     1      -0.848   3.241  -4.504  0.00  0.00    -0.495 OA
ATOM     27  C   UNL     1       0.056   3.685  -5.517  0.00  0.00    +0.277 C 
ENDBRANCH  25  26
ENDBRANCH   6  20
BRANCH   7  28
ATOM     28  C   UNL     1      -4.566   2.306  -3.935  0.00  0.00    +0.202 C 
BRANCH  28  29
ATOM     29  C   UNL     1      -6.011   1.880  -3.970  0.00  0.00    +0.233 C 
ATOM     30  O   UNL     1      -6.577   1.570  -2.943  0.00  0.00    -0.274 OA
ATOM     31  N   UNL     1      -6.675   1.843  -5.143  0.00  0.00    -0.298 N 
ATOM     32  C   UNL     1      -6.009   2.220  -6.399  0.00  0.00    +0.123 C 
ATOM     33  C   UNL     1      -6.235   1.095  -7.421  0.00  0.00    +0.103 C 
ATOM     34  N   UNL     1      -7.675   0.828  -7.538  0.00  0.00    -0.302 NA
ATOM     35  C   UNL     1      -8.231   0.341  -6.268  0.00  0.00    +0.103 C 
ATOM     36  C   UNL     1      -8.085   1.430  -5.200  0.00  0.00    +0.123 C 
ATOM     37  C   UNL     1      -7.948  -0.116  -8.629  0.00  0.00    +0.105 C 
ENDBRANCH  28  29
ENDBRANCH   7  28
TORSDOF 4
