REMARK  Name = ZINC08877465
REMARK  12 active torsions:
REMARK  status: ('A' for Active; 'I' for Inactive)
REMARK    1  A    between atoms: C_1  and  C_2
REMARK    2  A    between atoms: C_6  and  C_30
REMARK    3  A    between atoms: C_7  and  C_11
REMARK    4  A    between atoms: C_11  and  C_12
REMARK    5  A    between atoms: N_14  and  CA_15
REMARK    6  A    between atoms: CA_15  and  CB_17
REMARK    7  A    between atoms: CA_15  and  C_28
REMARK    8  A    between atoms: CB_17  and  CG_18
REMARK    9  A    between atoms: C_31  and  O_33
REMARK   10  A    between atoms: O_33  and  C_34
REMARK   11  A    between atoms: C_34  and  C_35
REMARK   12  A    between atoms: C_35  and  C_37
REMARK                            x       y       z     vdW  Elec       q    Type
REMARK                         _______ _______ _______ _____ _____    ______ ____
ROOT
ATOM      1  C   UNK A   0      -1.049   6.446   0.547  0.00  0.00    +0.138 C 
ENDROOT
BRANCH   1   8
ATOM      2  C   UNK A   0       4.798   1.255  -1.032  0.00  0.00    +0.044 C 
ATOM      3  C   UNK A   0       3.543   2.042  -0.755  0.00  0.00    -0.043 A 
ATOM      4  C   UNK A   0       3.629   3.397  -0.503  0.00  0.00    +0.050 A 
ATOM      5  C   UNK A   0       2.480   4.131  -0.247  0.00  0.00    +0.143 A 
ATOM      6  C   UNK A   0       1.230   3.485  -0.252  0.00  0.00    +0.062 A 
ATOM      7  C   UNK A   0       0.025   4.268   0.023  0.00  0.00    -0.026 A 
ATOM      8  C   UNK A   0       0.164   5.598   0.264  0.00  0.00    +0.049 A 
ATOM      9  C   UNK A   0       1.447   6.182   0.249  0.00  0.00    +0.341 A 
ATOM     10  O   UNK A   0       1.559   7.375   0.467  0.00  0.00    -0.245 OA
ATOM     11  O   UNK A   0       2.549   5.457   0.001  0.00  0.00    -0.422 OA
ATOM     12  C   UNK A   0      -1.335   3.618   0.033  0.00  0.00    +0.045 C 
ATOM     13  C   UNK A   0       1.156   2.107  -0.505  0.00  0.00    +0.132 A 
ATOM     14  C   UNK A   0       2.317   1.398  -0.758  0.00  0.00    +0.050 A 
BRANCH  13  15
ATOM     15  O   UNK A   0      -0.045   1.475  -0.508  0.00  0.00    -0.487 OA
BRANCH  15  16
ATOM     16  C   UNK A   0      -0.040   0.072  -0.779  0.00  0.00    +0.259 C 
BRANCH  16  17
ATOM     17  C   UNK A   0      -1.452  -0.452  -0.740  0.00  0.00    -0.043 C 
ATOM     18  C   UNK A   0      -2.446   0.362  -0.484  0.00  0.00    +0.011 C 
ATOM     19  C   UNK A   0      -1.721  -1.913  -0.996  0.00  0.00    +0.042 C 
ENDBRANCH  16  17
ENDBRANCH  15  16
ENDBRANCH  13  15
ENDBRANCH   1   8
BRANCH   1  20
ATOM     20  C   UNK A   0      -1.591   6.995  -0.747  0.00  0.00    +0.218 C 
ATOM     21  O   UNK A   0      -1.046   6.724  -1.796  0.00  0.00    -0.275 OA
ATOM     22  N   TRP A   1      -2.681   7.787  -0.740  0.00  0.00    -0.302 N 
ATOM     23  H   TRP A   1      -3.118   8.003   0.100  0.00  0.00    +0.150 HD
BRANCH  22  24
ATOM     24  CA  TRP A   1      -3.208   8.321  -1.998  0.00  0.00    +0.191 C 
BRANCH  24  25
ATOM     25  C   TRP A   1      -2.470   9.585  -2.355  0.00  0.00    +0.376 C 
ATOM     26  O   TRP A   1      -1.594   9.998  -1.633  0.00  0.00    -0.244 OA
ATOM     27  OXT TRP A   1      -2.786  10.253  -3.476  0.00  0.00    -0.244 OA
ENDBRANCH  24  25
BRANCH  24  28
ATOM     28  CB  TRP A   1      -4.698   8.628  -1.838  0.00  0.00    +0.071 C 
BRANCH  28  29
ATOM     29  CG  TRP A   1      -5.453   7.345  -1.602  0.00  0.00    -0.020 A 
ATOM     30  CD1 TRP A   1      -6.076   6.603  -2.531  0.00  0.00    +0.087 A 
ATOM     31  NE1 TRP A   1      -6.650   5.507  -1.945  0.00  0.00    -0.360 N 
ATOM     32  HE1 TRP A   1      -7.154   4.824  -2.414  0.00  0.00    +0.165 HD
ATOM     33  CE2 TRP A   1      -6.412   5.523  -0.589  0.00  0.00    +0.047 A 
ATOM     34  CD2 TRP A   1      -5.652   6.675  -0.314  0.00  0.00    +0.003 A 
ATOM     35  CE3 TRP A   1      -5.257   6.953   0.995  0.00  0.00    +0.010 A 
ATOM     36  CZ3 TRP A   1      -5.612   6.104   2.006  0.00  0.00    +0.001 A 
ATOM     37  CH2 TRP A   1      -6.363   4.967   1.740  0.00  0.00    +0.002 A 
ATOM     38  CZ2 TRP A   1      -6.762   4.673   0.455  0.00  0.00    +0.026 A 
ENDBRANCH  28  29
ENDBRANCH  24  28
ENDBRANCH  22  24
ENDBRANCH   1  20
TORSDOF 9
