REMARK  Name = ZINC23311717
REMARK  5 active torsions:
REMARK  status: ('A' for Active; 'I' for Inactive)
REMARK    1  A    between atoms: C_5  and  C_7
REMARK    2  A    between atoms: C_13  and  C_15
REMARK    3  A    between atoms: C_19  and  C_21
REMARK    4  A    between atoms: C_21  and  N_22
REMARK    5  A    between atoms: C_26  and  O_29
REMARK                            x       y       z     vdW  Elec       q    Type
REMARK                         _______ _______ _______ _____ _____    ______ ____
ROOT
ATOM      1  C   UNL     1       5.296   6.764  -1.695  0.00  0.00    +0.018 A 
ATOM      2  C   UNL     1       6.202   6.948  -0.649  0.00  0.00    +0.011 A 
ATOM      3  C   UNL     1       5.853   6.581   0.634  0.00  0.00    +0.001 A 
ATOM      4  C   UNL     1       4.606   6.036   0.886  0.00  0.00    +0.002 A 
ATOM      5  C   UNL     1       3.706   5.845  -0.147  0.00  0.00    -0.063 A 
ATOM      6  C   UNL     1       4.042   6.208  -1.435  0.00  0.00    +0.013 A 
ENDROOT
BRANCH   1  13
ATOM      7  C   UNL     1       5.089   7.314  -5.308  0.00  0.00    +0.081 A 
ATOM      8  C   UNL     1       6.325   7.869  -5.603  0.00  0.00    +0.098 A 
ATOM      9  C   UNL     1       7.245   8.059  -4.557  0.00  0.00    +0.252 A 
ATOM     10  O   UNL     1       8.343   8.545  -4.777  0.00  0.00    -0.268 OA
ATOM     11  N   UNL     1       6.890   7.701  -3.305  0.00  0.00    -0.307 N 
ATOM     12  H   UNL     1       7.591   7.850  -2.471  0.00  0.00    +0.170 HD
ATOM     13  C   UNL     1       5.663   7.155  -3.072  0.00  0.00    +0.141 A 
ATOM     14  N   UNL     1       4.797   6.974  -4.045  0.00  0.00    -0.229 NA
BRANCH   7  19
ATOM     15  C   UNL     1       3.419   7.361  -8.674  0.00  0.00    +0.001 A 
ATOM     16  C   UNL     1       2.236   6.697  -8.399  0.00  0.00    +0.003 A 
ATOM     17  C   UNL     1       1.976   6.234  -7.123  0.00  0.00    +0.039 A 
ATOM     18  C   UNL     1       2.902   6.425  -6.114  0.00  0.00    +0.133 A 
ATOM     19  C   UNL     1       4.095   7.099  -6.384  0.00  0.00    +0.036 A 
ATOM     20  C   UNL     1       4.348   7.564  -7.675  0.00  0.00    +0.013 A 
ATOM     21  F   UNL     1       2.651   5.967  -4.868  0.00  0.00    -0.205 F 
ENDBRANCH   7  19
ENDBRANCH   1  13
BRANCH   5  22
ATOM     22  C   UNL     1       2.353   5.245   0.136  0.00  0.00    -0.043 C 
BRANCH  22  23
ATOM     23  N   UNL     1       2.428   3.784   0.005  0.00  0.00    +0.384 N 
ATOM     24  C   UNL     1       3.151   3.401  -1.214  0.00  0.00    -0.078 C 
ATOM     25  C   UNL     1       3.337   1.882  -1.244  0.00  0.00    -0.016 C 
ATOM     26  C   UNL     1       1.964   1.204  -1.207  0.00  0.00    +0.027 C 
ATOM     27  C   UNL     1       1.213   1.657   0.047  0.00  0.00    +0.098 C 
ATOM     28  C   UNL     1       1.089   3.183   0.039  0.00  0.00    -0.047 C 
ATOM     29  H   UNL     1       2.992   3.394   0.866  0.00  0.00    -0.081 HD
BRANCH  27  30
ATOM     30  O   UNL     1      -0.091   1.073   0.059  0.00  0.00    -0.394 OA
ATOM     31  H   UNL     1      -0.781   1.285   0.889  0.00  0.00    +0.210 HD
ENDBRANCH  27  30
ENDBRANCH  22  23
ENDBRANCH   5  22
TORSDOF 5
