REMARK  Name = ZINC11012083
REMARK  7 active torsions:
REMARK  status: ('A' for Active; 'I' for Inactive)
REMARK    1  A    between atoms: C_1  and  N_47
REMARK    2  A    between atoms: C_2  and  C_3
REMARK    3  A    between atoms: C_2  and  N_47
REMARK    4  A    between atoms: C_5  and  N_10
REMARK    5  A    between atoms: C_13  and  C_14
REMARK    6  A    between atoms: C_13  and  N_47
REMARK    7  A    between atoms: C_20  and  C_25
REMARK                            x       y       z     vdW  Elec       q    Type
REMARK                         _______ _______ _______ _____ _____    ______ ____
ROOT
ATOM      1  C   UNL     1      -0.270   2.180   1.214  0.00  0.00    +0.094 A 
ATOM      2  N   UNL     1       0.377   2.053   2.401  0.00  0.00    -0.312 N 
ATOM      3  H   UNL     1       1.188   1.524   2.445  0.00  0.00    +0.170 HD
ATOM      4  C   UNL     1      -0.085   2.647   3.517  0.00  0.00    +0.260 A 
ATOM      5  O   UNL     1       0.508   2.523   4.574  0.00  0.00    -0.267 OA
ATOM      6  C   UNL     1      -1.283   3.427   3.442  0.00  0.00    +0.080 A 
ATOM      7  C   UNL     1      -1.975   4.159   4.497  0.00  0.00    +0.004 A 
ATOM      8  C   UNL     1      -3.107   4.834   4.186  0.00  0.00    +0.056 A 
ATOM      9  S   UNL     1      -3.309   4.522   2.442  0.00  0.00    -0.076 S 
ATOM     10  C   UNL     1      -1.882   3.502   2.174  0.00  0.00    +0.116 A 
ATOM     11  N   UNL     1      -1.363   2.889   1.113  0.00  0.00    -0.229 NA
ENDROOT
BRANCH   7  12
ATOM     12  C   UNL     1      -1.449   4.163   5.883  0.00  0.00    -0.017 A 
ATOM     13  C   UNL     1      -1.118   2.962   6.509  0.00  0.00    +0.008 A 
ATOM     14  C   UNL     1      -0.625   2.972   7.798  0.00  0.00    +0.001 A 
ATOM     15  C   UNL     1      -0.468   4.170   8.472  0.00  0.00    +0.000 A 
ATOM     16  C   UNL     1      -0.800   5.364   7.857  0.00  0.00    +0.001 A 
ATOM     17  C   UNL     1      -1.290   5.367   6.567  0.00  0.00    +0.008 A 
ENDBRANCH   7  12
BRANCH   1  18
ATOM     18  C   UNL     1       0.284   1.497  -0.009  0.00  0.00    -0.003 C 
BRANCH  18  20
ATOM     19  C   UNL     1      -1.905   1.165  -0.989  0.00  0.00    -0.095 C 
ATOM     20  N   UNL     1      -0.585   1.806  -1.164  0.00  0.00    +0.385 N 
ATOM     21  H   UNL     1      -0.714   2.824  -1.221  0.00  0.00    -0.081 HD
BRANCH  20  22
ATOM     22  C   UNL     1       0.046   1.331  -2.413  0.00  0.00    -0.041 C 
BRANCH  22  23
ATOM     23  C   UNL     1      -0.659   1.967  -3.583  0.00  0.00    -0.043 A 
ATOM     24  C   UNL     1      -1.514   1.216  -4.367  0.00  0.00    +0.036 A 
ATOM     25  C   UNL     1      -2.165   1.800  -5.437  0.00  0.00    +0.126 A 
ATOM     26  C   UNL     1      -1.952   3.135  -5.731  0.00  0.00    +0.034 A 
ATOM     27  C   UNL     1      -1.092   3.885  -4.952  0.00  0.00    +0.022 A 
ATOM     28  C   UNL     1      -0.445   3.302  -3.878  0.00  0.00    +0.042 A 
ATOM     29 CL   UNL     1       0.635   4.245  -2.898  0.00  0.00    -0.083 Cl
BRANCH  25  30
ATOM     30  N   UNL     1      -3.085   0.997  -6.272  0.00  0.00    +0.056 N 
ATOM     31  O   UNL     1      -3.654   1.510  -7.219  0.00  0.00    -0.126 OA
ATOM     32  O   UNL     1      -3.273  -0.179  -6.013  0.00  0.00    -0.126 OA
ENDBRANCH  25  30
ENDBRANCH  22  23
ENDBRANCH  20  22
ENDBRANCH  18  20
ENDBRANCH   1  18
TORSDOF 6
