REMARK  Name = ZINC46085484
REMARK  6 active torsions:
REMARK  status: ('A' for Active; 'I' for Inactive)
REMARK    1  A    between atoms: C_1  and  C_2
REMARK    2  A    between atoms: C_8  and  C_13
REMARK    3  A    between atoms: C_9  and  O_12
REMARK    4  A    between atoms: C_13  and  C_15
REMARK    5  A    between atoms: C_13  and  N_21
REMARK    6  A    between atoms: C_24  and  C_29
REMARK                            x       y       z     vdW  Elec       q    Type
REMARK                         _______ _______ _______ _____ _____    ______ ____
ROOT
ATOM      1  C   UNL     1       0.086  -4.769   3.747  0.00  0.00    +0.154 C 
ENDROOT
BRANCH   1   9
ATOM      2  C   UNL     1       0.074   1.414  -0.136  0.00  0.00    +0.065 C 
ATOM      3  C   UNL     1       0.138  -0.091  -0.107  0.00  0.00    +0.039 A 
ATOM      4  C   UNL     1       0.249  -0.789  -1.308  0.00  0.00    +0.023 A 
ATOM      5  C   UNL     1       0.308  -2.153  -1.300  0.00  0.00    +0.012 A 
ATOM      6  C   UNL     1       0.254  -2.813  -0.058  0.00  0.00    +0.004 A 
ATOM      7  C   UNL     1       0.309  -4.214   0.028  0.00  0.00    +0.010 A 
ATOM      8  C   UNL     1       0.255  -4.818   1.247  0.00  0.00    +0.010 A 
ATOM      9  C   UNL     1       0.144  -4.067   2.414  0.00  0.00    +0.022 A 
ATOM     10  C   UNL     1       0.087  -2.703   2.370  0.00  0.00    +0.148 A 
ATOM     11  C   UNL     1       0.141  -2.042   1.125  0.00  0.00    +0.113 A 
ATOM     12  N   UNL     1       0.093  -0.710   1.048  0.00  0.00    -0.248 NA
BRANCH  10  13
ATOM     13  O   UNL     1      -0.021  -1.986   3.519  0.00  0.00    -0.504 OA
ATOM     14  H   UNL     1       0.828  -1.740   3.911  0.00  0.00    +0.292 HD
ENDBRANCH  10  13
ENDBRANCH   1   9
BRANCH   1  15
ATOM     15  N   UNL     1      -0.481  -6.108   3.568  0.00  0.00    -0.317 N 
ATOM     16  C   UNL     1      -1.143  -6.729   4.621  0.00  0.00    +0.120 A 
ATOM     17  C   UNL     1      -1.269  -6.070   5.840  0.00  0.00    +0.048 A 
ATOM     18  C   UNL     1      -1.931  -6.699   6.879  0.00  0.00    -0.032 A 
ATOM     19  C   UNL     1      -2.446  -7.971   6.664  0.00  0.00    +0.039 A 
ATOM     20  C   UNL     1      -2.284  -8.566   5.428  0.00  0.00    +0.128 A 
ATOM     21  N   UNL     1      -1.653  -7.939   4.453  0.00  0.00    -0.239 NA
ATOM     22 BR   UNL     1      -3.359  -8.879   8.049  0.00  0.00    -0.048 Br
ATOM     23  C   UNL     1      -2.088  -6.019   8.215  0.00  0.00    +0.045 C 
ATOM     24  H   UNL     1      -0.394  -6.562   2.715  0.00  0.00    +0.148 HD
ENDBRANCH   1  15
BRANCH   1  25
ATOM     25  C   UNL     1       1.476  -4.883   4.315  0.00  0.00    +0.066 A 
ATOM     26  C   UNL     1       1.739  -4.396   5.582  0.00  0.00    +0.025 A 
ATOM     27  C   UNL     1       3.021  -4.506   6.096  0.00  0.00    +0.003 A 
ATOM     28  C   UNL     1       3.997  -5.105   5.314  0.00  0.00    +0.020 A 
ATOM     29  C   UNL     1       3.660  -5.570   4.056  0.00  0.00    +0.111 A 
ATOM     30  N   UNL     1       2.428  -5.453   3.602  0.00  0.00    -0.258 NA
ENDBRANCH   1  25
TORSDOF 4
