REMARK  Name = ZINC39692801
REMARK  9 active torsions:
REMARK  status: ('A' for Active; 'I' for Inactive)
REMARK    1  A    between atoms: CG_4  and  CB_7
REMARK    2  A    between atoms: CB_7  and  CA_8
REMARK    3  A    between atoms: CA_8  and  C_10
REMARK    4  A    between atoms: CA_8  and  N_13
REMARK    5  A    between atoms: C_14  and  C_16
REMARK    6  A    between atoms: C_16  and  S_17
REMARK    7  A    between atoms: S_17  and  C_18
REMARK    8  A    between atoms: C_22  and  C_31
REMARK    9  A    between atoms: N_24  and  C_25
REMARK                            x       y       z     vdW  Elec       q    Type
REMARK                         _______ _______ _______ _____ _____    ______ ____
ROOT
ATOM      1  C   UNK A   0       4.419   3.460   6.348  0.00  0.00    +0.276 C 
ATOM      2  N   UNK A   0       3.834   4.709   5.857  0.00  0.00    -0.156 NA
ATOM      3  N   UNK A   0       4.671   5.421   5.308  0.00  0.00    -0.160 NA
ATOM      4  C   UNK A   0       5.998   4.803   5.312  0.00  0.00    +0.264 C 
ATOM      5  N   UNK A   0       5.849   3.505   5.998  0.00  0.00    -0.270 N 
ENDROOT
BRANCH   4   6
ATOM      6  C   UNK A   0       6.476   4.591   3.899  0.00  0.00    +0.062 A 
ATOM      7  H   UNK A   0       7.447   2.753   4.017  0.00  0.00    +0.166 HD
ATOM      8  C   UNK A   0       6.277   5.446   2.883  0.00  0.00    +0.035 A 
ATOM      9  C   UNK A   0       6.901   4.853   1.697  0.00  0.00    +0.000 A 
ATOM     10  C   UNK A   0       7.029   5.253   0.366  0.00  0.00    +0.010 A 
ATOM     11  C   UNK A   0       7.689   4.451  -0.523  0.00  0.00    +0.001 A 
ATOM     12  C   UNK A   0       8.234   3.243  -0.112  0.00  0.00    +0.002 A 
ATOM     13  C   UNK A   0       8.120   2.829   1.197  0.00  0.00    +0.026 A 
ATOM     14  C   UNK A   0       7.452   3.629   2.118  0.00  0.00    +0.047 A 
ATOM     15  N   UNK A   0       7.181   3.503   3.462  0.00  0.00    -0.355 N 
ENDBRANCH   4   6
BRANCH   5  16
ATOM     16  C   UNK A   0       6.831   2.546   6.254  0.00  0.00    +0.034 A 
ATOM     17  C   UNK A   0       8.163   2.820   5.971  0.00  0.00    +0.023 A 
ATOM     18  C   UNK A   0       9.132   1.869   6.226  0.00  0.00    +0.002 A 
ATOM     19  C   UNK A   0       8.777   0.644   6.762  0.00  0.00    +0.000 A 
ATOM     20  C   UNK A   0       7.451   0.368   7.045  0.00  0.00    +0.002 A 
ATOM     21  C   UNK A   0       6.479   1.317   6.798  0.00  0.00    +0.023 A 
ENDBRANCH   5  16
BRANCH   1  22
ATOM     22  S   UNK A   0       3.625   2.041   5.544  0.00  0.00    -0.104 S 
BRANCH  22  23
ATOM     23  C   UNK A   0       3.899   2.330   3.774  0.00  0.00    +0.168 C 
BRANCH  23  25
ATOM     24  N   PHE A   1       3.360   1.211   1.635  0.00  0.00    -0.301 N 
ATOM     25  C   UNK A   0       3.280   1.208   2.981  0.00  0.00    +0.224 C 
ATOM     26  O   UNK A   0       2.711   0.303   3.553  0.00  0.00    -0.275 OA
ATOM     27  H   PHE A   1       3.816   1.935   1.178  0.00  0.00    +0.150 HD
BRANCH  24  28
ATOM     28  CA  PHE A   1       2.759   0.120   0.864  0.00  0.00    +0.191 C 
BRANCH  28  29
ATOM     29  C   PHE A   1       3.731  -1.028   0.775  0.00  0.00    +0.376 C 
ATOM     30  O   PHE A   1       4.931  -0.813   0.787  0.00  0.00    -0.244 OA
ATOM     31  OXT PHE A   1       3.317  -2.172   0.691  0.00  0.00    -0.244 OA
ENDBRANCH  28  29
BRANCH  28  32
ATOM     32  CB  PHE A   1       2.425   0.616  -0.545  0.00  0.00    +0.069 C 
BRANCH  32  36
ATOM     33  CZ  PHE A   1      -0.589   3.634  -0.318  0.00  0.00    +0.000 A 
ATOM     34  CE1 PHE A   1       0.746   3.985  -0.259  0.00  0.00    +0.000 A 
ATOM     35  CD1 PHE A   1       1.722   3.009  -0.332  0.00  0.00    +0.004 A 
ATOM     36  CG  PHE A   1       1.361   1.681  -0.464  0.00  0.00    -0.045 A 
ATOM     37  CD2 PHE A   1       0.026   1.329  -0.522  0.00  0.00    +0.004 A 
ATOM     38  CE2 PHE A   1      -0.950   2.306  -0.450  0.00  0.00    +0.000 A 
ENDBRANCH  32  36
ENDBRANCH  28  32
ENDBRANCH  24  28
ENDBRANCH  23  25
ENDBRANCH  22  23
ENDBRANCH   1  22
TORSDOF 9
