REMARK  Name = ZINC57270666
REMARK  8 active torsions:
REMARK  status: ('A' for Active; 'I' for Inactive)
REMARK    1  A    between atoms: C_1  and  C_2
REMARK    2  A    between atoms: C_2  and  C_4
REMARK    3  A    between atoms: C_2  and  N_23
REMARK    4  A    between atoms: N_6  and  C_7
REMARK    5  A    between atoms: C_10  and  C_13
REMARK    6  A    between atoms: C_13  and  C_14
REMARK    7  A    between atoms: N_26  and  C_29
REMARK    8  A    between atoms: C_34  and  O_35
REMARK                            x       y       z     vdW  Elec       q    Type
REMARK                         _______ _______ _______ _____ _____    ______ ____
ROOT
ATOM      1  C   UNL     1       0.666  -0.355  -1.330  0.00  0.00    +0.234 C 
ATOM      2  O   UNL     1       0.052  -0.924  -2.207  0.00  0.00    -0.274 OA
ATOM      3  N   UNL     1       1.991  -0.146  -1.462  0.00  0.00    -0.284 N 
ATOM      4  H   UNL     1       2.468   0.376  -0.797  0.00  0.00    +0.155 HD
ENDROOT
BRANCH   3   5
ATOM      5  C   UNL     1       2.678  -0.681  -2.557  0.00  0.00    +0.033 A 
ATOM      6  C   UNL     1       3.758   0.002  -3.102  0.00  0.00    +0.023 A 
ATOM      7  C   UNL     1       4.434  -0.529  -4.183  0.00  0.00    +0.006 A 
ATOM      8  C   UNL     1       4.037  -1.738  -4.723  0.00  0.00    -0.041 A 
ATOM      9  C   UNL     1       2.962  -2.420  -4.183  0.00  0.00    +0.006 A 
ATOM     10  C   UNL     1       2.285  -1.898  -3.098  0.00  0.00    +0.023 A 
BRANCH   8  11
ATOM     11  C   UNL     1       4.777  -2.315  -5.902  0.00  0.00    +0.098 C 
BRANCH  11  12
ATOM     12  C   UNL     1       5.901  -3.190  -5.411  0.00  0.00    +0.084 A 
ATOM     13  N   UNL     1       5.866  -4.465  -5.157  0.00  0.00    -0.244 NA
ATOM     14  C   UNL     1       6.949  -5.141  -4.719  0.00  0.00    +0.078 A 
ATOM     15  C   UNL     1       7.094  -6.506  -4.396  0.00  0.00    +0.029 A 
ATOM     16  C   UNL     1       8.291  -6.992  -3.966  0.00  0.00    +0.002 A 
ATOM     17  C   UNL     1       9.402  -6.172  -3.830  0.00  0.00    +0.001 A 
ATOM     18  C   UNL     1       9.299  -4.828  -4.137  0.00  0.00    +0.017 A 
ATOM     19  C   UNL     1       8.096  -4.328  -4.572  0.00  0.00    +0.039 A 
ATOM     20  S   UNL     1       7.488  -2.739  -5.075  0.00  0.00    -0.072 S 
ENDBRANCH  11  12
ENDBRANCH   8  11
ENDBRANCH   3   5
BRANCH   1  22
ATOM     21  C   UNL     1       0.097   1.636   0.035  0.00  0.00    +0.034 C 
ATOM     22  C   UNL     1      -0.052   0.119  -0.092  0.00  0.00    +0.140 C 
BRANCH  22  23
ATOM     23  N   UNL     1      -1.476  -0.227  -0.191  0.00  0.00    -0.289 NA
ATOM     24  C   UNL     1      -2.096   0.420  -1.355  0.00  0.00    +0.104 C 
ATOM     25  C   UNL     1      -3.525  -0.104  -1.526  0.00  0.00    +0.120 C 
ATOM     26  N   UNL     1      -4.245   0.078  -0.257  0.00  0.00    -0.325 N 
ATOM     27  C   UNL     1      -3.620  -0.424   0.976  0.00  0.00    +0.120 C 
ATOM     28  C   UNL     1      -2.187   0.113   1.049  0.00  0.00    +0.104 C 
BRANCH  26  29
ATOM     29  C   UNL     1      -5.493   0.712  -0.223  0.00  0.00    +0.072 A 
ATOM     30  C   UNL     1      -6.655  -0.033  -0.356  0.00  0.00    +0.027 A 
ATOM     31  C   UNL     1      -7.886   0.596  -0.322  0.00  0.00    +0.002 A 
ATOM     32  C   UNL     1      -7.962   1.966  -0.155  0.00  0.00    +0.004 A 
ATOM     33  C   UNL     1      -6.807   2.715  -0.022  0.00  0.00    +0.047 A 
ATOM     34  C   UNL     1      -5.570   2.092  -0.050  0.00  0.00    +0.138 A 
BRANCH  34  35
ATOM     35  O   UNL     1      -4.434   2.827   0.087  0.00  0.00    -0.505 OA
ATOM     36  H   UNL     1      -4.072   3.151  -0.750  0.00  0.00    +0.292 HD
ENDBRANCH  34  35
ENDBRANCH  26  29
ENDBRANCH  22  23
ENDBRANCH   1  22
TORSDOF 7
