REMARK  Name = ZINC25451528
REMARK  10 active torsions:
REMARK  status: ('A' for Active; 'I' for Inactive)
REMARK    1  A    between atoms: C_1  and  C_2
REMARK    2  A    between atoms: N_4  and  C_5
REMARK    3  A    between atoms: C_5  and  C_7
REMARK    4  A    between atoms: C_5  and  C_29
REMARK    5  A    between atoms: C_7  and  C_8
REMARK    6  A    between atoms: N_13  and  C_16
REMARK    7  A    between atoms: C_19  and  C_25
REMARK    8  A    between atoms: C_21  and  N_22
REMARK    9  A    between atoms: C_32  and  O_35
REMARK   10  A    between atoms: O_35  and  C_36
REMARK                            x       y       z     vdW  Elec       q    Type
REMARK                         _______ _______ _______ _____ _____    ______ ____
ROOT
ATOM      1  C   UNL     1      -1.224   0.381  -2.374  0.00  0.00    +0.218 C 
ATOM      2  O   UNL     1      -0.993  -0.798  -2.543  0.00  0.00    -0.276 OA
ATOM      3  N   UNL     1      -0.860   0.980  -1.223  0.00  0.00    -0.298 N 
ATOM      4  C   UNL     1      -0.180   0.224  -0.160  0.00  0.00    +0.126 C 
ATOM      5  C   UNL     1      -0.919   0.462   1.161  0.00  0.00    +0.124 C 
ATOM      6  N   UNL     1      -1.034   1.908   1.399  0.00  0.00    -0.325 N 
ATOM      7  C   UNL     1      -1.836   2.561   0.355  0.00  0.00    +0.124 C 
ATOM      8  C   UNL     1      -1.131   2.408  -0.997  0.00  0.00    +0.126 C 
ENDROOT
BRANCH   6   9
ATOM      9  C   UNL     1      -1.559   2.166   2.667  0.00  0.00    +0.060 A 
ATOM     10  C   UNL     1      -2.814   1.681   3.014  0.00  0.00    +0.026 A 
ATOM     11  C   UNL     1      -3.330   1.937   4.269  0.00  0.00    +0.014 A 
ATOM     12  C   UNL     1      -2.598   2.676   5.181  0.00  0.00    +0.057 A 
ATOM     13  C   UNL     1      -1.349   3.160   4.839  0.00  0.00    +0.047 A 
ATOM     14  C   UNL     1      -0.825   2.903   3.588  0.00  0.00    +0.148 A 
BRANCH  12  15
ATOM     15  C   UNL     1      -3.164   2.954   6.549  0.00  0.00    +0.417 C 
ATOM     16  F   UNL     1      -4.429   2.366   6.659  0.00  0.00    -0.166 F 
ATOM     17  F   UNL     1      -2.315   2.417   7.523  0.00  0.00    -0.166 F 
ATOM     18  F   UNL     1      -3.274   4.336   6.737  0.00  0.00    -0.166 F 
ENDBRANCH  12  15
BRANCH  14  19
ATOM     19  N   UNL     1       0.515   3.416   3.225  0.00  0.00    +0.058 N 
ATOM     20  O   UNL     1       1.197   3.981   4.062  0.00  0.00    -0.126 OA
ATOM     21  O   UNL     1       0.936   3.274   2.091  0.00  0.00    -0.126 OA
ENDBRANCH  14  19
ENDBRANCH   6   9
BRANCH   1  22
ATOM     22  C   UNL     1      -1.919   1.175  -3.449  0.00  0.00    +0.123 C 
BRANCH  22  23
ATOM     23  C   UNL     1      -2.221   0.264  -4.641  0.00  0.00    +0.112 C 
BRANCH  23  24
ATOM     24  C   UNL     1      -2.804   1.082  -5.764  0.00  0.00    -0.027 A 
ATOM     25  C   UNL     1      -3.686   0.501  -6.656  0.00  0.00    +0.009 A 
ATOM     26  C   UNL     1      -4.226   1.251  -7.683  0.00  0.00    +0.046 A 
ATOM     27  C   UNL     1      -3.874   2.585  -7.826  0.00  0.00    +0.120 A 
ATOM     28  C   UNL     1      -2.985   3.165  -6.933  0.00  0.00    +0.046 A 
ATOM     29  C   UNL     1      -2.452   2.412  -5.904  0.00  0.00    +0.009 A 
BRANCH  27  30
ATOM     30  O   UNL     1      -4.399   3.323  -8.839  0.00  0.00    -0.495 OA
ATOM     31  C   UNL     1      -5.309   2.661  -9.720  0.00  0.00    +0.277 C 
ENDBRANCH  27  30
ENDBRANCH  23  24
BRANCH  23  35
ATOM     32  C   UNL     1      -5.323  -1.465  -3.217  0.00  0.00    +0.109 C 
ATOM     33  C   UNL     1      -4.380  -0.410  -3.736  0.00  0.00    +0.210 C 
ATOM     34  O   UNL     1      -4.701   0.759  -3.702  0.00  0.00    -0.276 OA
ATOM     35  N   UNL     1      -3.182  -0.766  -4.238  0.00  0.00    -0.308 N 
ATOM     36  H   UNL     1      -2.924  -1.830  -4.345  0.00  0.00    +0.149 HD
ENDBRANCH  23  35
ENDBRANCH  22  23
ENDBRANCH   1  22
TORSDOF 8
