REMARK  Name = ZINC19990501
REMARK  9 active torsions:
REMARK  status: ('A' for Active; 'I' for Inactive)
REMARK    1  A    between atoms: C_1  and  C_2
REMARK    2  A    between atoms: C_5  and  C_8
REMARK    3  A    between atoms: C_17  and  S_19
REMARK    4  A    between atoms: S_19  and  C_20
REMARK    5  A    between atoms: C_20  and  C_21
REMARK    6  A    between atoms: N_23  and  C_24
REMARK    7  A    between atoms: C_25  and  C_37
REMARK    8  A    between atoms: N_26  and  C_36
REMARK    9  A    between atoms: N_27  and  C_30
REMARK                            x       y       z     vdW  Elec       q    Type
REMARK                         _______ _______ _______ _____ _____    ______ ____
ROOT
ATOM      1  S   UNL     1      -3.328   7.444   1.609  0.00  0.00    -0.078 S 
ENDROOT
BRANCH   1  11
ATOM      2  C   UNL     1      -2.627   3.053  -2.360  0.00  0.00    +0.004 A 
ATOM      3  C   UNL     1      -3.798   2.454  -2.681  0.00  0.00    +0.056 A 
ATOM      4  S   UNL     1      -4.996   3.329  -1.693  0.00  0.00    -0.076 S 
ATOM      5  C   UNL     1      -3.909   4.476  -0.885  0.00  0.00    +0.117 A 
ATOM      6  C   UNL     1      -2.641   4.150  -1.398  0.00  0.00    +0.080 A 
ATOM      7  C   UNL     1      -1.551   4.934  -0.908  0.00  0.00    +0.261 A 
ATOM      8  O   UNL     1      -0.415   4.723  -1.297  0.00  0.00    -0.267 OA
ATOM      9  N   UNL     1      -1.794   5.907  -0.011  0.00  0.00    -0.301 N 
ATOM     10  H   UNL     1      -0.965   6.518   0.376  0.00  0.00    +0.171 HD
ATOM     11  C   UNL     1      -3.059   6.158   0.435  0.00  0.00    +0.170 A 
ATOM     12  N   UNL     1      -4.082   5.451  -0.001  0.00  0.00    -0.216 NA
BRANCH   2  17
ATOM     13  C   UNL     1       2.301   1.319  -4.780  0.00  0.00    +0.044 C 
ATOM     14  C   UNL     1       1.012   1.773  -4.145  0.00  0.00    -0.050 A 
ATOM     15  C   UNL     1       0.165   0.845  -3.567  0.00  0.00    +0.004 A 
ATOM     16  C   UNL     1      -1.017   1.255  -2.985  0.00  0.00    +0.009 A 
ATOM     17  C   UNL     1      -1.357   2.607  -2.979  0.00  0.00    -0.017 A 
ATOM     18  C   UNL     1      -0.498   3.538  -3.563  0.00  0.00    +0.009 A 
ATOM     19  C   UNL     1       0.681   3.116  -4.143  0.00  0.00    +0.004 A 
ENDBRANCH   2  17
ENDBRANCH   1  11
BRANCH   1  20
ATOM     20  C   UNL     1      -5.121   7.312   1.815  0.00  0.00    +0.173 C 
BRANCH  20  21
ATOM     21  C   UNL     1      -5.591   8.346   2.805  0.00  0.00    +0.228 C 
ATOM     22  O   UNL     1      -4.792   9.099   3.321  0.00  0.00    -0.275 OA
ATOM     23  N   UNL     1      -6.899   8.435   3.117  0.00  0.00    -0.279 N 
ATOM     24  H   UNL     1      -7.635   7.812   2.587  0.00  0.00    +0.155 HD
BRANCH  23  25
ATOM     25  C   UNL     1      -7.325   9.325   4.123  0.00  0.00    +0.121 A 
ATOM     26  C   UNL     1      -8.108   9.024   5.182  0.00  0.00    +0.059 A 
ATOM     27  N   UNL     1      -8.292  10.158   5.927  0.00  0.00    -0.282 N 
ATOM     28  N   UNL     1      -7.612  11.221   5.321  0.00  0.00    -0.216 N 
ATOM     29  C   UNL     1      -7.006  10.751   4.211  0.00  0.00    +0.293 A 
ATOM     30  O   UNL     1      -6.324  11.391   3.432  0.00  0.00    -0.264 OA
ATOM     31  C   UNL     1      -9.081  10.247   7.159  0.00  0.00    +0.171 C 
ATOM     32  C   UNL     1      -8.681   7.665   5.494  0.00  0.00    +0.067 C 
BRANCH  28  33
ATOM     33  C   UNL     1      -7.569  12.540   5.784  0.00  0.00    +0.067 A 
ATOM     34  C   UNL     1      -8.744  13.192   6.137  0.00  0.00    +0.028 A 
ATOM     35  C   UNL     1      -8.697  14.493   6.599  0.00  0.00    +0.002 A 
ATOM     36  C   UNL     1      -7.484  15.149   6.701  0.00  0.00    +0.000 A 
ATOM     37  C   UNL     1      -6.314  14.504   6.346  0.00  0.00    +0.002 A 
ATOM     38  C   UNL     1      -6.353  13.201   5.888  0.00  0.00    +0.028 A 
ENDBRANCH  28  33
ENDBRANCH  23  25
ENDBRANCH  20  21
ENDBRANCH   1  20
TORSDOF 6
