REMARK  Name = ZINC21223937
REMARK  8 active torsions:
REMARK  status: ('A' for Active; 'I' for Inactive)
REMARK    1  A    between atoms: C_1  and  C_2
REMARK    2  A    between atoms: C_2  and  O_3
REMARK    3  A    between atoms: O_3  and  C_4
REMARK    4  A    between atoms: C_5  and  C_12
REMARK    5  A    between atoms: C_9  and  O_10
REMARK    6  A    between atoms: O_10  and  C_11
REMARK    7  A    between atoms: C_17  and  C_22
REMARK    8  A    between atoms: C_25  and  C_28
REMARK                            x       y       z     vdW  Elec       q    Type
REMARK                         _______ _______ _______ _____ _____    ______ ____
ROOT
ATOM      1  C   UNL     1       1.177   3.661   3.565  0.00  0.00    +0.140 C 
ATOM      2  C   UNL     1       1.478   2.242   3.987  0.00  0.00    +0.037 C 
ATOM      3  C   UNL     1       2.006   1.861   5.158  0.00  0.00    +0.017 C 
ATOM      4  C   UNL     1       2.263   0.391   5.448  0.00  0.00    +0.059 C 
ATOM      5  C   UNL     1       1.226  -0.473   4.732  0.00  0.00    +0.032 C 
ATOM      6  C   UNL     1       1.344  -0.194   3.228  0.00  0.00    +0.088 C 
ATOM      7  C   UNL     1       1.149   1.276   3.002  0.00  0.00    +0.163 C 
ATOM      8  O   UNL     1       0.692   1.650   1.940  0.00  0.00    -0.292 OA
ATOM      9  N   UNL     1       2.368   2.705   6.158  0.00  0.00    -0.316 N 
ATOM     10  C   UNL     1       1.589   3.753   6.637  0.00  0.00    +0.052 A 
ATOM     11  C   UNL     1       1.126   3.798   7.940  0.00  0.00    +0.025 A 
ATOM     12  C   UNL     1       0.427   4.912   8.374  0.00  0.00    +0.002 A 
ATOM     13  C   UNL     1       0.195   5.967   7.511  0.00  0.00    +0.002 A 
ATOM     14  C   UNL     1       0.637   5.913   6.200  0.00  0.00    +0.025 A 
ATOM     15  C   UNL     1       1.320   4.790   5.757  0.00  0.00    +0.049 A 
ATOM     16  N   UNL     1       1.738   4.673   4.434  0.00  0.00    -0.331 N 
ATOM     17  H   UNL     1       3.343   2.585   6.653  0.00  0.00    +0.152 HD
ATOM     18  H   UNL     1       2.506   5.362   4.052  0.00  0.00    +0.147 HD
ENDROOT
BRANCH   5  19
ATOM     19  C   UNL     1       1.500  -1.930   5.003  0.00  0.00    -0.043 A 
ATOM     20  C   UNL     1       2.706  -2.489   4.624  0.00  0.00    +0.004 A 
ATOM     21  C   UNL     1       2.958  -3.824   4.877  0.00  0.00    +0.003 A 
ATOM     22  C   UNL     1       2.002  -4.602   5.502  0.00  0.00    -0.050 A 
ATOM     23  C   UNL     1       0.794  -4.044   5.877  0.00  0.00    +0.003 A 
ATOM     24  C   UNL     1       0.543  -2.708   5.627  0.00  0.00    +0.004 A 
ATOM     25  C   UNL     1       2.276  -6.059   5.775  0.00  0.00    +0.044 C 
ENDBRANCH   5  19
BRANCH   1  27
ATOM     26  C   UNL     1      -0.875   4.857   2.767  0.00  0.00    +0.167 A 
ATOM     27  C   UNL     1      -0.319   3.840   3.527  0.00  0.00    +0.023 A 
ATOM     28  C   UNL     1      -1.136   2.991   4.249  0.00  0.00    +0.009 A 
ATOM     29  C   UNL     1      -2.509   3.152   4.215  0.00  0.00    +0.004 A 
ATOM     30  C   UNL     1      -3.070   4.164   3.459  0.00  0.00    +0.049 A 
ATOM     31  C   UNL     1      -2.257   5.023   2.737  0.00  0.00    +0.162 A 
BRANCH  31  32
ATOM     32  O   UNL     1      -2.807   6.022   1.998  0.00  0.00    -0.491 OA
ATOM     33  C   UNL     1      -4.232   6.133   2.015  0.00  0.00    +0.277 C 
ENDBRANCH  31  32
BRANCH  26  34
ATOM     34  O   UNL     1      -0.073   5.693   2.056  0.00  0.00    -0.488 OA
BRANCH  34  36
ATOM     35  C   UNL     1       1.165   6.343   0.084  0.00  0.00    +0.048 C 
ATOM     36  C   UNL     1       0.147   5.369   0.681  0.00  0.00    +0.226 C 
ENDBRANCH  34  36
ENDBRANCH  26  34
ENDBRANCH   1  27
TORSDOF 5
