REMARK  Name = ZINC09281262
REMARK  10 active torsions:
REMARK  status: ('A' for Active; 'I' for Inactive)
REMARK    1  A    between atoms: C_1  and  C_2
REMARK    2  A    between atoms: C_2  and  C_3
REMARK    3  A    between atoms: C_3  and  C_5
REMARK    4  A    between atoms: C_3  and  N_6
REMARK    5  A    between atoms: C_10  and  C_11
REMARK    6  A    between atoms: C_12  and  C_21
REMARK    7  A    between atoms: C_21  and  C_22
REMARK    8  A    between atoms: C_22  and  N_23
REMARK    9  A    between atoms: C_24  and  C_26
REMARK   10  A    between atoms: C_26  and  C_27
REMARK                            x       y       z     vdW  Elec       q    Type
REMARK                         _______ _______ _______ _____ _____    ______ ____
ROOT
ATOM      1  C   UNL     1       5.305   1.626  -0.578  0.00  0.00    +0.044 A 
ATOM      2  C   UNL     1       6.508   2.292  -0.684  0.00  0.00    -0.013 A 
ATOM      3  C   UNL     1       7.505   1.327  -0.949  0.00  0.00    +0.003 A 
ATOM      4  C   UNL     1       8.892   1.409  -1.149  0.00  0.00    +0.010 A 
ATOM      5  C   UNL     1       9.610   0.277  -1.398  0.00  0.00    +0.001 A 
ATOM      6  C   UNL     1       8.981  -0.961  -1.456  0.00  0.00    +0.002 A 
ATOM      7  C   UNL     1       7.622  -1.069  -1.263  0.00  0.00    +0.026 A 
ATOM      8  C   UNL     1       6.866   0.072  -1.007  0.00  0.00    +0.047 A 
ATOM      9  N   UNL     1       5.524   0.275  -0.779  0.00  0.00    -0.354 N 
ATOM     10  H   UNL     1       4.844  -0.416  -0.761  0.00  0.00    +0.166 HD
ENDROOT
BRANCH   1  15
ATOM     11  N   UNL     1       1.895   0.561  -2.810  0.00  0.00    -0.246 N 
ATOM     12  C   UNL     1       3.032   0.911  -2.174  0.00  0.00    +0.257 C 
ATOM     13  O   UNL     1       4.111   0.486  -2.543  0.00  0.00    -0.269 OA
ATOM     14  C   UNL     1       2.931   1.822  -1.018  0.00  0.00    +0.101 C 
ATOM     15  C   UNL     1       4.056   2.225  -0.315  0.00  0.00    +0.044 C 
ATOM     16  C   UNL     1       1.582   2.284  -0.644  0.00  0.00    +0.255 C 
ATOM     17  O   UNL     1       1.418   3.037   0.297  0.00  0.00    -0.270 OA
ATOM     18  N   UNL     1       0.534   1.850  -1.374  0.00  0.00    -0.263 N 
ATOM     19  C   UNL     1       0.700   1.020  -2.414  0.00  0.00    +0.146 C 
ATOM     20  S   UNL     1      -0.688   0.522  -3.282  0.00  0.00    -0.018 S 
ATOM     21  H   UNL     1      -0.360   2.147  -1.143  0.00  0.00    +0.157 HD
BRANCH  11  22
ATOM     22  C   UNL     1       1.968  -0.343  -3.961  0.00  0.00    +0.080 C 
ATOM     23  C   UNL     1       2.837   0.288  -5.051  0.00  0.00    +0.028 C 
BRANCH  22  25
ATOM     24  C   UNL     1       1.654  -2.364  -2.525  0.00  0.00    +0.006 C 
ATOM     25  C   UNL     1       2.584  -1.674  -3.525  0.00  0.00    +0.019 C 
ENDBRANCH  22  25
ENDBRANCH  11  22
ENDBRANCH   1  15
BRANCH   2  26
ATOM     26  C   UNL     1       6.721   3.777  -0.541  0.00  0.00    +0.056 C 
BRANCH  26  27
ATOM     27  C   UNL     1       7.011   4.112   0.923  0.00  0.00    +0.109 C 
BRANCH  27  28
ATOM     28  N   UNL     1       7.217   5.555   1.063  0.00  0.00    -0.315 N 
ATOM     29  C   UNL     1       7.489   6.084   2.272  0.00  0.00    +0.213 C 
ATOM     30  O   UNL     1       7.562   5.364   3.246  0.00  0.00    -0.276 OA
ATOM     31  H   UNL     1       7.158   6.131   0.284  0.00  0.00    +0.149 HD
BRANCH  29  32
ATOM     32  C   UNL     1       7.701   7.569   2.416  0.00  0.00    +0.092 C 
ATOM     33  C   UNL     1       7.991   7.904   3.880  0.00  0.00    +0.013 C 
ENDBRANCH  29  32
ENDBRANCH  27  28
ENDBRANCH  26  27
ENDBRANCH   2  26
TORSDOF 7
