REMARK  Name = ZINC38651303
REMARK  8 active torsions:
REMARK  status: ('A' for Active; 'I' for Inactive)
REMARK    1  A    between atoms: C_6  and  C_7
REMARK    2  A    between atoms: C_12  and  O_21
REMARK    3  A    between atoms: C_16  and  N_20
REMARK    4  A    between atoms: C_17  and  C_18
REMARK    5  A    between atoms: O_21  and  C_22
REMARK    6  A    between atoms: C_22  and  C_24
REMARK    7  A    between atoms: C_24  and  O_25
REMARK    8  A    between atoms: O_25  and  C_26
REMARK                            x       y       z     vdW  Elec       q    Type
REMARK                         _______ _______ _______ _____ _____    ______ ____
ROOT
ATOM      1  C   UNL     1      -1.305  -0.827  -0.026  0.00  0.00    +0.098 C 
ATOM      2  C   UNL     1      -1.359  -1.680   1.214  0.00  0.00    +0.008 A 
ATOM      3  C   UNL     1      -1.551  -1.079   2.446  0.00  0.00    +0.012 A 
ATOM      4  C   UNL     1      -1.603  -1.845   3.593  0.00  0.00    +0.047 A 
ATOM      5  C   UNL     1      -1.463  -3.224   3.514  0.00  0.00    +0.135 A 
ATOM      6  C   UNL     1      -1.272  -3.828   2.283  0.00  0.00    +0.093 A 
ATOM      7  C   UNL     1      -1.219  -3.056   1.129  0.00  0.00    +0.138 A 
ATOM      8  O   UNL     1      -1.031  -3.663  -0.068  0.00  0.00    -0.441 OA
ATOM      9  C   UNL     1      -1.356  -3.022  -1.203  0.00  0.00    +0.199 C 
ATOM     10  C   UNL     1      -1.500  -1.680  -1.248  0.00  0.00    +0.098 C 
ENDROOT
BRANCH   1  16
ATOM     11  C   UNL     1       0.106   1.238  -0.107  0.00  0.00    +0.006 A 
ATOM     12  C   UNL     1       1.335   1.866  -0.178  0.00  0.00    +0.020 A 
ATOM     13  C   UNL     1       2.494   1.114  -0.243  0.00  0.00    +0.041 A 
ATOM     14  C   UNL     1       2.422  -0.268  -0.238  0.00  0.00    +0.020 A 
ATOM     15  C   UNL     1       1.193  -0.895  -0.168  0.00  0.00    +0.006 A 
ATOM     16  C   UNL     1       0.035  -0.143  -0.102  0.00  0.00    -0.035 A 
ATOM     17 CL   UNL     1       4.038   1.902  -0.331  0.00  0.00    -0.084 Cl
ENDBRANCH   1  16
BRANCH   9  18
ATOM     18  N   UNL     1      -1.546  -3.752  -2.350  0.00  0.00    -0.328 N 
ATOM     19  H   UNL     1      -1.445  -4.717  -2.333  0.00  0.00    +0.145 HD
ATOM     20  H   UNL     1      -1.781  -3.304  -3.177  0.00  0.00    +0.145 HD
ENDBRANCH   9  18
BRANCH  10  21
ATOM     21  C   UNL     1      -1.847  -1.057  -2.490  0.00  0.00    +0.101 C 
ATOM     22  N   UNL     1      -2.122  -0.563  -3.475  0.00  0.00    -0.191 NA
ENDBRANCH  10  21
BRANCH   5  23
ATOM     23  O   UNL     1      -1.514  -3.979   4.643  0.00  0.00    -0.423 OA
BRANCH  23  24
ATOM     24  C   UNL     1      -0.383  -4.572   5.056  0.00  0.00    +0.350 C 
ATOM     25  O   UNL     1       0.660  -4.344   4.490  0.00  0.00    -0.247 OA
BRANCH  24  26
ATOM     26  C   UNL     1      -0.414  -5.523   6.225  0.00  0.00    +0.349 C 
BRANCH  26  27
ATOM     27  O   UNL     1       0.903  -6.020   6.470  0.00  0.00    -0.481 OA
BRANCH  27  28
ATOM     28  C   UNL     1       1.051  -6.896   7.498  0.00  0.00    +0.121 A 
ATOM     29  C   UNL     1      -0.050  -7.273   8.253  0.00  0.00    +0.047 A 
ATOM     30  C   UNL     1       0.102  -8.164   9.298  0.00  0.00    +0.019 A 
ATOM     31  C   UNL     1       1.352  -8.679   9.592  0.00  0.00    +0.018 A 
ATOM     32  C   UNL     1       2.452  -8.303   8.842  0.00  0.00    +0.019 A 
ATOM     33  C   UNL     1       2.303  -7.418   7.792  0.00  0.00    +0.047 A 
ATOM     34 BR   UNL     1       1.558  -9.897  11.024  0.00  0.00    -0.050 Br
ENDBRANCH  27  28
ENDBRANCH  26  27
ENDBRANCH  24  26
ENDBRANCH  23  24
ENDBRANCH   5  23
TORSDOF 8
