REMARK  Name = ZINC16662599
REMARK  5 active torsions:
REMARK  status: ('A' for Active; 'I' for Inactive)
REMARK    1  A    between atoms: C_1  and  C_2
REMARK    2  A    between atoms: C_2  and  C_16
REMARK    3  A    between atoms: N_3  and  N_4
REMARK    4  A    between atoms: C_7  and  C_10
REMARK    5  A    between atoms: C_21  and  O_22
REMARK                            x       y       z     vdW  Elec       q    Type
REMARK                         _______ _______ _______ _____ _____    ______ ____
ROOT
ATOM      1  N   UNL     1       0.024   0.035   2.340  0.00  0.00    -0.215 N 
ATOM      2  C   UNL     1       0.044  -0.664   3.535  0.00  0.00    +0.178 A 
ATOM      3  N   UNL     1       0.045  -0.203   4.773  0.00  0.00    -0.224 NA
ATOM      4  C   UNL     1       0.066  -1.024   5.812  0.00  0.00    +0.080 A 
ATOM      5  C   UNL     1       0.088  -2.374   5.600  0.00  0.00    +0.077 A 
ATOM      6  S   UNL     1       0.071  -2.429   3.813  0.00  0.00    -0.059 S 
ATOM      7  H   UNL     1       0.011   1.004   2.345  0.00  0.00    +0.176 HD
ENDROOT
BRANCH   4   8
ATOM      8  C   UNL     1       0.066  -0.484   7.194  0.00  0.00    +0.001 A 
ATOM      9  C   UNL     1       0.095  -1.351   8.284  0.00  0.00    +0.010 A 
ATOM     10  C   UNL     1       0.095  -0.843   9.567  0.00  0.00    +0.001 A 
ATOM     11  C   UNL     1       0.066   0.525   9.772  0.00  0.00    +0.000 A 
ATOM     12  C   UNL     1       0.036   1.391   8.693  0.00  0.00    +0.001 A 
ATOM     13  C   UNL     1       0.043   0.894   7.406  0.00  0.00    +0.010 A 
ENDBRANCH   4   8
BRANCH   1  16
ATOM     14  C   UNL     1      -0.018   1.503   0.010  0.00  0.00    +0.068 C 
ATOM     15  C   UNL     1       0.002  -0.004   0.002  0.00  0.00    +0.067 C 
ATOM     16  N   UNL     1       0.022  -0.659   1.123  0.00  0.00    -0.185 NA
BRANCH  15  17
ATOM     17  C   UNL     1      -0.000  -0.734  -1.278  0.00  0.00    +0.039 A 
ATOM     18  C   UNL     1      -0.015  -0.033  -2.486  0.00  0.00    +0.013 A 
ATOM     19  C   UNL     1      -0.017  -0.722  -3.681  0.00  0.00    +0.001 A 
ATOM     20  C   UNL     1      -0.004  -2.107  -3.688  0.00  0.00    +0.004 A 
ATOM     21  C   UNL     1       0.011  -2.812  -2.499  0.00  0.00    +0.046 A 
ATOM     22  C   UNL     1       0.019  -2.135  -1.290  0.00  0.00    +0.126 A 
BRANCH  22  23
ATOM     23  O   UNL     1       0.039  -2.827  -0.122  0.00  0.00    -0.506 OA
ATOM     24  H   UNL     1      -0.838  -3.040   0.225  0.00  0.00    +0.292 HD
ENDBRANCH  22  23
ENDBRANCH  15  17
ENDBRANCH   1  16
TORSDOF 4
