REMARK  Name = ZINC63667298
REMARK  10 active torsions:
REMARK  status: ('A' for Active; 'I' for Inactive)
REMARK    1  A    between atoms: C_1  and  C_2
REMARK    2  A    between atoms: C_5  and  N_8
REMARK    3  A    between atoms: C_12  and  C_14
REMARK    4  A    between atoms: C_16  and  C_21
REMARK    5  A    between atoms: N_19  and  C_20
REMARK    6  A    between atoms: C_21  and  C_22
REMARK    7  A    between atoms: C_22  and  C_23
REMARK    8  A    between atoms: N_25  and  C_26
REMARK    9  A    between atoms: C_26  and  C_27
REMARK   10  A    between atoms: C_27  and  C_28
REMARK                            x       y       z     vdW  Elec       q    Type
REMARK                         _______ _______ _______ _____ _____    ______ ____
ROOT
ATOM      1  N   UNL     1      -0.328  -4.279   0.154  0.00  0.00    -0.227 N 
ATOM      2  C   UNL     1       0.026  -5.148   1.280  0.00  0.00    +0.233 C 
ATOM      3  C   UNL     1       0.601  -6.379   0.593  0.00  0.00    +0.100 C 
ATOM      4  C   UNL     1       0.128  -6.347  -0.667  0.00  0.00    +0.044 C 
ATOM      5  N   UNL     1      -0.565  -5.188  -0.902  0.00  0.00    -0.265 N 
ATOM      6  C   UNL     1       0.329  -7.442  -1.683  0.00  0.00    +0.064 C 
ATOM      7  N   UNL     1       1.473  -7.113   1.284  0.00  0.00    -0.246 NA
ATOM      8  C   UNL     1       2.125  -6.581   2.284  0.00  0.00    +0.104 C 
ATOM      9  C   UNL     1       1.953  -5.191   2.697  0.00  0.00    +0.262 C 
ATOM     10  O   UNL     1       2.740  -4.689   3.478  0.00  0.00    -0.269 OA
ATOM     11  N   UNL     1       0.904  -4.449   2.222  0.00  0.00    -0.274 N 
ATOM     12  C   UNL     1       0.677  -3.054   2.610  0.00  0.00    +0.134 C 
ATOM     13  H   UNL     1      -1.129  -5.017  -1.672  0.00  0.00    +0.170 HD
ENDROOT
BRANCH   1  18
ATOM     14  C   UNL     1      -0.687   1.380   0.062  0.00  0.00    +0.044 C 
ATOM     15  C   UNL     1      -0.592  -0.124   0.086  0.00  0.00    -0.050 A 
ATOM     16  C   UNL     1       0.280  -0.774  -0.768  0.00  0.00    +0.005 A 
ATOM     17  C   UNL     1       0.370  -2.152  -0.748  0.00  0.00    +0.025 A 
ATOM     18  C   UNL     1      -0.416  -2.885   0.132  0.00  0.00    +0.050 A 
ATOM     19  C   UNL     1      -1.291  -2.229   0.989  0.00  0.00    +0.025 A 
ATOM     20  C   UNL     1      -1.372  -0.851   0.967  0.00  0.00    +0.005 A 
ENDBRANCH   1  18
BRANCH   8  21
ATOM     21  C   UNL     1       3.099  -7.442   3.047  0.00  0.00    +0.070 C 
BRANCH  21  22
ATOM     22  C   UNL     1       3.116  -8.848   2.445  0.00  0.00    +0.102 C 
BRANCH  22  23
ATOM     23  C   UNL     1       4.090  -9.709   3.207  0.00  0.00    +0.213 C 
ATOM     24  O   UNL     1       4.710  -9.244   4.140  0.00  0.00    -0.276 OA
ATOM     25  N   UNL     1       4.273 -10.996   2.852  0.00  0.00    -0.315 N 
ATOM     26  H   UNL     1       3.778 -11.369   2.106  0.00  0.00    +0.149 HD
BRANCH  25  27
ATOM     27  C   UNL     1       5.220 -11.833   3.593  0.00  0.00    +0.108 C 
BRANCH  27  28
ATOM     28  C   UNL     1       5.237 -13.240   2.991  0.00  0.00    +0.052 C 
BRANCH  28  29
ATOM     29  C   UNL     1       6.212 -14.101   3.753  0.00  0.00    -0.040 C 
ATOM     30  C   UNL     1       5.928 -14.939   4.776  0.00  0.00    -0.001 A 
ATOM     31  C   UNL     1       4.677 -15.286   5.459  0.00  0.00    +0.010 A 
ATOM     32  C   UNL     1       4.710 -16.180   6.474  0.00  0.00    +0.001 A 
ATOM     33  C   UNL     1       5.906 -16.781   6.888  0.00  0.00    +0.002 A 
ATOM     34  C   UNL     1       7.096 -16.512   6.309  0.00  0.00    +0.026 A 
ATOM     35  C   UNL     1       7.178 -15.588   5.232  0.00  0.00    +0.043 A 
ATOM     36  N   UNL     1       8.195 -15.167   4.519  0.00  0.00    -0.380 N 
ATOM     37  C   UNL     1       7.703 -14.207   3.525  0.00  0.00    +0.144 C 
ATOM     38  H   UNL     1       9.117 -15.447   4.628  0.00  0.00    +0.160 HD
ENDBRANCH  28  29
ENDBRANCH  27  28
ENDBRANCH  25  27
ENDBRANCH  22  23
ENDBRANCH  21  22
ENDBRANCH   8  21
TORSDOF 7
