REMARK  Name = ZINC00643041
REMARK  2 active torsions:
REMARK  status: ('A' for Active; 'I' for Inactive)
REMARK    1  A    between atoms: C_4  and  C_7
REMARK    2  A    between atoms: C_19  and  C_22
REMARK                            x       y       z     vdW  Elec       q    Type
REMARK                         _______ _______ _______ _____ _____    ______ ____
ROOT
ATOM      1  C   UNL     1       5.017  -2.028   2.335  0.00  0.00    -0.002 A 
ATOM      2  C   UNL     1       6.012  -1.782   3.275  0.00  0.00    -0.018 A 
ATOM      3  C   UNL     1       5.689  -1.680   4.617  0.00  0.00    +0.046 A 
ATOM      4  N   UNL     1       4.434  -1.813   5.013  0.00  0.00    -0.244 NA
ATOM      5  C   UNL     1       3.455  -2.042   4.166  0.00  0.00    +0.112 A 
ATOM      6  C   UNL     1       3.668  -2.170   2.776  0.00  0.00    +0.037 A 
ATOM      7  C   UNL     1       2.481  -2.434   1.973  0.00  0.00    +0.058 A 
ATOM      8  C   UNL     1       1.273  -2.496   2.659  0.00  0.00    +0.097 A 
ATOM      9  S   UNL     1       1.701  -2.262   4.354  0.00  0.00    -0.062 S 
ATOM     10  C   UNL     1       0.030  -2.722   2.040  0.00  0.00    +0.254 C 
ATOM     11  O   UNL     1      -0.985  -2.944   2.676  0.00  0.00    -0.270 OA
ATOM     12  N   UNL     1       0.044  -2.675   0.681  0.00  0.00    -0.289 N 
ATOM     13  C   UNL     1       1.229  -2.186  -0.021  0.00  0.00    +0.190 C 
ATOM     14  N   UNL     1       2.481  -2.643   0.583  0.00  0.00    -0.321 N 
ATOM     15  C   UNL     1       6.943  -1.414   5.424  0.00  0.00    +0.056 C 
ATOM     16  C   UNL     1       7.989  -0.930   4.398  0.00  0.00    +0.011 C 
ATOM     17  C   UNL     1       7.503  -1.591   3.091  0.00  0.00    +0.038 C 
ATOM     18  H   UNL     1      -0.731  -2.967   0.177  0.00  0.00    +0.151 HD
ATOM     19  H   UNL     1       2.656  -3.612   0.363  0.00  0.00    +0.148 HD
ENDROOT
BRANCH   1  23
ATOM     20  C   UNL     1       5.981  -2.349  -1.792  0.00  0.00    +0.000 A 
ATOM     21  C   UNL     1       5.488  -3.449  -1.113  0.00  0.00    +0.001 A 
ATOM     22  C   UNL     1       5.174  -3.351   0.227  0.00  0.00    +0.008 A 
ATOM     23  C   UNL     1       5.353  -2.140   0.896  0.00  0.00    -0.017 A 
ATOM     24  C   UNL     1       5.845  -1.034   0.204  0.00  0.00    +0.008 A 
ATOM     25  C   UNL     1       6.161  -1.146  -1.134  0.00  0.00    +0.001 A 
ENDBRANCH   1  23
BRANCH  13  26
ATOM     26  C   UNL     1       1.208  -0.679  -0.013  0.00  0.00    -0.009 A 
ATOM     27  C   UNL     1       0.002  -0.004   0.002  0.00  0.00    +0.007 A 
ATOM     28  C   UNL     1      -0.017   1.378   0.010  0.00  0.00    +0.000 A 
ATOM     29  C   UNL     1       1.171   2.086   0.002  0.00  0.00    +0.000 A 
ATOM     30  C   UNL     1       2.377   1.411  -0.015  0.00  0.00    +0.000 A 
ATOM     31  C   UNL     1       2.396   0.029  -0.021  0.00  0.00    +0.007 A 
ENDBRANCH  13  26
TORSDOF 2
