REMARK  Name = ZINC50043615
REMARK  6 active torsions:
REMARK  status: ('A' for Active; 'I' for Inactive)
REMARK    1  A    between atoms: C_1  and  C_2
REMARK    2  A    between atoms: C_4  and  C_18
REMARK    3  A    between atoms: C_6  and  O_8
REMARK    4  A    between atoms: O_8  and  C_9
REMARK    5  A    between atoms: C_10  and  C_16
REMARK    6  A    between atoms: C_16  and  O_17
REMARK                            x       y       z     vdW  Elec       q    Type
REMARK                         _______ _______ _______ _____ _____    ______ ____
ROOT
ATOM      1  C   UNL     1      -1.032  -2.676   3.169  0.00  0.00    +0.226 A 
ATOM      2  C   UNL     1      -1.010  -3.274   4.423  0.00  0.00    +0.041 A 
ATOM      3  C   UNL     1      -2.122  -3.165   5.241  0.00  0.00    +0.028 A 
ATOM      4  C   UNL     1      -3.221  -2.457   4.772  0.00  0.00    +0.037 A 
ATOM      5  C   UNL     1      -3.173  -1.889   3.514  0.00  0.00    +0.130 A 
ATOM      6  N   UNL     1      -2.097  -2.006   2.760  0.00  0.00    -0.220 NA
ATOM      7 BR   UNL     1      -4.768  -2.275   5.845  0.00  0.00    -0.049 Br
ENDROOT
BRANCH   1   8
ATOM      8  O   UNL     1       0.051  -2.776   2.359  0.00  0.00    -0.438 OA
BRANCH   8  14
ATOM      9  C   UNL     1       0.482   1.463  -0.024  0.00  0.00    +0.044 C 
ATOM     10  C   UNL     1       0.241  -0.025  -0.015  0.00  0.00    -0.047 A 
ATOM     11  C   UNL     1       0.003  -0.693  -1.202  0.00  0.00    +0.007 A 
ATOM     12  C   UNL     1      -0.218  -2.058  -1.198  0.00  0.00    -0.047 A 
ATOM     13  C   UNL     1      -0.203  -2.757  -0.007  0.00  0.00    +0.049 A 
ATOM     14  C   UNL     1       0.036  -2.090   1.186  0.00  0.00    +0.131 A 
ATOM     15  C   UNL     1       0.263  -0.721   1.178  0.00  0.00    +0.049 A 
ATOM     16  C   UNL     1      -0.476  -2.782  -2.494  0.00  0.00    +0.044 C 
ENDBRANCH   8  14
ENDBRANCH   1   8
BRANCH   2  17
ATOM     17  C   UNL     1       0.207  -4.031   4.887  0.00  0.00    +0.196 C 
BRANCH  17  18
ATOM     18  O   UNL     1      -0.023  -4.545   6.200  0.00  0.00    -0.390 OA
ATOM     19  H   UNL     1       0.721  -5.045   6.563  0.00  0.00    +0.210 HD
ENDBRANCH  17  18
ENDBRANCH   2  17
TORSDOF 4
