REMARK  Name = ZINC66692354
REMARK  8 active torsions:
REMARK  status: ('A' for Active; 'I' for Inactive)
REMARK    1  A    between atoms: C_1  and  C_2
REMARK    2  A    between atoms: C_2  and  C_3
REMARK    3  A    between atoms: C_3  and  N_4
REMARK    4  A    between atoms: N_7  and  C_8
REMARK    5  A    between atoms: C_8  and  C_9
REMARK    6  A    between atoms: C_8  and  C_10
REMARK    7  A    between atoms: C_8  and  C_11
REMARK    8  A    between atoms: C_17  and  C_20
REMARK                            x       y       z     vdW  Elec       q    Type
REMARK                         _______ _______ _______ _____ _____    ______ ____
ROOT
ATOM      1  C   UNL     1       1.869  -6.184  -3.307  0.00  0.00    +0.239 C 
ATOM      2  O   UNL     1       1.763  -6.850  -4.316  0.00  0.00    -0.273 OA
ATOM      3  N   UNL     1       1.852  -6.783  -2.100  0.00  0.00    -0.295 N 
ATOM      4  C   UNL     1       1.648  -8.235  -1.977  0.00  0.00    +0.136 C 
ATOM      5  C   UNL     1       2.754  -8.805  -1.082  0.00  0.00    +0.179 C 
ATOM      6  O   UNL     1       2.799  -8.065   0.140  0.00  0.00    -0.369 OA
ATOM      7  C   UNL     1       3.126  -6.683  -0.025  0.00  0.00    +0.166 C 
ATOM      8  C   UNL     1       2.044  -6.005  -0.866  0.00  0.00    +0.144 C 
ENDROOT
BRANCH   7   9
ATOM      9  C   UNL     1       3.206  -6.020   1.326  0.00  0.00    -0.015 A 
ATOM     10  C   UNL     1       2.359  -6.420   2.343  0.00  0.00    +0.006 A 
ATOM     11  C   UNL     1       2.431  -5.813   3.583  0.00  0.00    +0.003 A 
ATOM     12  C   UNL     1       3.350  -4.805   3.807  0.00  0.00    +0.038 A 
ATOM     13  C   UNL     1       4.199  -4.404   2.790  0.00  0.00    +0.124 A 
ATOM     14  C   UNL     1       4.130  -5.017   1.550  0.00  0.00    +0.044 A 
ATOM     15  F   UNL     1       5.098  -3.419   3.008  0.00  0.00    -0.205 F 
ENDBRANCH   7   9
BRANCH   1  16
ATOM     16  C   UNL     1       2.019  -4.688  -3.405  0.00  0.00    +0.107 C 
ATOM     17  C   UNL     1       0.763  -4.012  -2.852  0.00  0.00    +0.041 C 
ATOM     18  C   UNL     1       2.212  -4.289  -4.869  0.00  0.00    +0.041 C 
BRANCH  16  22
ATOM     19  N   UNL     1       4.546  -2.561  -1.789  0.00  0.00    -0.299 N 
ATOM     20  C   UNL     1       3.474  -2.952  -2.506  0.00  0.00    +0.300 C 
ATOM     21  O   UNL     1       2.767  -2.122  -3.044  0.00  0.00    -0.253 OA
ATOM     22  N   UNL     1       3.185  -4.263  -2.625  0.00  0.00    -0.286 N 
ATOM     23  H   UNL     1       5.110  -3.223  -1.359  0.00  0.00    +0.150 HD
ATOM     24  H   UNL     1       3.749  -4.925  -2.196  0.00  0.00    +0.151 HD
BRANCH  19  25
ATOM     25  C   UNL     1       4.860  -1.136  -1.659  0.00  0.00    +0.105 C 
BRANCH  25  27
ATOM     26  C   UNL     1       6.444   0.522  -0.665  0.00  0.00    +0.005 C 
ATOM     27  C   UNL     1       6.116  -0.967  -0.801  0.00  0.00    +0.015 C 
ENDBRANCH  25  27
ENDBRANCH  19  25
ENDBRANCH  16  22
ENDBRANCH   1  16
TORSDOF 5
