REMARK  Name = ZINC36447694
REMARK  8 active torsions:
REMARK  status: ('A' for Active; 'I' for Inactive)
REMARK    1  A    between atoms: C_1  and  C_2
REMARK    2  A    between atoms: C_4  and  C_11
REMARK    3  A    between atoms: C_5  and  C_10
REMARK    4  A    between atoms: N_6  and  C_7
REMARK    5  A    between atoms: C_11  and  C_13
REMARK    6  A    between atoms: C_13  and  N_14
REMARK    7  A    between atoms: N_17  and  S_20
REMARK    8  A    between atoms: S_20  and  C_23
REMARK                            x       y       z     vdW  Elec       q    Type
REMARK                         _______ _______ _______ _____ _____    ______ ____
ROOT
ATOM      1  N   UNL     1      -0.025  -4.601  -3.553  0.00  0.00    -0.293 NA
ATOM      2  C   UNL     1      -1.131  -5.455  -3.099  0.00  0.00    +0.102 C 
ATOM      3  C   UNL     1      -0.907  -6.885  -3.600  0.00  0.00    +0.125 C 
ATOM      4  N   UNL     1      -0.712  -6.844  -5.057  0.00  0.00    -0.174 NA
ATOM      5  C   UNL     1       0.286  -5.910  -5.600  0.00  0.00    +0.125 C 
ATOM      6  C   UNL     1       0.015  -4.518  -5.019  0.00  0.00    +0.102 C 
ENDROOT
BRANCH   4   7
ATOM      7  S   UNL     1      -1.592  -7.825  -6.061  0.00  0.00    +0.067 S 
ATOM      8  O   UNL     1      -0.832  -7.973  -7.252  0.00  0.00    -0.152 OA
ATOM      9  O   UNL     1      -2.009  -8.936  -5.279  0.00  0.00    -0.152 OA
BRANCH   7  10
ATOM     10  C   UNL     1      -3.052  -6.943  -6.502  0.00  0.00    +0.144 A 
ATOM     11  C   UNL     1      -3.263  -6.113  -7.552  0.00  0.00    +0.037 A 
ATOM     12  C   UNL     1      -4.505  -5.523  -7.702  0.00  0.00    +0.025 A 
ATOM     13  C   UNL     1      -5.474  -5.793  -6.793  0.00  0.00    +0.057 A 
ATOM     14  S   UNL     1      -4.639  -6.917  -5.685  0.00  0.00    -0.062 S 
ATOM     15 BR   UNL     1      -7.252  -5.152  -6.721  0.00  0.00    -0.043 Br
ENDBRANCH   7  10
ENDBRANCH   4   7
BRANCH   1  16
ATOM     16  C   UNL     1      -0.111  -3.263  -2.952  0.00  0.00    +0.164 C 
BRANCH  16  17
ATOM     17  C   UNL     1       0.096  -3.368  -1.463  0.00  0.00    +0.179 C 
ATOM     18  O   UNL     1       0.295  -4.450  -0.953  0.00  0.00    -0.291 OA
BRANCH  17  22
ATOM     19  C   UNL     1      -0.304   1.483   0.043  0.00  0.00    +0.063 C 
ATOM     20  C   UNL     1      -0.124  -0.013   0.017  0.00  0.00    +0.017 A 
ATOM     21  C   UNL     1      -0.173  -0.783  -1.083  0.00  0.00    +0.034 A 
ATOM     22  C   UNL     1       0.056  -2.163  -0.632  0.00  0.00    +0.039 A 
ATOM     23  C   UNL     1       0.226  -2.089   0.738  0.00  0.00    +0.027 A 
ATOM     24  N   UNL     1       0.120  -0.800   1.105  0.00  0.00    -0.345 N 
ATOM     25  C   UNL     1       0.489  -3.252   1.659  0.00  0.00    +0.064 C 
BRANCH  24  26
ATOM     26  C   UNL     1       0.246  -0.309   2.479  0.00  0.00    +0.087 C 
ATOM     27  C   UNL     1       1.153   0.900   2.718  0.00  0.00    +0.027 C 
ATOM     28  C   UNL     1       1.597  -0.491   3.174  0.00  0.00    +0.027 C 
ENDBRANCH  24  26
ENDBRANCH  17  22
ENDBRANCH  16  17
ENDBRANCH   1  16
TORSDOF 6
