REMARK  Name = ZINC12293363
REMARK  5 active torsions:
REMARK  status: ('A' for Active; 'I' for Inactive)
REMARK    1  A    between atoms: C_4  and  C_7
REMARK    2  A    between atoms: C_7  and  C_9
REMARK    3  A    between atoms: C_7  and  O_30
REMARK    4  A    between atoms: C_9  and  N_56
REMARK    5  A    between atoms: C_16  and  O_29
REMARK                            x       y       z     vdW  Elec       q    Type
REMARK                         _______ _______ _______ _____ _____    ______ ____
ROOT
ATOM      1  C   UNL     1       4.081   6.184  -0.437  0.00  0.00    -0.075 C 
ATOM      2  C   UNL     1       5.512   6.699  -0.263  0.00  0.00    +0.029 C 
ATOM      3  C   UNL     1       6.078   7.091  -1.628  0.00  0.00    +0.110 C 
ATOM      4  C   UNL     1       6.021   5.885  -2.568  0.00  0.00    +0.029 C 
ATOM      5  C   UNL     1       4.575   5.395  -2.675  0.00  0.00    -0.075 C 
ATOM      6  C   UNL     1       7.532   7.549  -1.471  0.00  0.00    +0.084 C 
ATOM      7  C   UNL     1       7.567   8.702  -0.465  0.00  0.00    +0.152 C 
ATOM      8  C   UNL     1       6.506   9.717  -0.812  0.00  0.00    +0.023 A 
ATOM      9  C   UNL     1       6.626  11.005  -0.281  0.00  0.00    +0.010 A 
ATOM     10  C   UNL     1       5.706  11.970  -0.543  0.00  0.00    +0.009 A 
ATOM     11  C   UNL     1       4.603  11.675  -1.362  0.00  0.00    -0.014 A 
ATOM     12  C   UNL     1       3.624  12.643  -1.648  0.00  0.00    +0.008 A 
ATOM     13  C   UNL     1       2.570  12.317  -2.446  0.00  0.00    +0.001 A 
ATOM     14  C   UNL     1       2.446  11.037  -2.983  0.00  0.00    +0.001 A 
ATOM     15  C   UNL     1       3.375  10.076  -2.727  0.00  0.00    +0.012 A 
ATOM     16  C   UNL     1       4.476  10.376  -1.908  0.00  0.00    +0.024 A 
ATOM     17  C   UNL     1       5.456   9.398  -1.621  0.00  0.00    +0.135 A 
ATOM     18  O   UNL     1       5.320   8.167  -2.177  0.00  0.00    -0.485 OA
ATOM     19  N   UNL     1       4.101   5.005  -1.329  0.00  0.00    +0.382 N 
ATOM     20  H   UNL     1       4.742   4.304  -0.941  0.00  0.00    -0.082 HD
ENDROOT
BRANCH   7  21
ATOM     21  O   UNL     1       8.852   9.326  -0.503  0.00  0.00    -0.387 OA
ATOM     22  H   UNL     1       8.947  10.068   0.110  0.00  0.00    +0.210 HD
ENDBRANCH   7  21
BRANCH  19  23
ATOM     23  C   UNL     1       2.748   4.420  -1.422  0.00  0.00    -0.042 C 
BRANCH  23  24
ATOM     24  C   UNL     1       2.871   2.983  -1.934  0.00  0.00    +0.128 C 
BRANCH  24  28
ATOM     25  C   UNL     1      -1.018   1.235  -2.202  0.00  0.00    +0.000 A 
ATOM     26  C   UNL     1      -0.400   1.724  -3.337  0.00  0.00    +0.000 A 
ATOM     27  C   UNL     1       0.858   2.291  -3.250  0.00  0.00    +0.006 A 
ATOM     28  C   UNL     1       1.500   2.365  -2.028  0.00  0.00    -0.021 A 
ATOM     29  C   UNL     1       0.884   1.871  -0.893  0.00  0.00    +0.006 A 
ATOM     30  C   UNL     1      -0.373   1.304  -0.981  0.00  0.00    +0.000 A 
ENDBRANCH  24  28
BRANCH  24  31
ATOM     31  O   UNL     1       3.675   2.223  -1.030  0.00  0.00    -0.389 OA
ATOM     32  H   UNL     1       3.320   2.176  -0.132  0.00  0.00    +0.210 HD
ENDBRANCH  24  31
ENDBRANCH  23  24
ENDBRANCH  19  23
TORSDOF 5
