REMARK  Name = ZINC36637717
REMARK  9 active torsions:
REMARK  status: ('A' for Active; 'I' for Inactive)
REMARK    1  A    between atoms: C_1  and  C_2
REMARK    2  A    between atoms: C_2  and  N_3
REMARK    3  A    between atoms: N_3  and  C_4
REMARK    4  A    between atoms: N_3  and  C_6
REMARK    5  A    between atoms: C_4  and  C_5
REMARK    6  A    between atoms: C_6  and  C_7
REMARK    7  A    between atoms: C_7  and  N_8
REMARK    8  A    between atoms: C_14  and  C_18
REMARK    9  A    between atoms: C_19  and  C_21
REMARK                            x       y       z     vdW  Elec       q    Type
REMARK                         _______ _______ _______ _____ _____    ______ ____
ROOT
ATOM      1  N   UNL     1      -1.602  -3.930  -1.674  0.00  0.00    -0.248 N 
ATOM      2  C   UNL     1      -1.822  -4.744  -0.577  0.00  0.00    +0.168 A 
ATOM      3  N   UNL     1      -1.752  -4.442   0.699  0.00  0.00    -0.224 NA
ATOM      4  C   UNL     1      -1.995  -5.346   1.673  0.00  0.00    +0.080 A 
ATOM      5  C   UNL     1      -1.954  -5.154   3.073  0.00  0.00    +0.029 A 
ATOM      6  C   UNL     1      -2.230  -6.186   3.931  0.00  0.00    +0.005 A 
ATOM      7  C   UNL     1      -2.558  -7.450   3.461  0.00  0.00    -0.049 A 
ATOM      8  C   UNL     1      -2.608  -7.674   2.098  0.00  0.00    +0.020 A 
ATOM      9  C   UNL     1      -2.333  -6.646   1.232  0.00  0.00    +0.041 A 
ATOM     10  S   UNL     1      -2.283  -6.470  -0.536  0.00  0.00    -0.052 S 
ATOM     11  C   UNL     1      -2.856  -8.567   4.428  0.00  0.00    +0.044 C 
ATOM     12  C   UNL     1      -1.732  -4.428  -2.920  0.00  0.00    +0.259 C 
ATOM     13  O   UNL     1      -2.128  -5.567  -3.081  0.00  0.00    -0.269 OA
ENDROOT
BRANCH  12  14
ATOM     14  C   UNL     1      -1.394  -3.595  -4.084  0.00  0.00    +0.122 A 
ATOM     15  C   UNL     1      -2.248  -2.588  -4.530  0.00  0.00    +0.032 A 
ATOM     16  C   UNL     1      -1.867  -1.854  -5.671  0.00  0.00    +0.026 A 
ATOM     17  C   UNL     1      -2.597  -0.648  -6.066  0.00  0.00    -0.007 A 
ATOM     18  C   UNL     1      -3.703  -0.192  -5.345  0.00  0.00    +0.009 A 
ATOM     19  C   UNL     1      -4.354   0.938  -5.750  0.00  0.00    +0.001 A 
ATOM     20  C   UNL     1      -3.930   1.642  -6.872  0.00  0.00    +0.001 A 
ATOM     21  C   UNL     1      -2.854   1.224  -7.597  0.00  0.00    +0.008 A 
ATOM     22  C   UNL     1      -2.162   0.066  -7.208  0.00  0.00    -0.017 A 
ATOM     23  C   UNL     1      -1.045  -0.396  -7.932  0.00  0.00    +0.012 A 
ATOM     24  C   UNL     1      -0.383  -1.520  -7.560  0.00  0.00    +0.047 A 
ATOM     25  C   UNL     1      -0.774  -2.268  -6.446  0.00  0.00    +0.140 A 
ATOM     26  O   UNL     1      -0.113  -3.406  -6.127  0.00  0.00    -0.422 OA
ATOM     27  C   UNL     1      -0.136  -3.786  -4.826  0.00  0.00    +0.350 A 
ATOM     28  O   UNL     1       0.845  -4.269  -4.290  0.00  0.00    -0.244 OA
ENDBRANCH  12  14
BRANCH   1  29
ATOM     29  C   UNL     1      -1.229  -2.526  -1.482  0.00  0.00    +0.097 C 
BRANCH  29  30
ATOM     30  C   UNL     1       0.295  -2.396  -1.507  0.00  0.00    -0.059 C 
BRANCH  30  31
ATOM     31  N   UNL     1       0.670  -0.989  -1.314  0.00  0.00    +0.380 N 
ATOM     32  H   UNL     1       0.206  -0.419  -2.007  0.00  0.00    -0.082 HD
BRANCH  31  34
ATOM     33  C   UNL     1       0.527   0.946   0.180  0.00  0.00    -0.017 C 
ATOM     34  C   UNL     1       0.265  -0.553   0.029  0.00  0.00    -0.082 C 
ENDBRANCH  31  34
BRANCH  31  35
ATOM     35  C   UNL     1       2.125  -0.845  -1.457  0.00  0.00    -0.082 C 
ATOM     36  C   UNL     1       2.530  -1.162  -2.898  0.00  0.00    -0.017 C 
ENDBRANCH  31  35
ENDBRANCH  30  31
ENDBRANCH  29  30
ENDBRANCH   1  29
TORSDOF 6
