REMARK  Name = ZINC36659952
REMARK  5 active torsions:
REMARK  status: ('A' for Active; 'I' for Inactive)
REMARK    1  A    between atoms: C_4  and  C_7
REMARK    2  A    between atoms: C_7  and  C_9
REMARK    3  A    between atoms: C_7  and  N_26
REMARK    4  A    between atoms: C_9  and  N_10
REMARK    5  A    between atoms: C_11  and  C_13
REMARK                            x       y       z     vdW  Elec       q    Type
REMARK                         _______ _______ _______ _____ _____    ______ ____
ROOT
ATOM      1  N   UNL     1       5.320  -1.941   1.316  0.00  0.00    -0.316 N 
ATOM      2  C   UNL     1       5.837  -2.443   2.455  0.00  0.00    +0.219 C 
ATOM      3  O   UNL     1       5.353  -2.140   3.525  0.00  0.00    -0.275 OA
ATOM      4  H   UNL     1       5.707  -2.183   0.460  0.00  0.00    +0.149 HD
ENDROOT
BRANCH   2   5
ATOM      5  C   UNL     1       7.016  -3.380   2.399  0.00  0.00    +0.049 C 
ATOM      6  C   UNL     1       8.199  -2.672   1.736  0.00  0.00    +0.019 C 
ATOM      7  C   UNL     1       9.396  -3.623   1.679  0.00  0.00    -0.008 C 
ATOM      8  C   UNL     1       9.782  -4.043   3.099  0.00  0.00    +0.007 C 
ATOM      9  C   UNL     1       8.598  -4.751   3.761  0.00  0.00    -0.008 C 
ATOM     10  C   UNL     1       7.402  -3.800   3.818  0.00  0.00    +0.019 C 
ATOM     11  C   UNL     1       8.226  -5.991   2.947  0.00  0.00    +0.026 C 
ATOM     12  C   UNL     1       7.839  -5.572   1.527  0.00  0.00    +0.047 C 
ATOM     13  C   UNL     1       9.023  -4.864   0.865  0.00  0.00    +0.026 C 
ATOM     14  C   UNL     1       6.643  -4.620   1.584  0.00  0.00    +0.039 C 
ATOM     15 CL   UNL     1       7.400  -7.033   0.567  0.00  0.00    -0.118 Cl
ENDBRANCH   2   5
BRANCH   1  16
ATOM     16  C   UNL     1       4.174  -1.030   1.371  0.00  0.00    +0.093 C 
BRANCH  16  17
ATOM     17  C   UNL     1       3.870  -0.508  -0.035  0.00  0.00    -0.020 C 
BRANCH  17  21
ATOM     18  C   UNL     1       7.127   1.896  -1.400  0.00  0.00    +0.000 A 
ATOM     19  C   UNL     1       7.011   0.585  -1.822  0.00  0.00    +0.000 A 
ATOM     20  C   UNL     1       5.957  -0.193  -1.381  0.00  0.00    +0.002 A 
ATOM     21  C   UNL     1       5.019   0.340  -0.516  0.00  0.00    -0.059 A 
ATOM     22  C   UNL     1       5.136   1.651  -0.092  0.00  0.00    +0.002 A 
ATOM     23  C   UNL     1       6.189   2.429  -0.535  0.00  0.00    +0.000 A 
ENDBRANCH  17  21
BRANCH  17  24
ATOM     24  N   UNL     1       2.644   0.301  -0.003  0.00  0.00    +0.385 N 
ATOM     25  C   UNL     1       2.327   0.805  -1.363  0.00  0.00    -0.078 C 
ATOM     26  C   UNL     1       0.811   1.116  -1.281  0.00  0.00    -0.020 C 
ATOM     27  C   UNL     1       0.271  -0.028  -0.393  0.00  0.00    -0.020 C 
ATOM     28  C   UNL     1       1.492  -0.534   0.398  0.00  0.00    -0.078 C 
ATOM     29  H   UNL     1       2.754   1.073   0.638  0.00  0.00    -0.081 HD
ENDBRANCH  17  24
ENDBRANCH  16  17
ENDBRANCH   1  16
TORSDOF 5
