REMARK  Name = ZINC22076518
REMARK  8 active torsions:
REMARK  status: ('A' for Active; 'I' for Inactive)
REMARK    1  A    between atoms: C_1  and  C_2
REMARK    2  A    between atoms: C_2  and  C_4
REMARK    3  A    between atoms: C_2  and  N_13
REMARK    4  A    between atoms: C_4  and  C_6
REMARK    5  A    between atoms: C_4  and  O_12
REMARK    6  A    between atoms: N_13  and  C_14
REMARK    7  A    between atoms: C_14  and  C_15
REMARK    8  A    between atoms: C_18  and  C_20
REMARK                            x       y       z     vdW  Elec       q    Type
REMARK                         _______ _______ _______ _____ _____    ______ ____
ROOT
ATOM      1  C   UNL     1       1.646   3.259   0.004  0.00  0.00    +0.156 C 
ENDROOT
BRANCH   1   2
ATOM      2  C   UNL     1       1.244   1.806  -0.000  0.00  0.00    +0.119 A 
ATOM      3  C   UNL     1       2.090   0.757  -0.014  0.00  0.00    +0.046 A 
ATOM      4  C   UNL     1       1.300  -0.410  -0.013  0.00  0.00    +0.050 A 
ATOM      5  C   UNL     1       0.002  -0.004   0.002  0.00  0.00    +0.137 A 
ATOM      6  O   UNL     1      -0.016   1.343   0.009  0.00  0.00    -0.458 OA
BRANCH   5   7
ATOM      7  C   UNL     1      -1.183  -0.887   0.009  0.00  0.00    +0.037 A 
ATOM      8  C   UNL     1      -2.199  -0.689   0.945  0.00  0.00    +0.033 A 
ATOM      9  C   UNL     1      -3.303  -1.518   0.947  0.00  0.00    +0.042 A 
ATOM     10  C   UNL     1      -3.403  -2.545   0.022  0.00  0.00    +0.021 A 
ATOM     11  C   UNL     1      -2.400  -2.747  -0.907  0.00  0.00    +0.022 A 
ATOM     12  C   UNL     1      -1.293  -1.921  -0.924  0.00  0.00    +0.052 A 
ATOM     13 CL   UNL     1      -0.038  -2.171  -2.097  0.00  0.00    -0.083 Cl
ATOM     14 CL   UNL     1      -4.569  -1.273   2.109  0.00  0.00    -0.084 Cl
ENDBRANCH   5   7
ENDBRANCH   1   2
BRANCH   1  15
ATOM     15  N   UNL     1       1.763   3.738  -1.380  0.00  0.00    -0.304 NA
ATOM     16  H   UNL     1       0.791   3.614  -1.879  0.00  0.00    +0.123 HD
BRANCH  15  18
ATOM     17  C   UNL     1       0.907   6.031  -1.286  0.00  0.00    +0.027 C 
ATOM     18  C   UNL     1       2.154   5.154  -1.415  0.00  0.00    +0.084 C 
BRANCH  18  19
ATOM     19  C   UNL     1       2.855   5.456  -2.741  0.00  0.00    +0.161 C 
BRANCH  19  20
ATOM     20  C   UNL     1       4.012   4.508  -2.925  0.00  0.00    -0.018 A 
ATOM     21  C   UNL     1       3.799   3.256  -3.470  0.00  0.00    +0.006 A 
ATOM     22  C   UNL     1       4.861   2.388  -3.643  0.00  0.00    +0.000 A 
ATOM     23  C   UNL     1       6.135   2.769  -3.263  0.00  0.00    +0.000 A 
ATOM     24  C   UNL     1       6.347   4.020  -2.713  0.00  0.00    +0.000 A 
ATOM     25  C   UNL     1       5.285   4.889  -2.545  0.00  0.00    +0.006 A 
ENDBRANCH  19  20
BRANCH  19  26
ATOM     26  O   UNL     1       1.930   5.293  -3.817  0.00  0.00    -0.386 OA
ATOM     27  H   UNL     1       2.254   5.468  -4.854  0.00  0.00    +0.210 HD
ENDBRANCH  19  26
ENDBRANCH  18  19
ENDBRANCH  15  18
ENDBRANCH   1  15
TORSDOF 7
