REMARK  Name = ZINC11969835
REMARK  10 active torsions:
REMARK  status: ('A' for Active; 'I' for Inactive)
REMARK    1  A    between atoms: C_1  and  C_2
REMARK    2  A    between atoms: C_2  and  C_4
REMARK    3  A    between atoms: C_2  and  N_9
REMARK    4  A    between atoms: C_10  and  C_12
REMARK    5  A    between atoms: C_13  and  O_36
REMARK    6  A    between atoms: C_24  and  C_26
REMARK    7  A    between atoms: C_29  and  C_32
REMARK    8  A    between atoms: C_32  and  O_34
REMARK    9  A    between atoms: O_34  and  C_35
REMARK   10  A    between atoms: O_36  and  C_37
REMARK                            x       y       z     vdW  Elec       q    Type
REMARK                         _______ _______ _______ _____ _____    ______ ____
ROOT
ATOM      1  C   UNL     1       0.161   2.572   1.365  0.00  0.00    +0.098 A 
ATOM      2  C   UNL     1      -0.842   3.522   1.842  0.00  0.00    +0.139 A 
ATOM      3  C   UNL     1      -0.455   4.837   2.005  0.00  0.00    +0.116 A 
ATOM      4  C   UNL     1       0.866   5.187   1.728  0.00  0.00    +0.255 A 
ATOM      5  O   UNL     1       1.200   6.356   1.840  0.00  0.00    -0.268 OA
ATOM      6  N   UNL     1       1.793   4.278   1.337  0.00  0.00    -0.310 N 
ATOM      7  C   UNL     1       1.460   3.002   1.113  0.00  0.00    +0.039 A 
ATOM      8  C   UNL     1       2.396   1.948   0.577  0.00  0.00    +0.073 C 
ATOM      9  C   UNL     1       3.845   2.189   0.994  0.00  0.00    +0.114 C 
ATOM     10  N   UNL     1       4.435   3.131   0.026  0.00  0.00    -0.295 N 
ATOM     11  C   UNL     1       3.774   4.428  -0.144  0.00  0.00    +0.129 C 
ATOM     12  C   UNL     1       3.160   4.786   1.209  0.00  0.00    +0.144 C 
ATOM     13  C   UNL     1       5.541   2.812  -0.675  0.00  0.00    +0.247 C 
ATOM     14  O   UNL     1       6.022   1.700  -0.578  0.00  0.00    -0.270 OA
ENDROOT
BRANCH  13  15
ATOM     15  C   UNL     1       6.169   3.815  -1.564  0.00  0.00    +0.037 A 
ATOM     16  C   UNL     1       5.391   4.817  -2.145  0.00  0.00    +0.014 A 
ATOM     17  C   UNL     1       5.976   5.755  -2.968  0.00  0.00    +0.016 A 
ATOM     18  C   UNL     1       7.346   5.696  -3.229  0.00  0.00    +0.059 A 
ATOM     19  C   UNL     1       8.124   4.690  -2.652  0.00  0.00    +0.016 A 
ATOM     20  C   UNL     1       7.538   3.756  -1.825  0.00  0.00    +0.014 A 
BRANCH  18  21
ATOM     21  C   UNL     1       7.974   6.699  -4.117  0.00  0.00    +0.339 C 
ATOM     22  O   UNL     1       9.166   6.647  -4.343  0.00  0.00    -0.245 OA
BRANCH  21  23
ATOM     23  O   UNL     1       7.224   7.669  -4.674  0.00  0.00    -0.464 OA
ATOM     24  C   UNL     1       7.907   8.618  -5.534  0.00  0.00    +0.280 C 
ENDBRANCH  21  23
ENDBRANCH  18  21
ENDBRANCH  13  15
BRANCH   1  26
ATOM     25  N   UNL     1      -0.468   0.720  -0.100  0.00  0.00    -0.302 N 
ATOM     26  C   UNL     1      -0.205   1.162   1.146  0.00  0.00    +0.250 C 
ATOM     27  O   UNL     1      -0.269   0.397   2.089  0.00  0.00    -0.270 OA
ATOM     28  H   UNL     1      -0.347   1.310  -0.860  0.00  0.00    +0.150 HD
BRANCH  25  30
ATOM     29  C   UNL     1      -2.454  -0.707  -0.124  0.00  0.00    +0.036 C 
ATOM     30  C   UNL     1      -0.936  -0.653  -0.306  0.00  0.00    +0.136 C 
BRANCH  30  31
ATOM     31  C   UNL     1      -0.581  -1.101  -1.701  0.00  0.00    +0.125 A 
ATOM     32  C   UNL     1      -0.130  -2.320  -2.044  0.00  0.00    +0.046 A 
ATOM     33  C   UNL     1       0.071  -2.304  -3.443  0.00  0.00    +0.041 A 
ATOM     34  C   UNL     1      -0.262  -1.072  -3.870  0.00  0.00    +0.195 A 
ATOM     35  O   UNL     1      -0.656  -0.348  -2.810  0.00  0.00    -0.466 OA
ENDBRANCH  30  31
ENDBRANCH  25  30
ENDBRANCH   1  26
BRANCH   2  36
ATOM     36  O   UNL     1      -2.106   3.126   2.118  0.00  0.00    -0.494 OA
ATOM     37  C   UNL     1      -3.014   4.128   2.579  0.00  0.00    +0.277 C 
ENDBRANCH   2  36
TORSDOF 7
