REMARK  Name = ZINC38600866
REMARK  9 active torsions:
REMARK  status: ('A' for Active; 'I' for Inactive)
REMARK    1  A    between atoms: C_1  and  C_2
REMARK    2  A    between atoms: C_7  and  C_26
REMARK    3  A    between atoms: C_9  and  N_12
REMARK    4  A    between atoms: C_13  and  C_15
REMARK    5  A    between atoms: C_15  and  N_16
REMARK    6  A    between atoms: C_18  and  C_25
REMARK    7  A    between atoms: C_21  and  C_24
REMARK    8  A    between atoms: C_26  and  O_28
REMARK    9  A    between atoms: O_28  and  C_29
REMARK                            x       y       z     vdW  Elec       q    Type
REMARK                         _______ _______ _______ _____ _____    ______ ____
ROOT
ATOM      1  C   UNL     1       0.446  -7.793  -0.735  0.00  0.00    +0.044 C 
ATOM      2  C   UNL     1       0.313  -6.297  -0.615  0.00  0.00    -0.050 A 
ATOM      3  C   UNL     1       0.346  -5.515  -1.773  0.00  0.00    +0.005 A 
ATOM      4  C   UNL     1       0.230  -4.165  -1.728  0.00  0.00    +0.026 A 
ATOM      5  C   UNL     1       0.071  -3.511  -0.479  0.00  0.00    +0.045 A 
ATOM      6  N   UNL     1      -0.059  -2.236  -0.173  0.00  0.00    -0.367 N 
ATOM      7  C   UNL     1      -0.192  -2.104   1.281  0.00  0.00    +0.234 C 
ATOM      8  C   UNL     1      -0.123  -3.509   1.836  0.00  0.00    +0.053 C 
ATOM      9  C   UNL     1       0.037  -4.338   0.739  0.00  0.00    +0.018 A 
ATOM     10  C   UNL     1       0.159  -5.743   0.613  0.00  0.00    +0.015 A 
ATOM     11  H   UNL     1      -0.066  -1.503  -0.808  0.00  0.00    +0.161 HD
ENDROOT
BRANCH   8  12
ATOM     12  N   UNL     1      -0.201  -3.882   3.144  0.00  0.00    -0.288 N 
ATOM     13  C   UNL     1      -0.209  -2.945   4.112  0.00  0.00    +0.200 C 
ATOM     14  O   UNL     1      -0.246  -1.769   3.818  0.00  0.00    -0.278 OA
ATOM     15  H   UNL     1      -0.251  -4.822   3.378  0.00  0.00    +0.155 HD
BRANCH  13  16
ATOM     16  C   UNL     1      -0.173  -3.358   5.561  0.00  0.00    +0.019 C 
BRANCH  16  17
ATOM     17  N   UNL     1      -0.190  -2.161   6.412  0.00  0.00    +0.386 N 
ATOM     18  C   UNL     1       1.037  -1.387   6.190  0.00  0.00    -0.075 C 
ATOM     19  C   UNL     1       0.988  -0.098   7.013  0.00  0.00    -0.031 C 
ATOM     20  C   UNL     1       0.868  -0.452   8.498  0.00  0.00    +0.003 C 
ATOM     21  C   UNL     1      -0.376  -1.322   8.707  0.00  0.00    -0.031 C 
ATOM     22  C   UNL     1      -0.276  -2.565   7.821  0.00  0.00    -0.075 C 
ATOM     23  C   UNL     1      -0.463  -1.745  10.175  0.00  0.00    +0.005 C 
ATOM     24  C   UNL     1       2.268   0.706   6.781  0.00  0.00    +0.005 C 
ATOM     25  H   UNL     1      -0.991  -1.594   6.177  0.00  0.00    -0.081 HD
ENDBRANCH  16  17
ENDBRANCH  13  16
ENDBRANCH   8  12
BRANCH   7  26
ATOM     26  C   UNL     1      -1.516  -1.473   1.626  0.00  0.00    +0.335 C 
ATOM     27  O   UNL     1      -2.513  -1.791   1.022  0.00  0.00    -0.248 OA
BRANCH  26  28
ATOM     28  O   UNL     1      -1.589  -0.557   2.605  0.00  0.00    -0.466 OA
ATOM     29  C   UNL     1      -2.876  -0.001   2.879  0.00  0.00    +0.280 C 
ENDBRANCH  26  28
ENDBRANCH   7  26
TORSDOF 5
