REMARK  Name = ZINC57789315
REMARK  7 active torsions:
REMARK  status: ('A' for Active; 'I' for Inactive)
REMARK    1  A    between atoms: C_1  and  C_2
REMARK    2  A    between atoms: C_2  and  C_3
REMARK    3  A    between atoms: N_9  and  C_21
REMARK    4  A    between atoms: C_12  and  C_15
REMARK    5  A    between atoms: C_21  and  C_23
REMARK    6  A    between atoms: C_21  and  C_24
REMARK    7  A    between atoms: C_24  and  N_25
REMARK                            x       y       z     vdW  Elec       q    Type
REMARK                         _______ _______ _______ _____ _____    ______ ____
ROOT
ATOM      1  C   UNL     1       0.731  -0.503   1.223  0.00  0.00    -0.046 A 
ATOM      2  C   UNL     1       2.098  -0.709   1.174  0.00  0.00    +0.007 A 
ATOM      3  C   UNL     1       2.774  -1.167   2.290  0.00  0.00    +0.048 A 
ATOM      4  C   UNL     1       2.081  -1.419   3.461  0.00  0.00    +0.143 A 
ATOM      5  C   UNL     1       0.703  -1.212   3.510  0.00  0.00    +0.079 A 
ATOM      6  C   UNL     1       0.032  -0.749   2.391  0.00  0.00    +0.030 A 
ATOM      7  N   UNL     1       0.012  -1.475   4.702  0.00  0.00    -0.264 N 
ATOM      8  C   UNL     1       0.714  -1.614   5.848  0.00  0.00    +0.265 C 
ATOM      9  O   UNL     1       0.140  -1.873   6.885  0.00  0.00    -0.271 OA
ATOM     10  C   UNL     1       2.212  -1.447   5.832  0.00  0.00    +0.289 C 
ATOM     11  O   UNL     1       2.730  -1.869   4.568  0.00  0.00    -0.473 OA
ENDROOT
BRANCH  10  12
ATOM     12  C   UNL     1       2.557   0.003   6.057  0.00  0.00    +0.002 A 
ATOM     13  C   UNL     1       2.475   0.903   5.011  0.00  0.00    +0.008 A 
ATOM     14  C   UNL     1       2.792   2.232   5.216  0.00  0.00    +0.000 A 
ATOM     15  C   UNL     1       3.190   2.662   6.468  0.00  0.00    +0.000 A 
ATOM     16  C   UNL     1       3.272   1.763   7.514  0.00  0.00    +0.000 A 
ATOM     17  C   UNL     1       2.951   0.434   7.310  0.00  0.00    +0.008 A 
ENDBRANCH  10  12
BRANCH   1  19
ATOM     18  C   UNL     1      -0.019   1.526   0.010  0.00  0.00    +0.009 C 
ATOM     19  C   UNL     1       0.002  -0.004   0.002  0.00  0.00    +0.032 C 
ENDBRANCH   1  19
BRANCH   7  20
ATOM     20  C   UNL     1      -1.448  -1.597   4.704  0.00  0.00    +0.061 C 
ATOM     21  C   UNL     1      -1.843  -2.987   5.204  0.00  0.00    +0.026 C 
BRANCH  20  22
ATOM     22  C   UNL     1      -2.046  -0.533   5.627  0.00  0.00    -0.064 C 
BRANCH  22  23
ATOM     23  N   UNL     1      -1.570   0.795   5.218  0.00  0.00    +0.379 N 
ATOM     24  H   UNL     1      -1.854   0.976   4.267  0.00  0.00    -0.090 HD
ATOM     25  H   UNL     1      -1.965   1.496   5.827  0.00  0.00    -0.090 HD
ATOM     26  H   UNL     1      -0.563   0.824   5.280  0.00  0.00    -0.090 HD
ENDBRANCH  22  23
ENDBRANCH  20  22
ENDBRANCH   7  20
TORSDOF 5
