REMARK  Name = ZINC59372416
REMARK  4 active torsions:
REMARK  status: ('A' for Active; 'I' for Inactive)
REMARK    1  A    between atoms: C_5  and  N_7
REMARK    2  A    between atoms: N_7  and  C_8
REMARK    3  A    between atoms: C_8  and  N_9
REMARK    4  A    between atoms: C_13  and  C_14
REMARK                            x       y       z     vdW  Elec       q    Type
REMARK                         _______ _______ _______ _____ _____    ______ ____
ROOT
ATOM      1  N   UNL     1      -1.006  -3.567  -1.051  0.00  0.00    -0.239 N 
ATOM      2  C   UNL     1      -1.652  -2.723  -1.837  0.00  0.00    +0.260 C 
ATOM      3  O   UNL     1      -2.201  -1.730  -1.396  0.00  0.00    -0.269 OA
ATOM      4  C   UNL     1      -1.674  -3.046  -3.278  0.00  0.00    +0.077 C 
ATOM      5  C   UNL     1      -2.250  -2.373  -4.307  0.00  0.00    +0.028 C 
ATOM      6  S   UNL     1      -0.732  -4.565  -3.295  0.00  0.00    -0.061 S 
ATOM      7  C   UNL     1      -0.395  -4.663  -1.544  0.00  0.00    +0.122 C 
ATOM      8  S   UNL     1       0.488  -5.860  -0.697  0.00  0.00    -0.027 S 
ENDROOT
BRANCH   5   9
ATOM      9  C   UNL     1      -2.835  -1.046  -4.080  0.00  0.00    -0.020 A 
ATOM     10  C   UNL     1      -2.159  -0.104  -3.294  0.00  0.00    +0.012 A 
ATOM     11  C   UNL     1      -2.710   1.140  -3.084  0.00  0.00    +0.050 A 
ATOM     12  C   UNL     1      -3.937   1.466  -3.648  0.00  0.00    +0.166 A 
ATOM     13  C   UNL     1      -4.617   0.534  -4.432  0.00  0.00    +0.167 A 
ATOM     14  C   UNL     1      -4.069  -0.714  -4.653  0.00  0.00    +0.057 A 
ATOM     15  O   UNL     1      -5.784   1.096  -4.863  0.00  0.00    -0.453 OA
ATOM     16  C   UNL     1      -6.005   2.229  -4.003  0.00  0.00    +0.466 C 
ATOM     17  O   UNL     1      -4.679   2.610  -3.590  0.00  0.00    -0.453 OA
ENDBRANCH   5   9
BRANCH   1  18
ATOM     18  C   UNL     1      -0.948  -3.302   0.389  0.00  0.00    +0.219 C 
BRANCH  18  19
ATOM     19  N   UNL     1       0.370  -2.764   0.734  0.00  0.00    -0.327 N 
ATOM     20  H   UNL     1       1.106  -3.367   0.922  0.00  0.00    +0.148 HD
BRANCH  19  25
ATOM     21  C   UNL     1      -0.315   0.847   0.718  0.00  0.00    +0.002 A 
ATOM     22  C   UNL     1       0.958   1.355   0.903  0.00  0.00    +0.001 A 
ATOM     23  C   UNL     1       2.036   0.499   1.032  0.00  0.00    +0.016 A 
ATOM     24  C   UNL     1       1.845  -0.868   0.976  0.00  0.00    +0.034 A 
ATOM     25  C   UNL     1       0.568  -1.382   0.790  0.00  0.00    +0.042 A 
ATOM     26  C   UNL     1      -0.513  -0.519   0.662  0.00  0.00    +0.024 A 
ATOM     27  I   UNL     1       3.479  -2.164   1.171  0.00  0.00    -0.042 I 
ENDBRANCH  19  25
ENDBRANCH  18  19
ENDBRANCH   1  18
TORSDOF 4
