REMARK  Name = ZINC31353821
REMARK  8 active torsions:
REMARK  status: ('A' for Active; 'I' for Inactive)
REMARK    1  A    between atoms: C_1  and  C_2
REMARK    2  A    between atoms: C_2  and  O_3
REMARK    3  A    between atoms: O_3  and  C_4
REMARK    4  A    between atoms: C_4  and  C_6
REMARK    5  A    between atoms: C_7  and  C_16
REMARK    6  A    between atoms: C_16  and  S_17
REMARK    7  A    between atoms: S_17  and  C_18
REMARK    8  A    between atoms: C_22  and  N_24
REMARK                            x       y       z     vdW  Elec       q    Type
REMARK                         _______ _______ _______ _____ _____    ______ ____
ROOT
ATOM      1  C   UNL     1       1.450  -2.345  -2.519  0.00  0.00    +0.217 A 
ATOM      2  C   UNL     1       1.610  -3.668  -2.789  0.00  0.00    +0.023 A 
ATOM      3  C   UNL     1       2.331  -3.738  -4.059  0.00  0.00    +0.026 A 
ATOM      4  C   UNL     1       2.792  -4.785  -4.860  0.00  0.00    +0.027 A 
ATOM      5  C   UNL     1       3.451  -4.508  -6.025  0.00  0.00    +0.019 A 
ATOM      6  C   UNL     1       3.666  -3.192  -6.415  0.00  0.00    +0.019 A 
ATOM      7  C   UNL     1       3.219  -2.145  -5.639  0.00  0.00    +0.048 A 
ATOM      8  C   UNL     1       2.546  -2.403  -4.450  0.00  0.00    +0.136 A 
ATOM      9  O   UNL     1       2.001  -1.609  -3.508  0.00  0.00    -0.448 OA
ATOM     10 BR   UNL     1       4.076  -5.924  -7.111  0.00  0.00    -0.050 Br
ENDROOT
BRANCH   1  11
ATOM     11  C   UNL     1       0.776  -1.800  -1.335  0.00  0.00    +0.375 C 
ATOM     12  O   UNL     1       0.312  -2.551  -0.499  0.00  0.00    -0.241 OA
BRANCH  11  13
ATOM     13  O   UNL     1       0.671  -0.465  -1.174  0.00  0.00    -0.459 OA
BRANCH  13  15
ATOM     14  C   UNL     1      -0.019   1.526   0.010  0.00  0.00    +0.048 C 
ATOM     15  C   UNL     1       0.002  -0.004   0.002  0.00  0.00    +0.229 C 
ENDBRANCH  13  15
ENDBRANCH  11  13
ENDBRANCH   1  11
BRANCH   2  16
ATOM     16  C   UNL     1       1.140  -4.827  -1.948  0.00  0.00    +0.117 C 
BRANCH  16  17
ATOM     17  S   UNL     1      -0.536  -5.301  -2.455  0.00  0.00    -0.081 S 
BRANCH  17  18
ATOM     18  C   UNL     1      -0.937  -6.649  -1.394  0.00  0.00    +0.192 A 
ATOM     19  N   UNL     1      -0.049  -7.049  -0.495  0.00  0.00    -0.207 NA
ATOM     20  C   UNL     1      -0.318  -8.063   0.324  0.00  0.00    +0.122 A 
ATOM     21  C   UNL     1      -1.549  -8.706   0.225  0.00  0.00    +0.086 A 
ATOM     22  C   UNL     1      -2.455  -8.258  -0.731  0.00  0.00    +0.122 A 
ATOM     23  N   UNL     1      -2.120  -7.233  -1.512  0.00  0.00    -0.207 NA
ATOM     24  N   UNL     1       0.616  -8.476   1.261  0.00  0.00    -0.343 N 
ATOM     25  H   UNL     1       1.472  -8.024   1.324  0.00  0.00    +0.144 HD
ATOM     26  H   UNL     1       0.414  -9.216   1.854  0.00  0.00    +0.144 HD
BRANCH  22  27
ATOM     27  N   UNL     1      -3.693  -8.867  -0.865  0.00  0.00    -0.343 N 
ATOM     28  H   UNL     1      -3.932  -9.611  -0.290  0.00  0.00    +0.144 HD
ATOM     29  H   UNL     1      -4.320  -8.550  -1.534  0.00  0.00    +0.144 HD
ENDBRANCH  22  27
ENDBRANCH  17  18
ENDBRANCH  16  17
ENDBRANCH   2  16
TORSDOF 7
