REMARK  Name = ZINC13327543
REMARK  6 active torsions:
REMARK  status: ('A' for Active; 'I' for Inactive)
REMARK    1  A    between atoms: C_4  and  C_7
REMARK    2  A    between atoms: C_13  and  O_28
REMARK    3  A    between atoms: C_15  and  O_27
REMARK    4  A    between atoms: C_16  and  C_19
REMARK    5  A    between atoms: C_19  and  C_20
REMARK    6  A    between atoms: C_25  and  O_26
REMARK                            x       y       z     vdW  Elec       q    Type
REMARK                         _______ _______ _______ _____ _____    ______ ____
ROOT
ATOM      1  C   UNL     1       3.711  -0.707  -0.038  0.00  0.00    +0.211 C 
ATOM      2  C   UNL     1       4.050  -1.185   1.382  0.00  0.00    +0.129 C 
ATOM      3  C   UNL     1       5.361  -1.946   1.299  0.00  0.00    +0.174 C 
ATOM      4  O   UNL     1       6.218  -1.836   2.151  0.00  0.00    -0.292 OA
ATOM      5  C   UNL     1       5.539  -2.822   0.136  0.00  0.00    +0.101 A 
ATOM      6  C   UNL     1       6.590  -3.752   0.093  0.00  0.00    +0.134 A 
ATOM      7  C   UNL     1       6.742  -4.558  -1.021  0.00  0.00    +0.092 A 
ATOM      8  C   UNL     1       5.858  -4.446  -2.087  0.00  0.00    +0.127 A 
ATOM      9  C   UNL     1       4.813  -3.531  -2.049  0.00  0.00    +0.041 A 
ATOM     10  C   UNL     1       4.641  -2.717  -0.943  0.00  0.00    +0.142 A 
ATOM     11  O   UNL     1       3.614  -1.836  -0.906  0.00  0.00    -0.483 OA
ENDROOT
BRANCH   1  15
ATOM     12  C   UNL     1      -0.017   1.378   0.010  0.00  0.00    +0.000 A 
ATOM     13  C   UNL     1       1.171   2.086   0.002  0.00  0.00    +0.000 A 
ATOM     14  C   UNL     1       2.377   1.411  -0.013  0.00  0.00    +0.007 A 
ATOM     15  C   UNL     1       2.396   0.029  -0.020  0.00  0.00    -0.007 A 
ATOM     16  C   UNL     1       1.208  -0.679  -0.012  0.00  0.00    +0.007 A 
ATOM     17  C   UNL     1       0.002  -0.004   0.002  0.00  0.00    +0.000 A 
ENDBRANCH   1  15
BRANCH   8  18
ATOM     18  O   UNL     1       6.018  -5.237  -3.178  0.00  0.00    -0.506 OA
ATOM     19  H   UNL     1       5.543  -6.078  -3.126  0.00  0.00    +0.292 HD
ENDBRANCH   8  18
BRANCH   6  20
ATOM     20  O   UNL     1       7.449  -3.860   1.137  0.00  0.00    -0.506 OA
ATOM     21  H   UNL     1       7.174  -4.500   1.808  0.00  0.00    +0.292 HD
ENDBRANCH   6  20
BRANCH   9  22
ATOM     22  C   UNL     1       3.865  -3.425  -3.215  0.00  0.00    +0.081 C 
BRANCH  22  23
ATOM     23  C   UNL     1       2.710  -4.372  -3.011  0.00  0.00    -0.001 A 
ATOM     24  C   UNL     1       2.744  -5.634  -3.571  0.00  0.00    +0.007 A 
ATOM     25  C   UNL     1       1.686  -6.504  -3.385  0.00  0.00    +0.001 A 
ATOM     26  C   UNL     1       0.590  -6.112  -2.638  0.00  0.00    +0.004 A 
ATOM     27  C   UNL     1       0.551  -4.852  -2.075  0.00  0.00    +0.046 A 
ATOM     28  C   UNL     1       1.615  -3.979  -2.256  0.00  0.00    +0.120 A 
BRANCH  28  29
ATOM     29  O   UNL     1       1.582  -2.741  -1.698  0.00  0.00    -0.506 OA
ATOM     30  H   UNL     1       1.184  -2.065  -2.264  0.00  0.00    +0.292 HD
ENDBRANCH  28  29
ENDBRANCH  22  23
ENDBRANCH   9  22
TORSDOF 6
