REMARK  Name = ZINC67205074
REMARK  8 active torsions:
REMARK  status: ('A' for Active; 'I' for Inactive)
REMARK    1  A    between atoms: C_1  and  C_2
REMARK    2  A    between atoms: C_2  and  O_3
REMARK    3  A    between atoms: O_3  and  C_4
REMARK    4  A    between atoms: C_4  and  C_6
REMARK    5  A    between atoms: C_7  and  C_21
REMARK    6  A    between atoms: C_12  and  C_14
REMARK    7  A    between atoms: C_21  and  N_22
REMARK    8  A    between atoms: C_25  and  N_28
REMARK                            x       y       z     vdW  Elec       q    Type
REMARK                         _______ _______ _______ _____ _____    ______ ____
ROOT
ATOM      1  C   UNL     1       0.890  -2.500  -2.898  0.00  0.00    +0.079 C 
ATOM      2  C   UNL     1       1.594  -3.612  -2.594  0.00  0.00    +0.038 C 
ATOM      3  N   UNL     1       2.743  -3.923  -3.264  0.00  0.00    -0.271 N 
ATOM      4  C   UNL     1       3.254  -3.175  -4.250  0.00  0.00    +0.304 C 
ATOM      5  O   UNL     1       4.283  -3.535  -4.788  0.00  0.00    -0.252 OA
ATOM      6  N   UNL     1       2.664  -2.037  -4.666  0.00  0.00    -0.288 N 
ATOM      7  C   UNL     1       1.414  -1.615  -4.011  0.00  0.00    +0.144 C 
ATOM      8  H   UNL     1       3.215  -4.732  -3.011  0.00  0.00    +0.156 HD
ATOM      9  H   UNL     1       3.051  -1.510  -5.382  0.00  0.00    +0.151 HD
ENDROOT
BRANCH   7  10
ATOM     10  C   UNL     1       1.635  -0.237  -3.443  0.00  0.00    -0.021 A 
ATOM     11  C   UNL     1       2.779   0.035  -2.715  0.00  0.00    +0.006 A 
ATOM     12  C   UNL     1       2.983   1.299  -2.194  0.00  0.00    +0.002 A 
ATOM     13  C   UNL     1       2.043   2.292  -2.399  0.00  0.00    +0.020 A 
ATOM     14  C   UNL     1       0.898   2.020  -3.127  0.00  0.00    +0.041 A 
ATOM     15  C   UNL     1       0.698   0.756  -3.654  0.00  0.00    +0.025 A 
ATOM     16 CL   UNL     1      -0.283   3.265  -3.386  0.00  0.00    -0.084 Cl
ENDBRANCH   7  10
BRANCH   1  17
ATOM     17  C   UNL     1      -0.300  -2.176  -2.205  0.00  0.00    +0.339 C 
ATOM     18  O   UNL     1      -0.767  -2.960  -1.400  0.00  0.00    -0.245 OA
BRANCH  17  19
ATOM     19  O   UNL     1      -0.917  -0.999  -2.437  0.00  0.00    -0.462 OA
BRANCH  19  21
ATOM     20  C   UNL     1      -2.666   0.634  -2.097  0.00  0.00    +0.048 C 
ATOM     21  C   UNL     1      -2.114  -0.738  -1.702  0.00  0.00    +0.229 C 
ENDBRANCH  19  21
ENDBRANCH  17  19
ENDBRANCH   1  17
BRANCH   2  22
ATOM     22  C   UNL     1       1.105  -4.522  -1.498  0.00  0.00    +0.135 C 
BRANCH  22  23
ATOM     23  N   UNL     1       0.120  -5.464  -2.046  0.00  0.00    -0.297 NA
ATOM     24  C   UNL     1       0.768  -6.460  -2.910  0.00  0.00    +0.083 C 
ATOM     25  C   UNL     1      -0.299  -7.330  -3.576  0.00  0.00    +0.000 C 
ATOM     26  C   UNL     1      -1.129  -8.028  -2.496  0.00  0.00    -0.066 C 
ATOM     27  C   UNL     1      -1.754  -6.971  -1.581  0.00  0.00    +0.000 C 
ATOM     28  C   UNL     1      -0.644  -6.111  -0.972  0.00  0.00    +0.083 C 
BRANCH  26  29
ATOM     29  N   UNL     1      -2.193  -8.820  -3.128  0.00  0.00    +0.382 N 
ATOM     30  C   UNL     1      -2.993  -9.480  -2.090  0.00  0.00    -0.078 C 
ATOM     31  C   UNL     1      -4.151 -10.241  -2.740  0.00  0.00    -0.019 C 
ATOM     32  C   UNL     1      -3.589 -11.293  -3.700  0.00  0.00    -0.004 C 
ATOM     33  C   UNL     1      -2.696 -10.601  -4.734  0.00  0.00    -0.019 C 
ATOM     34  C   UNL     1      -1.592  -9.827  -4.011  0.00  0.00    -0.078 C 
ATOM     35  H   UNL     1      -2.787  -8.211  -3.671  0.00  0.00    -0.081 HD
ENDBRANCH  26  29
ENDBRANCH  22  23
ENDBRANCH   2  22
TORSDOF 7
