REMARK  Name = ZINC39937564
REMARK  3 active torsions:
REMARK  status: ('A' for Active; 'I' for Inactive)
REMARK    1  A    between atoms: C_4  and  N_7
REMARK    2  A    between atoms: C_12  and  N_16
REMARK    3  A    between atoms: C_22  and  C_24
REMARK                            x       y       z     vdW  Elec       q    Type
REMARK                         _______ _______ _______ _____ _____    ______ ____
ROOT
ATOM      1  N   UNL     1       5.848  -1.772  -2.262  0.00  0.00    -0.290 NA
ATOM      2  C   UNL     1       4.630  -1.097  -2.730  0.00  0.00    +0.104 C 
ATOM      3  C   UNL     1       4.382  -1.458  -4.198  0.00  0.00    +0.123 C 
ATOM      4  N   UNL     1       5.598  -1.149  -4.966  0.00  0.00    -0.295 N 
ATOM      5  C   UNL     1       6.881  -1.678  -4.480  0.00  0.00    +0.123 C 
ATOM      6  C   UNL     1       7.030  -1.309  -3.000  0.00  0.00    +0.104 C 
ATOM      7  C   UNL     1       5.538  -0.403  -6.087  0.00  0.00    +0.244 C 
ATOM      8  O   UNL     1       4.487   0.106  -6.422  0.00  0.00    -0.270 OA
ENDROOT
BRANCH   7   9
ATOM      9  C   UNL     1       6.750  -0.202  -6.907  0.00  0.00    +0.032 C 
ATOM     10  C   UNL     1       7.143  -1.129  -7.850  0.00  0.00    +0.005 A 
ATOM     11  C   UNL     1       6.369  -2.350  -8.074  0.00  0.00    +0.010 A 
ATOM     12  C   UNL     1       6.795  -3.231  -9.013  0.00  0.00    +0.001 A 
ATOM     13  C   UNL     1       7.953  -2.995  -9.765  0.00  0.00    +0.002 A 
ATOM     14  C   UNL     1       8.715  -1.885  -9.608  0.00  0.00    +0.024 A 
ATOM     15  C   UNL     1       8.361  -0.903  -8.657  0.00  0.00    +0.041 A 
ATOM     16  N   UNL     1       9.110   0.180  -8.509  0.00  0.00    -0.285 N 
ATOM     17  C   UNL     1       8.837   1.142  -7.636  0.00  0.00    +0.222 C 
ATOM     18  O   UNL     1       9.566   2.110  -7.551  0.00  0.00    -0.275 OA
ATOM     19  C   UNL     1       7.614   1.035  -6.753  0.00  0.00    +0.137 C 
ATOM     20  H   UNL     1       9.898   0.274  -9.067  0.00  0.00    +0.155 HD
ENDBRANCH   7   9
BRANCH   1  25
ATOM     21  N   UNL     1       5.217  -4.142  -0.042  0.00  0.00    -0.160 N 
ATOM     22  C   UNL     1       6.528  -3.959  -0.299  0.00  0.00    +0.259 C 
ATOM     23  O   UNL     1       7.245  -4.912  -0.521  0.00  0.00    -0.272 OA
ATOM     24  C   UNL     1       7.096  -2.562  -0.308  0.00  0.00    +0.191 C 
ATOM     25  C   UNL     1       6.026  -1.591  -0.815  0.00  0.00    +0.126 C 
ATOM     26  C   UNL     1       4.724  -1.863  -0.112  0.00  0.00    +0.124 C 
ATOM     27  N   UNL     1       4.388  -3.047   0.219  0.00  0.00    -0.183 NA
ATOM     28 CL   UNL     1       7.589  -2.100   1.363  0.00  0.00    -0.110 Cl
BRANCH  21  32
ATOM     29  C   UNL     1       3.625  -7.993  -0.040  0.00  0.00    +0.000 A 
ATOM     30  C   UNL     1       4.419  -7.575  -1.093  0.00  0.00    +0.002 A 
ATOM     31  C   UNL     1       4.948  -6.299  -1.096  0.00  0.00    +0.025 A 
ATOM     32  C   UNL     1       4.682  -5.436  -0.041  0.00  0.00    +0.060 A 
ATOM     33  C   UNL     1       3.884  -5.859   1.014  0.00  0.00    +0.025 A 
ATOM     34  C   UNL     1       3.358  -7.135   1.012  0.00  0.00    +0.002 A 
ENDBRANCH  21  32
ENDBRANCH   1  25
TORSDOF 3
