REMARK  Name = ZINC27330506
REMARK  8 active torsions:
REMARK  status: ('A' for Active; 'I' for Inactive)
REMARK    1  A    between atoms: C_1  and  C_2
REMARK    2  A    between atoms: C_5  and  S_9
REMARK    3  A    between atoms: C_7  and  C_8
REMARK    4  A    between atoms: S_9  and  N_12
REMARK    5  A    between atoms: C_15  and  C_18
REMARK    6  A    between atoms: N_20  and  N_21
REMARK    7  A    between atoms: C_22  and  C_24
REMARK    8  A    between atoms: C_31  and  C_34
REMARK                            x       y       z     vdW  Elec       q    Type
REMARK                         _______ _______ _______ _____ _____    ______ ____
ROOT
ATOM      1  C   UNL     1      -6.010   5.804  -4.298  0.00  0.00    +0.232 C 
ATOM      2  O   UNL     1      -7.123   5.383  -4.062  0.00  0.00    -0.274 OA
ATOM      3  N   UNL     1      -5.851   6.873  -5.103  0.00  0.00    -0.234 N 
ATOM      4  H   UNL     1      -4.841   7.254  -5.317  0.00  0.00    +0.173 HD
ENDROOT
BRANCH   1   8
ATOM      5  N   UNL     1      -3.217   4.241  -1.528  0.00  0.00    -0.177 NA
ATOM      6  C   UNL     1      -2.805   5.459  -2.239  0.00  0.00    +0.110 C 
ATOM      7  C   UNL     1      -4.042   6.135  -2.827  0.00  0.00    +0.030 C 
ATOM      8  C   UNL     1      -4.806   5.130  -3.692  0.00  0.00    +0.079 C 
ATOM      9  C   UNL     1      -5.262   3.952  -2.828  0.00  0.00    +0.030 C 
ATOM     10  C   UNL     1      -4.034   3.249  -2.241  0.00  0.00    +0.110 C 
BRANCH   5  11
ATOM     11  S   UNL     1      -2.775   3.993   0.049  0.00  0.00    +0.061 S 
ATOM     12  O   UNL     1      -3.732   3.102   0.604  0.00  0.00    -0.153 OA
ATOM     13  O   UNL     1      -2.517   5.275   0.604  0.00  0.00    -0.153 OA
BRANCH  11  18
ATOM     14  C   UNL     1       2.490   1.048  -0.016  0.00  0.00    +0.044 C 
ATOM     15  C   UNL     1       1.175   1.783   0.000  0.00  0.00    -0.047 A 
ATOM     16  C   UNL     1      -0.013   1.076   0.008  0.00  0.00    +0.005 A 
ATOM     17  C   UNL     1      -1.219   1.750   0.017  0.00  0.00    +0.029 A 
ATOM     18  C   UNL     1      -1.238   3.133   0.030  0.00  0.00    +0.106 A 
ATOM     19  C   UNL     1      -0.050   3.840   0.023  0.00  0.00    +0.032 A 
ATOM     20  C   UNL     1       1.157   3.165   0.008  0.00  0.00    -0.046 A 
ATOM     21  C   UNL     1       2.451   3.937  -0.001  0.00  0.00    +0.044 C 
ENDBRANCH  11  18
ENDBRANCH   5  11
ENDBRANCH   1   8
BRANCH   3  22
ATOM     22  N   UNL     1      -6.970   7.499  -5.666  0.00  0.00    -0.230 N 
ATOM     23  C   UNL     1      -6.810   8.569  -6.471  0.00  0.00    +0.267 C 
ATOM     24  O   UNL     1      -5.694   8.990  -6.708  0.00  0.00    -0.268 OA
ATOM     25  H   UNL     1      -7.979   7.118  -5.452  0.00  0.00    +0.173 HD
BRANCH  23  26
ATOM     26  C   UNL     1      -7.981   9.224  -7.060  0.00  0.00    +0.076 A 
ATOM     27  C   UNL     1      -8.036  10.320  -7.901  0.00  0.00    +0.024 A 
ATOM     28  C   UNL     1      -9.280  10.755  -8.328  0.00  0.00    -0.036 A 
ATOM     29  C   UNL     1     -10.364  10.057  -7.878  0.00  0.00    -0.006 A 
ATOM     30  S   UNL     1      -9.709   8.811  -6.886  0.00  0.00    -0.088 S 
ATOM     31  C   UNL     1     -11.804  10.323  -8.192  0.00  0.00    +0.043 C 
ATOM     32  C   UNL     1     -11.869  11.274  -9.396  0.00  0.00    +0.009 C 
ATOM     33  C   UNL     1     -10.908  12.441  -9.154  0.00  0.00    -0.009 C 
ATOM     34  C   UNL     1      -9.462  11.954  -9.255  0.00  0.00    +0.039 C 
ATOM     35  C   UNL     1     -11.153  13.527 -10.204  0.00  0.00    +0.008 C 
ENDBRANCH  23  26
ENDBRANCH   3  22
TORSDOF 5
