REMARK  Name = ZINC09521542
REMARK  8 active torsions:
REMARK  status: ('A' for Active; 'I' for Inactive)
REMARK    1  A    between atoms: C_1  and  C_2
REMARK    2  A    between atoms: C_2  and  C_27
REMARK    3  A    between atoms: C_5  and  C_25
REMARK    4  A    between atoms: C_6  and  N_12
REMARK    5  A    between atoms: C_9  and  C_10
REMARK    6  A    between atoms: C_9  and  C_11
REMARK    7  A    between atoms: C_13  and  C_15
REMARK    8  A    between atoms: C_15  and  C_16
REMARK                            x       y       z     vdW  Elec       q    Type
REMARK                         _______ _______ _______ _____ _____    ______ ____
ROOT
ATOM      1  C   UNL     1      11.527  -4.933  -1.341  0.00  0.00    -0.010 C 
ATOM      2  C   UNL     1      12.076  -3.570  -1.774  0.00  0.00    -0.069 C 
ATOM      3  C   UNL     1      11.850  -2.553  -0.651  0.00  0.00    +0.024 C 
ATOM      4  C   UNL     1      10.356  -2.268  -0.566  0.00  0.00    -0.021 A 
ATOM      5  C   UNL     1       9.644  -1.861   0.627  0.00  0.00    +0.084 A 
ATOM      6  C   UNL     1       8.277  -1.643   0.512  0.00  0.00    +0.090 A 
ATOM      7  S   UNL     1       7.960  -1.984  -1.158  0.00  0.00    -0.078 S 
ATOM      8  C   UNL     1       9.600  -2.393  -1.681  0.00  0.00    -0.015 A 
ATOM      9  C   UNL     1      10.075  -2.784  -3.043  0.00  0.00    -0.041 C 
ATOM     10  C   UNL     1       9.227  -3.952  -3.564  0.00  0.00    -0.005 C 
ATOM     11  C   UNL     1       9.869  -1.587  -3.990  0.00  0.00    -0.005 C 
ATOM     12  C   UNL     1      13.598  -3.720  -1.972  0.00  0.00    -0.010 C 
ATOM     13  N   UNL     1      11.523  -3.139  -3.083  0.00  0.00    +0.389 N 
ATOM     14  H   UNL     1      11.650  -3.904  -3.755  0.00  0.00    -0.084 HD
ATOM     15  H   UNL     1      12.048  -2.315  -3.399  0.00  0.00    -0.084 HD
ENDROOT
BRANCH   6  16
ATOM     16  N   UNL     1       7.382  -1.247   1.497  0.00  0.00    -0.279 N 
ATOM     17  C   UNL     1       6.078  -1.085   1.196  0.00  0.00    +0.222 C 
ATOM     18  O   UNL     1       5.687  -1.283   0.066  0.00  0.00    -0.275 OA
ATOM     19  H   UNL     1       7.695  -1.089   2.401  0.00  0.00    +0.155 HD
BRANCH  17  20
ATOM     20  C   UNL     1       5.107  -0.655   2.265  0.00  0.00    +0.131 C 
BRANCH  20  21
ATOM     21  C   UNL     1       3.725  -0.548   1.674  0.00  0.00    -0.035 A 
ATOM     22  C   UNL     1       2.885  -1.646   1.677  0.00  0.00    +0.008 A 
ATOM     23  C   UNL     1       1.617  -1.553   1.135  0.00  0.00    +0.050 A 
ATOM     24  C   UNL     1       1.183  -0.356   0.589  0.00  0.00    +0.166 A 
ATOM     25  C   UNL     1       2.028   0.751   0.586  0.00  0.00    +0.166 A 
ATOM     26  C   UNL     1       3.298   0.650   1.131  0.00  0.00    +0.053 A 
ATOM     27  O   UNL     1       1.376   1.797  -0.001  0.00  0.00    -0.453 OA
ATOM     28  C   UNL     1      -0.018   1.436   0.010  0.00  0.00    +0.466 C 
ATOM     29  O   UNL     1       0.002  -0.004   0.002  0.00  0.00    -0.453 OA
ENDBRANCH  20  21
ENDBRANCH  17  20
ENDBRANCH   6  16
BRANCH   5  30
ATOM     30  C   UNL     1      10.312  -1.686   1.882  0.00  0.00    +0.102 C 
ATOM     31  N   UNL     1      10.843  -1.548   2.877  0.00  0.00    -0.191 NA
ENDBRANCH   5  30
TORSDOF 4
