REMARK  Name = ZINC65329938
REMARK  6 active torsions:
REMARK  status: ('A' for Active; 'I' for Inactive)
REMARK    1  A    between atoms: C_7  and  C_10
REMARK    2  A    between atoms: C_10  and  C_11
REMARK    3  A    between atoms: C_11  and  N_12
REMARK    4  A    between atoms: N_14  and  C_15
REMARK    5  A    between atoms: N_22  and  C_23
REMARK    6  A    between atoms: C_23  and  C_25
REMARK                            x       y       z     vdW  Elec       q    Type
REMARK                         _______ _______ _______ _____ _____    ______ ____
ROOT
ATOM      1  N   UNL     1      -1.978  -3.542  -2.519  0.00  0.00    -0.357 N 
ATOM      2  C   UNL     1      -1.271  -4.634  -2.929  0.00  0.00    +0.194 C 
ATOM      3  N   UNL     1      -0.385  -4.525  -3.962  0.00  0.00    -0.328 N 
ATOM      4  N   UNL     1      -1.443  -5.800  -2.324  0.00  0.00    -0.143 NA
ATOM      5  H   UNL     1      -2.585  -3.612  -1.765  0.00  0.00    +0.162 HD
ATOM      6  H   UNL     1      -0.460  -5.114  -4.730  0.00  0.00    +0.169 HD
ENDROOT
BRANCH   3   7
ATOM      7  C   UNL     1       0.631  -3.565  -3.914  0.00  0.00    +0.044 A 
ATOM      8  C   UNL     1       1.258  -3.275  -2.709  0.00  0.00    +0.026 A 
ATOM      9  C   UNL     1       2.261  -2.327  -2.663  0.00  0.00    +0.005 A 
ATOM     10  C   UNL     1       2.643  -1.665  -3.816  0.00  0.00    +0.038 A 
ATOM     11  C   UNL     1       2.021  -1.952  -5.020  0.00  0.00    +0.125 A 
ATOM     12  C   UNL     1       1.020  -2.905  -5.072  0.00  0.00    +0.064 A 
ATOM     13  F   UNL     1       2.396  -1.304  -6.144  0.00  0.00    -0.205 F 
ENDBRANCH   3   7
BRANCH   4  14
ATOM     14  C   UNL     1      -0.657  -6.839  -2.638  0.00  0.00    +0.270 C 
ATOM     15  O   UNL     1       0.248  -6.699  -3.440  0.00  0.00    -0.268 OA
BRANCH  14  16
ATOM     16  C   UNL     1      -0.890  -8.158  -2.009  0.00  0.00    +0.043 A 
ATOM     17  C   UNL     1      -1.996  -8.351  -1.178  0.00  0.00    +0.017 A 
ATOM     18  C   UNL     1      -2.212  -9.580  -0.594  0.00  0.00    +0.050 A 
ATOM     19  C   UNL     1      -1.333 -10.629  -0.828  0.00  0.00    +0.166 A 
ATOM     20  C   UNL     1      -0.227 -10.442  -1.657  0.00  0.00    +0.167 A 
ATOM     21  C   UNL     1      -0.009  -9.213  -2.250  0.00  0.00    +0.062 A 
ATOM     22  O   UNL     1       0.472 -11.613  -1.722  0.00  0.00    -0.453 OA
ATOM     23  C   UNL     1       0.012 -12.397  -0.605  0.00  0.00    +0.466 C 
ATOM     24  O   UNL     1      -1.325 -11.916  -0.377  0.00  0.00    -0.453 OA
ENDBRANCH  14  16
ENDBRANCH   4  14
BRANCH   1  25
ATOM     25  C   UNL     1      -1.821  -2.264  -3.217  0.00  0.00    +0.120 C 
BRANCH  25  26
ATOM     26  C   UNL     1      -2.739  -1.218  -2.579  0.00  0.00    +0.054 C 
BRANCH  26  33
ATOM     27  C   UNL     1      -5.371   0.513  -5.915  0.00  0.00    +0.001 A 
ATOM     28  C   UNL     1      -4.936   1.761  -6.383  0.00  0.00    +0.002 A 
ATOM     29  C   UNL     1      -3.845   2.385  -5.891  0.00  0.00    +0.026 A 
ATOM     30  C   UNL     1      -3.079   1.783  -4.855  0.00  0.00    +0.043 A 
ATOM     31  N   UNL     1      -2.001   2.179  -4.224  0.00  0.00    -0.380 N 
ATOM     32  C   UNL     1      -1.633   1.157  -3.239  0.00  0.00    +0.144 C 
ATOM     33  C   UNL     1      -2.668   0.062  -3.370  0.00  0.00    -0.040 C 
ATOM     34  C   UNL     1      -3.518   0.465  -4.343  0.00  0.00    -0.001 A 
ATOM     35  C   UNL     1      -4.715  -0.145  -4.932  0.00  0.00    +0.010 A 
ATOM     36  H   UNL     1      -1.526   3.010  -4.382  0.00  0.00    +0.160 HD
ENDBRANCH  26  33
ENDBRANCH  25  26
ENDBRANCH   1  25
TORSDOF 6
