REMARK  Name = ZINC08831562
REMARK  12 active torsions:
REMARK  status: ('A' for Active; 'I' for Inactive)
REMARK    1  A    between atoms: C_1  and  C_2
REMARK    2  A    between atoms: C_2  and  O_3
REMARK    3  A    between atoms: O_3  and  C_4
REMARK    4  A    between atoms: C_7  and  C_10
REMARK    5  A    between atoms: N_12  and  C_13
REMARK    6  A    between atoms: C_13  and  N_15
REMARK    7  A    between atoms: N_15  and  C_16
REMARK    8  A    between atoms: C_17  and  C_30
REMARK    9  A    between atoms: C_22  and  C_26
REMARK   10  A    between atoms: C_26  and  C_27
REMARK   11  A    between atoms: C_26  and  C_28
REMARK   12  A    between atoms: C_26  and  C_29
REMARK                            x       y       z     vdW  Elec       q    Type
REMARK                         _______ _______ _______ _____ _____    ______ ____
ROOT
ATOM      1  N   UNL     1       1.520  -1.987  -0.022  0.00  0.00    -0.290 N 
ATOM      2  H   UNL     1       0.795  -2.632  -0.018  0.00  0.00    +0.154 HD
ENDROOT
BRANCH   1   3
ATOM      3  C   UNL     1       1.240  -0.629  -0.013  0.00  0.00    +0.089 A 
ATOM      4  C   UNL     1       0.002  -0.004   0.002  0.00  0.00    +0.084 A 
ATOM      5  C   UNL     1      -0.018   1.448   0.010  0.00  0.00    -0.018 A 
ATOM      6  C   UNL     1       1.197   2.040   0.002  0.00  0.00    -0.004 A 
ATOM      7  S   UNL     1       2.353   0.699  -0.016  0.00  0.00    -0.077 S 
ATOM      8  C   UNL     1       1.486   3.510   0.005  0.00  0.00    +0.047 C 
ATOM      9  C   UNL     1       0.194   4.257  -0.357  0.00  0.00    -0.000 C 
ATOM     10  C   UNL     1      -0.953   3.697   0.488  0.00  0.00    +0.009 C 
ATOM     11  C   UNL     1      -1.295   2.279   0.033  0.00  0.00    +0.037 C 
BRANCH   9  12
ATOM     12  C   UNL     1       0.366   5.749  -0.065  0.00  0.00    -0.035 C 
ATOM     13  C   UNL     1       1.524   6.302  -0.898  0.00  0.00    +0.011 C 
ATOM     14  C   UNL     1      -0.922   6.491  -0.427  0.00  0.00    +0.011 C 
ATOM     15  C   UNL     1       0.668   5.946   1.422  0.00  0.00    +0.011 C 
ENDBRANCH   9  12
BRANCH   4  16
ATOM     16  C   UNL     1      -1.212  -0.763   0.008  0.00  0.00    +0.102 C 
ATOM     17  N   UNL     1      -2.176  -1.365   0.013  0.00  0.00    -0.191 NA
ENDBRANCH   4  16
ENDBRANCH   1   3
BRANCH   1  18
ATOM     18  C   UNL     1       2.799  -2.412  -0.036  0.00  0.00    +0.141 C 
ATOM     19  S   UNL     1       4.079  -1.274  -0.042  0.00  0.00    -0.018 S 
BRANCH  18  22
ATOM     20  C   UNL     1       4.350  -4.157  -0.059  0.00  0.00    +0.250 C 
ATOM     21  O   UNL     1       5.259  -3.349  -0.063  0.00  0.00    -0.270 OA
ATOM     22  N   UNL     1       3.071  -3.732  -0.045  0.00  0.00    -0.264 N 
ATOM     23  H   UNL     1       2.346  -4.377  -0.041  0.00  0.00    +0.157 HD
BRANCH  20  27
ATOM     24  C   UNL     1       5.207  -8.315  -0.086  0.00  0.00    +0.121 A 
ATOM     25  C   UNL     1       6.247  -7.393  -0.092  0.00  0.00    +0.046 A 
ATOM     26  C   UNL     1       5.974  -6.044  -0.083  0.00  0.00    +0.016 A 
ATOM     27  C   UNL     1       4.648  -5.601  -0.069  0.00  0.00    +0.037 A 
ATOM     28  C   UNL     1       3.605  -6.532  -0.058  0.00  0.00    +0.016 A 
ATOM     29  C   UNL     1       3.887  -7.879  -0.072  0.00  0.00    +0.046 A 
BRANCH  24  30
ATOM     30  O   UNL     1       5.481  -9.644  -0.094  0.00  0.00    -0.492 OA
BRANCH  30  32
ATOM     31  C   UNL     1       4.867 -11.982  -0.099  0.00  0.00    +0.048 C 
ATOM     32  C   UNL     1       4.364 -10.537  -0.088  0.00  0.00    +0.225 C 
ENDBRANCH  30  32
ENDBRANCH  24  30
ENDBRANCH  20  27
ENDBRANCH  18  22
ENDBRANCH   1  18
TORSDOF 8
