REMARK  Name = ZINC31055905
REMARK  10 active torsions:
REMARK  status: ('A' for Active; 'I' for Inactive)
REMARK    1  A    between atoms: C_1  and  C_2
REMARK    2  A    between atoms: C_5  and  O_8
REMARK    3  A    between atoms: O_8  and  C_9
REMARK    4  A    between atoms: C_9  and  C_10
REMARK    5  A    between atoms: C_10  and  C_12
REMARK    6  A    between atoms: C_10  and  N_13
REMARK    7  A    between atoms: C_14  and  C_16
REMARK    8  A    between atoms: N_21  and  C_23
REMARK    9  A    between atoms: C_23  and  C_24
REMARK   10  A    between atoms: C_26  and  C_29
REMARK                            x       y       z     vdW  Elec       q    Type
REMARK                         _______ _______ _______ _____ _____    ______ ____
ROOT
ATOM      1  C   UNL     1       1.073   7.676   3.036  0.00  0.00    +0.058 C 
ATOM      2  C   UNL     1      -0.445   7.512   2.915  0.00  0.00    +0.009 C 
ATOM      3  C   UNL     1      -1.106   7.983   4.214  0.00  0.00    -0.018 C 
ATOM      4  C   UNL     1      -0.714   9.438   4.482  0.00  0.00    -0.078 C 
ATOM      5  N   UNL     1       0.747   9.540   4.590  0.00  0.00    +0.386 N 
ATOM      6  C   UNL     1       1.401   9.139   3.338  0.00  0.00    -0.065 C 
ATOM      7  H   UNL     1       1.075   8.846   5.377  0.00  0.00    -0.081 HD
ENDROOT
BRANCH   1   9
ATOM      8  N   UNL     1       1.572   6.017   1.270  0.00  0.00    -0.309 N 
ATOM      9  C   UNL     1       1.726   7.270   1.740  0.00  0.00    +0.215 C 
ATOM     10  O   UNL     1       2.392   8.073   1.119  0.00  0.00    -0.276 OA
ATOM     11  H   UNL     1       0.969   5.289   1.833  0.00  0.00    +0.149 HD
BRANCH   8  12
ATOM     12  C   UNL     1       2.208   5.623   0.010  0.00  0.00    +0.107 C 
ATOM     13  C   UNL     1       1.305   6.016  -1.161  0.00  0.00    +0.031 C 
BRANCH  12  14
ATOM     14  C   UNL     1       2.426   4.108   0.001  0.00  0.00    +0.251 C 
BRANCH  14  15
ATOM     15  O   UNL     1       1.160   3.445   0.009  0.00  0.00    -0.490 OA
BRANCH  15  20
ATOM     16  C   UNL     1       1.226  -2.187  -0.021  0.00  0.00    +0.044 C 
ATOM     17  C   UNL     1       1.208  -0.680  -0.013  0.00  0.00    -0.050 A 
ATOM     18  C   UNL     1       0.002  -0.004   0.002  0.00  0.00    +0.007 A 
ATOM     19  C   UNL     1      -0.017   1.377   0.010  0.00  0.00    +0.046 A 
ATOM     20  C   UNL     1       1.176   2.086   0.002  0.00  0.00    +0.121 A 
ATOM     21  C   UNL     1       2.385   1.405  -0.013  0.00  0.00    +0.046 A 
ATOM     22  C   UNL     1       2.398   0.024  -0.021  0.00  0.00    +0.007 A 
ENDBRANCH  15  20
ENDBRANCH  14  15
ENDBRANCH  12  14
ENDBRANCH   8  12
ENDBRANCH   1   9
BRANCH   5  23
ATOM     23  C   UNL     1       1.152  10.896   4.984  0.00  0.00    +0.022 C 
BRANCH  23  24
ATOM     24  C   UNL     1       0.663  11.180   6.381  0.00  0.00    +0.211 A 
ATOM     25  N   UNL     1       1.309  10.939   7.495  0.00  0.00    -0.193 NA
ATOM     26  C   UNL     1       0.490  11.357   8.487  0.00  0.00    +0.203 A 
ATOM     27  N   UNL     1      -0.597  11.815   7.923  0.00  0.00    -0.056 NA
ATOM     28  O   UNL     1      -0.513  11.720   6.717  0.00  0.00    -0.340 OA
BRANCH  26  29
ATOM     29  C   UNL     1       0.770  11.301   9.943  0.00  0.00    +0.041 A 
ATOM     30  C   UNL     1       1.978  10.778  10.403  0.00  0.00    +0.014 A 
ATOM     31  C   UNL     1       2.236  10.734  11.758  0.00  0.00    +0.021 A 
ATOM     32  C   UNL     1       1.294  11.197  12.661  0.00  0.00    +0.042 A 
ATOM     33  C   UNL     1       0.091  11.712  12.211  0.00  0.00    +0.040 A 
ATOM     34  C   UNL     1      -0.175  11.766  10.856  0.00  0.00    +0.053 A 
ATOM     35 CL   UNL     1      -1.685  12.412  10.292  0.00  0.00    -0.083 Cl
ATOM     36 CL   UNL     1       1.624  11.132  14.364  0.00  0.00    -0.083 Cl
ENDBRANCH  26  29
ENDBRANCH  23  24
ENDBRANCH   5  23
TORSDOF 8
