REMARK  Name = ZINC12711603
REMARK  12 active torsions:
REMARK  status: ('A' for Active; 'I' for Inactive)
REMARK    1  A    between atoms: C_1  and  C_2
REMARK    2  A    between atoms: C_2  and  O_3
REMARK    3  A    between atoms: O_3  and  C_4
REMARK    4  A    between atoms: C_8  and  C_10
REMARK    5  A    between atoms: C_10  and  N_68
REMARK    6  A    between atoms: C_11  and  C_12
REMARK    7  A    between atoms: C_11  and  N_68
REMARK    8  A    between atoms: C_12  and  O_13
REMARK    9  A    between atoms: O_13  and  C_14
REMARK   10  A    between atoms: C_15  and  C_16
REMARK   11  A    between atoms: C_15  and  N_68
REMARK   12  A    between atoms: C_22  and  N_70
REMARK                            x       y       z     vdW  Elec       q    Type
REMARK                         _______ _______ _______ _____ _____    ______ ____
ROOT
ATOM      1  C   UNL     1      -2.350  -3.209  -2.211  0.00  0.00    -0.077 C 
ENDROOT
BRANCH   1   2
ATOM      2  C   UNL     1      -2.849  -1.884  -2.789  0.00  0.00    -0.044 C 
ATOM      3  C   UNL     1      -4.124  -1.454  -2.059  0.00  0.00    -0.002 C 
ATOM      4  C   UNL     1      -4.582  -0.098  -2.603  0.00  0.00    -0.018 C 
ATOM      5  C   UNL     1      -3.458   0.925  -2.425  0.00  0.00    -0.078 C 
ATOM      6  C   UNL     1      -1.775  -0.810  -2.606  0.00  0.00    -0.077 C 
ATOM      7  N   UNL     1      -2.268   0.464  -3.172  0.00  0.00    +0.382 N 
ATOM      8  H   UNL     1      -2.529   0.313  -4.154  0.00  0.00    -0.081 HD
BRANCH   7   9
ATOM      9  C   UNL     1      -1.205   1.489  -3.110  0.00  0.00    -0.060 C 
ATOM     10  C   UNL     1      -1.721   2.829  -3.675  0.00  0.00    +0.020 C 
ATOM     11  C   UNL     1      -0.538   3.434  -4.401  0.00  0.00    -0.046 A 
ATOM     12  C   UNL     1      -0.311   4.734  -4.821  0.00  0.00    +0.004 A 
ATOM     13  C   UNL     1       0.860   5.059  -5.476  0.00  0.00    +0.000 A 
ATOM     14  C   UNL     1       1.811   4.084  -5.713  0.00  0.00    +0.000 A 
ATOM     15  C   UNL     1       1.587   2.786  -5.296  0.00  0.00    +0.004 A 
ATOM     16  C   UNL     1       0.412   2.459  -4.639  0.00  0.00    -0.046 A 
ATOM     17  C   UNL     1      -0.066   1.132  -4.089  0.00  0.00    +0.020 C 
ENDBRANCH   7   9
ENDBRANCH   1   2
BRANCH   1  18
ATOM     18  N   UNL     1      -3.346  -4.261  -2.508  0.00  0.00    +0.384 N 
ATOM     19  H   UNL     1      -4.288  -3.881  -2.353  0.00  0.00    -0.081 HD
BRANCH  18  20
ATOM     20  C   UNL     1      -3.226  -4.685  -3.919  0.00  0.00    -0.043 C 
BRANCH  20  25
ATOM     21  C   UNL     1      -5.580  -7.564  -4.588  0.00  0.00    +0.121 A 
ATOM     22  C   UNL     1      -6.726  -6.894  -4.992  0.00  0.00    +0.045 A 
ATOM     23  C   UNL     1      -6.734  -5.513  -5.045  0.00  0.00    +0.004 A 
ATOM     24  C   UNL     1      -5.602  -4.800  -4.698  0.00  0.00    +0.002 A 
ATOM     25  C   UNL     1      -4.459  -5.466  -4.296  0.00  0.00    -0.060 A 
ATOM     26  C   UNL     1      -4.444  -6.846  -4.245  0.00  0.00    +0.047 A 
BRANCH  21  27
ATOM     27  O   UNL     1      -5.569  -8.922  -4.535  0.00  0.00    -0.492 OA
BRANCH  27  29
ATOM     28  C   UNL     1      -6.537 -11.110  -4.876  0.00  0.00    +0.048 C 
ATOM     29  C   UNL     1      -6.733  -9.599  -5.014  0.00  0.00    +0.225 C 
ENDBRANCH  27  29
ENDBRANCH  21  27
ENDBRANCH  20  25
ENDBRANCH  18  20
BRANCH  18  30
ATOM     30  C   UNL     1      -3.141  -5.418  -1.613  0.00  0.00    -0.050 C 
BRANCH  30  31
ATOM     31  C   UNL     1      -3.734  -5.088  -0.241  0.00  0.00    +0.141 C 
BRANCH  31  32
ATOM     32  O   UNL     1      -5.145  -4.904  -0.364  0.00  0.00    -0.385 OA
ATOM     33  C   UNL     1      -5.784  -4.483   0.843  0.00  0.00    +0.193 C 
ENDBRANCH  31  32
ENDBRANCH  30  31
ENDBRANCH  18  30
ENDBRANCH   1  18
TORSDOF 10
