REMARK  Name = ZINC02256475
REMARK  12 active torsions:
REMARK  status: ('A' for Active; 'I' for Inactive)
REMARK    1  A    between atoms: C_1  and  C_2
REMARK    2  A    between atoms: C_2  and  C_3
REMARK    3  A    between atoms: C_2  and  C_4
REMARK    4  A    between atoms: C_4  and  C_5
REMARK    5  A    between atoms: C_5  and  N_6
REMARK    6  A    between atoms: C_7  and  N_26
REMARK    7  A    between atoms: C_8  and  C_19
REMARK    8  A    between atoms: C_19  and  O_21
REMARK    9  A    between atoms: O_21  and  C_22
REMARK   10  A    between atoms: C_22  and  C_23
REMARK   11  A    between atoms: C_22  and  C_24
REMARK   12  A    between atoms: C_22  and  C_25
REMARK                            x       y       z     vdW  Elec       q    Type
REMARK                         _______ _______ _______ _____ _____    ______ ____
ROOT
ATOM      1  N   UNL     1       1.395  -4.153   0.803  0.00  0.00    -0.312 N 
ATOM      2  C   UNL     1       1.669  -2.844   0.552  0.00  0.00    +0.114 A 
ATOM      3  C   UNL     1       0.678  -2.028   1.090  0.00  0.00    +0.126 A 
ATOM      4  C   UNL     1      -0.302  -2.925   1.724  0.00  0.00    +0.124 A 
ATOM      5  C   UNL     1       0.214  -4.279   1.506  0.00  0.00    +0.162 A 
ATOM      6  N   UNL     1      -0.461  -5.311   1.968  0.00  0.00    -0.226 NA
ATOM      7  C   UNL     1      -1.608  -5.115   2.630  0.00  0.00    +0.092 A 
ATOM      8  C   UNL     1      -2.336  -6.212   3.127  0.00  0.00    +0.030 A 
ATOM      9  C   UNL     1      -3.501  -6.004   3.798  0.00  0.00    +0.002 A 
ATOM     10  C   UNL     1      -3.989  -4.715   4.004  0.00  0.00    +0.002 A 
ATOM     11  C   UNL     1      -3.314  -3.629   3.538  0.00  0.00    +0.030 A 
ATOM     12  C   UNL     1      -2.105  -3.804   2.839  0.00  0.00    +0.090 A 
ATOM     13  N   UNL     1      -1.432  -2.744   2.377  0.00  0.00    -0.241 NA
ENDROOT
BRANCH   2  14
ATOM     14  N   UNL     1       2.767  -2.393  -0.131  0.00  0.00    -0.344 N 
ATOM     15  H   UNL     1       2.896  -1.442  -0.268  0.00  0.00    +0.144 HD
ATOM     16  H   UNL     1       3.416  -3.025  -0.478  0.00  0.00    +0.144 HD
ENDBRANCH   2  14
BRANCH   3  17
ATOM     17  C   UNL     1       0.621  -0.614   1.034  0.00  0.00    +0.345 C 
ATOM     18  O   UNL     1       1.131   0.051   1.917  0.00  0.00    -0.245 OA
BRANCH  17  19
ATOM     19  O   UNL     1       0.002  -0.004   0.002  0.00  0.00    -0.455 OA
BRANCH  19  20
ATOM     20  C   UNL     1      -0.017   1.425   0.010  0.00  0.00    +0.106 C 
ATOM     21  C   UNL     1       1.418   1.954  -0.001  0.00  0.00    +0.055 C 
ATOM     22  C   UNL     1      -0.757   1.932  -1.230  0.00  0.00    +0.055 C 
ATOM     23  C   UNL     1      -0.733   1.918   1.269  0.00  0.00    +0.055 C 
ENDBRANCH  19  20
ENDBRANCH  17  19
ENDBRANCH   3  17
BRANCH   1  24
ATOM     24  C   UNL     1       2.235  -5.275   0.379  0.00  0.00    +0.125 C 
BRANCH  24  25
ATOM     25  C   UNL     1       1.797  -5.744  -1.010  0.00  0.00    +0.024 C 
BRANCH  25  27
ATOM     26  C   UNL     1       2.159  -7.465  -2.784  0.00  0.00    +0.007 C 
ATOM     27  C   UNL     1       2.675  -6.917  -1.453  0.00  0.00    -0.016 C 
ATOM     28  C   UNL     1       4.118  -6.437  -1.624  0.00  0.00    +0.007 C 
ENDBRANCH  25  27
ENDBRANCH  24  25
ENDBRANCH   1  24
TORSDOF 7
