REMARK  Name = ZINC57381145
REMARK  8 active torsions:
REMARK  status: ('A' for Active; 'I' for Inactive)
REMARK    1  A    between atoms: C_1  and  C_2
REMARK    2  A    between atoms: C_2  and  C_4
REMARK    3  A    between atoms: C_8  and  N_10
REMARK    4  A    between atoms: C_11  and  C_13
REMARK    5  A    between atoms: C_13  and  N_14
REMARK    6  A    between atoms: N_14  and  C_15
REMARK    7  A    between atoms: C_15  and  C_17
REMARK    8  A    between atoms: C_15  and  C_26
REMARK                            x       y       z     vdW  Elec       q    Type
REMARK                         _______ _______ _______ _____ _____    ______ ____
ROOT
ATOM      1  N   UNL     1      -4.947  -6.940   0.345  0.00  0.00    -0.297 NA
ATOM      2  H   UNL     1      -5.428  -6.512   1.122  0.00  0.00    +0.123 HD
ENDROOT
BRANCH   1   3
ATOM      3  C   UNL     1      -3.570  -6.440   0.238  0.00  0.00    +0.178 C 
BRANCH   3   5
ATOM      4  N   UNL     1      -2.432  -4.255   0.015  0.00  0.00    -0.284 N 
ATOM      5  C   UNL     1      -3.589  -4.937   0.126  0.00  0.00    +0.231 C 
ATOM      6  O   UNL     1      -4.646  -4.342   0.134  0.00  0.00    -0.274 OA
ATOM      7  H   UNL     1      -1.593  -4.734  -0.068  0.00  0.00    +0.155 HD
BRANCH   4  12
ATOM      8  C   UNL     1      -3.387  -0.775   0.779  0.00  0.00    +0.019 A 
ATOM      9  C   UNL     1      -2.443  -0.077   0.019  0.00  0.00    +0.011 A 
ATOM     10  C   UNL     1      -1.512  -0.768  -0.728  0.00  0.00    +0.002 A 
ATOM     11  C   UNL     1      -1.508  -2.151  -0.729  0.00  0.00    +0.023 A 
ATOM     12  C   UNL     1      -2.442  -2.856   0.022  0.00  0.00    +0.034 A 
ATOM     13  C   UNL     1      -3.378  -2.173   0.782  0.00  0.00    +0.034 A 
BRANCH   8  15
ATOM     14  C   UNL     1      -4.389   1.465   1.573  0.00  0.00    +0.091 C 
ATOM     15  C   UNL     1      -4.382  -0.042   1.578  0.00  0.00    +0.160 C 
ATOM     16  O   UNL     1      -5.196  -0.650   2.240  0.00  0.00    -0.292 OA
ENDBRANCH   8  15
ENDBRANCH   4  12
ENDBRANCH   3   5
ENDBRANCH   1   3
BRANCH   1  17
ATOM     17  C   UNL     1      -4.968  -8.405   0.457  0.00  0.00    +0.122 C 
BRANCH  17  18
ATOM     18  C   UNL     1      -6.231  -8.838   1.157  0.00  0.00    -0.025 A 
ATOM     19  C   UNL     1      -7.429  -8.210   0.872  0.00  0.00    +0.006 A 
ATOM     20  C   UNL     1      -8.585  -8.608   1.514  0.00  0.00    +0.004 A 
ATOM     21  C   UNL     1      -8.548  -9.635   2.443  0.00  0.00    -0.044 A 
ATOM     22  C   UNL     1      -7.350 -10.262   2.728  0.00  0.00    -0.044 A 
ATOM     23  C   UNL     1      -6.193  -9.865   2.079  0.00  0.00    +0.009 A 
ATOM     24  C   UNL     1      -7.571 -11.340   3.767  0.00  0.00    +0.036 C 
ATOM     25  C   UNL     1      -8.939 -11.013   4.404  0.00  0.00    +0.009 C 
ATOM     26  C   UNL     1      -9.657 -10.248   3.271  0.00  0.00    +0.036 C 
ENDBRANCH  17  18
BRANCH  17  27
ATOM     27  C   UNL     1      -4.923  -9.014  -0.920  0.00  0.00    +0.011 A 
ATOM     28  C   UNL     1      -4.246 -10.108  -1.348  0.00  0.00    +0.013 A 
ATOM     29  C   UNL     1      -4.354 -10.488  -2.673  0.00  0.00    +0.008 A 
ATOM     30  C   UNL     1      -5.134  -9.756  -3.505  0.00  0.00    +0.045 A 
ATOM     31  S   UNL     1      -5.753  -8.488  -2.411  0.00  0.00    -0.100 S 
ENDBRANCH  17  27
ENDBRANCH   1  17
TORSDOF 7
