REMARK  Name = ZINC08792011
REMARK  7 active torsions:
REMARK  status: ('A' for Active; 'I' for Inactive)
REMARK    1  A    between atoms: C_7  and  C_11
REMARK    2  A    between atoms: N_12  and  N_13
REMARK    3  A    between atoms: C_14  and  C_16
REMARK    4  A    between atoms: C_16  and  N_17
REMARK    5  A    between atoms: C_18  and  C_20
REMARK    6  A    between atoms: C_23  and  S_26
REMARK    7  A    between atoms: S_26  and  N_29
REMARK                            x       y       z     vdW  Elec       q    Type
REMARK                         _______ _______ _______ _____ _____    ______ ____
ROOT
ATOM      1  N   UNL     1       1.558  10.219   0.040  0.00  0.00    -0.303 N 
ATOM      2  C   UNL     1       2.166  11.421   0.041  0.00  0.00    +0.244 C 
ATOM      3  O   UNL     1       3.379  11.489   0.030  0.00  0.00    -0.270 OA
ATOM      4  H   UNL     1       0.589  10.165   0.049  0.00  0.00    +0.150 HD
ENDROOT
BRANCH   2   5
ATOM      5  C   UNL     1       1.357  12.659   0.055  0.00  0.00    +0.037 A 
ATOM      6  C   UNL     1      -0.037  12.585   0.061  0.00  0.00    +0.015 A 
ATOM      7  C   UNL     1      -0.786  13.743   0.080  0.00  0.00    +0.029 A 
ATOM      8  C   UNL     1      -0.159  14.976   0.080  0.00  0.00    +0.106 A 
ATOM      9  C   UNL     1       1.222  15.057   0.068  0.00  0.00    +0.029 A 
ATOM     10  C   UNL     1       1.983  13.906   0.056  0.00  0.00    +0.015 A 
BRANCH   8  11
ATOM     11  S   UNL     1      -1.123  16.451   0.098  0.00  0.00    +0.061 S 
ATOM     12  O   UNL     1      -2.383  16.106   0.658  0.00  0.00    -0.153 OA
ATOM     13  O   UNL     1      -0.299  17.469   0.646  0.00  0.00    -0.153 OA
BRANCH  11  14
ATOM     14  N   UNL     1      -1.406  16.869  -1.480  0.00  0.00    -0.177 NA
ATOM     15  C   UNL     1      -0.479  17.756  -2.196  0.00  0.00    +0.109 C 
ATOM     16  C   UNL     1      -0.050  17.063  -3.499  0.00  0.00    +0.017 C 
ATOM     17  C   UNL     1      -1.296  16.677  -4.299  0.00  0.00    +0.003 C 
ATOM     18  C   UNL     1      -2.142  15.694  -3.487  0.00  0.00    +0.017 C 
ATOM     19  C   UNL     1      -2.592  16.366  -2.187  0.00  0.00    +0.109 C 
ENDBRANCH  11  14
ENDBRANCH   8  11
ENDBRANCH   2   5
BRANCH   1  20
ATOM     20  C   UNL     1       2.360   8.993   0.027  0.00  0.00    +0.202 C 
BRANCH  20  22
ATOM     21  N   UNL     1       1.965   6.551   0.018  0.00  0.00    -0.206 N 
ATOM     22  C   UNL     1       1.446   7.795   0.029  0.00  0.00    +0.249 C 
ATOM     23  O   UNL     1       0.242   7.949   0.041  0.00  0.00    -0.272 OA
ATOM     24  H   UNL     1       2.927   6.427   0.008  0.00  0.00    +0.177 HD
BRANCH  21  26
ATOM     25  C   UNL     1       1.615   4.238   0.009  0.00  0.00    +0.140 C 
ATOM     26  N   UNL     1       1.115   5.437   0.020  0.00  0.00    -0.188 NA
BRANCH  25  33
ATOM     27  C   UNL     1      -3.045   3.774   0.048  0.00  0.00    +0.001 A 
ATOM     28  C   UNL     1      -3.443   2.444   0.045  0.00  0.00    +0.002 A 
ATOM     29  C   UNL     1      -2.510   1.432   0.031  0.00  0.00    +0.026 A 
ATOM     30  C   UNL     1      -1.153   1.738   0.016  0.00  0.00    +0.047 A 
ATOM     31  C   UNL     1      -0.751   3.084   0.024  0.00  0.00    +0.008 A 
ATOM     32  C   UNL     1      -1.706   4.098   0.038  0.00  0.00    +0.010 A 
ATOM     33  C   UNL     1       0.723   3.068   0.011  0.00  0.00    +0.020 A 
ATOM     34  C   UNL     1       1.096   1.760   0.001  0.00  0.00    +0.093 A 
ATOM     35  N   UNL     1      -0.011   0.966   0.007  0.00  0.00    -0.360 N 
ATOM     36  H   UNL     1       0.002  -0.004   0.002  0.00  0.00    +0.165 HD
ENDBRANCH  25  33
ENDBRANCH  21  26
ENDBRANCH  20  22
ENDBRANCH   1  20
TORSDOF 7
