REMARK  Name = ZINC23590681
REMARK  5 active torsions:
REMARK  status: ('A' for Active; 'I' for Inactive)
REMARK    1  A    between atoms: C_1  and  C_2
REMARK    2  A    between atoms: C_2  and  C_4
REMARK    3  A    between atoms: C_2  and  S_16
REMARK    4  A    between atoms: N_6  and  C_7
REMARK    5  A    between atoms: S_16  and  C_17
REMARK                            x       y       z     vdW  Elec       q    Type
REMARK                         _______ _______ _______ _____ _____    ______ ____
ROOT
ATOM      1  S   UNL     1      -1.752   0.039   0.710  0.00  0.00    -0.073 S 
ENDROOT
BRANCH   1   2
ATOM      2  C   UNL     1      -2.557   1.220  -0.320  0.00  0.00    +0.192 A 
ATOM      3  N   UNL     1      -1.838   2.168  -0.909  0.00  0.00    -0.207 NA
ATOM      4  C   UNL     1      -2.386   3.082  -1.692  0.00  0.00    +0.129 A 
ATOM      5  C   UNL     1      -3.792   3.053  -1.916  0.00  0.00    +0.051 A 
ATOM      6  C   UNL     1      -4.607   3.954  -2.735  0.00  0.00    -0.025 A 
ATOM      7  C   UNL     1      -5.931   3.708  -2.780  0.00  0.00    -0.004 A 
ATOM      8  S   UNL     1      -6.174   2.284  -1.752  0.00  0.00    -0.073 S 
ATOM      9  C   UNL     1      -4.490   2.020  -1.260  0.00  0.00    +0.115 A 
ATOM     10  N   UNL     1      -3.869   1.142  -0.497  0.00  0.00    -0.214 NA
ATOM     11  C   UNL     1      -6.972   4.476  -3.538  0.00  0.00    +0.043 C 
ATOM     12  C   UNL     1      -6.365   5.819  -3.967  0.00  0.00    +0.005 C 
ATOM     13  C   UNL     1      -4.991   5.560  -4.591  0.00  0.00    +0.005 C 
ATOM     14  C   UNL     1      -4.004   5.122  -3.509  0.00  0.00    +0.037 C 
ATOM     15  N   UNL     1      -1.603   4.053  -2.288  0.00  0.00    -0.343 N 
ATOM     16  H   UNL     1      -2.066   4.810  -2.939  0.00  0.00    +0.144 HD
ATOM     17  H   UNL     1      -0.518   4.069  -2.112  0.00  0.00    +0.144 HD
ENDBRANCH   1   2
BRANCH   1  19
ATOM     18  C   UNL     1       0.439   0.449  -0.871  0.00  0.00    +0.029 C 
ATOM     19  C   UNL     1      -0.042   0.616   0.572  0.00  0.00    +0.137 C 
BRANCH  19  20
ATOM     20  C   UNL     1       0.837  -0.193   1.491  0.00  0.00    +0.230 C 
ATOM     21  O   UNL     1       0.505  -1.314   1.816  0.00  0.00    -0.274 OA
ATOM     22  N   UNL     1       1.992   0.328   1.952  0.00  0.00    -0.282 N 
ATOM     23  H   UNL     1       2.329   1.314   1.599  0.00  0.00    +0.155 HD
BRANCH  22  24
ATOM     24  C   UNL     1       2.762  -0.386   2.879  0.00  0.00    +0.072 A 
ATOM     25  C   UNL     1       2.712  -1.773   2.903  0.00  0.00    +0.029 A 
ATOM     26  C   UNL     1       3.473  -2.476   3.818  0.00  0.00    +0.043 A 
ATOM     27  C   UNL     1       4.285  -1.799   4.712  0.00  0.00    +0.161 A 
ATOM     28  C   UNL     1       4.338  -0.414   4.692  0.00  0.00    +0.195 A 
ATOM     29  C   UNL     1       3.581   0.294   3.773  0.00  0.00    +0.182 A 
ATOM     30  F   UNL     1       3.635   1.644   3.749  0.00  0.00    -0.200 F 
ATOM     31  F   UNL     1       5.131   0.244   5.565  0.00  0.00    -0.199 F 
ATOM     32  F   UNL     1       5.026  -2.490   5.605  0.00  0.00    -0.202 F 
ENDBRANCH  22  24
ENDBRANCH  19  20
ENDBRANCH   1  19
TORSDOF 4
