REMARK  Name = ZINC08768069
REMARK  7 active torsions:
REMARK  status: ('A' for Active; 'I' for Inactive)
REMARK    1  A    between atoms: C_1  and  C_2
REMARK    2  A    between atoms: C_2  and  C_33
REMARK    3  A    between atoms: C_6  and  N_25
REMARK    4  A    between atoms: C_12  and  N_16
REMARK    5  A    between atoms: N_16  and  C_17
REMARK    6  A    between atoms: C_17  and  C_18
REMARK    7  A    between atoms: C_18  and  C_19
REMARK                            x       y       z     vdW  Elec       q    Type
REMARK                         _______ _______ _______ _____ _____    ______ ____
ROOT
ATOM      1  C   UNL     1      -2.878   9.221  -2.943  0.00  0.00    +0.023 C 
ATOM      2  C   UNL     1      -2.750   7.749  -2.545  0.00  0.00    +0.015 C 
ATOM      3  C   UNL     1      -2.638   6.884  -3.793  0.00  0.00    +0.053 C 
ATOM      4  C   UNL     1      -2.310   5.449  -3.504  0.00  0.00    -0.027 A 
ATOM      5  C   UNL     1      -1.732   4.944  -2.393  0.00  0.00    +0.004 A 
ATOM      6  C   UNL     1      -1.460   3.564  -2.313  0.00  0.00    +0.104 A 
ATOM      7  C   UNL     1      -2.371   3.191  -4.377  0.00  0.00    +0.089 A 
ATOM      8  C   UNL     1      -2.663   4.549  -4.559  0.00  0.00    +0.037 A 
ATOM      9  C   UNL     1      -3.312   4.905  -5.833  0.00  0.00    +0.115 A 
ATOM     10  C   UNL     1      -3.565   3.838  -6.709  0.00  0.00    +0.083 A 
ATOM     11  S   UNL     1      -2.954   2.409  -5.862  0.00  0.00    -0.065 S 
ATOM     12  C   UNL     1      -4.176   4.068  -7.934  0.00  0.00    +0.159 A 
ATOM     13  N   UNL     1      -4.504   5.325  -8.236  0.00  0.00    -0.113 NA
ATOM     14  N   UNL     1      -4.257   6.277  -7.412  0.00  0.00    -0.041 NA
ATOM     15  N   UNL     1      -3.698   6.123  -6.271  0.00  0.00    -0.128 NA
ATOM     16  C   UNL     1      -1.336   5.735  -1.169  0.00  0.00    +0.108 C 
ATOM     17  S   UNL     1      -1.232   7.502  -1.569  0.00  0.00    -0.149 S 
ATOM     18  C   UNL     1      -3.970   7.324  -1.727  0.00  0.00    +0.023 C 
ATOM     19  N   UNL     1      -1.771   2.670  -3.283  0.00  0.00    -0.337 N 
ATOM     20  H   UNL     1      -1.565   1.668  -3.193  0.00  0.00    +0.168 HD
ENDROOT
BRANCH   6  21
ATOM     21  N   UNL     1      -0.839   3.061  -1.178  0.00  0.00    -0.312 N 
ATOM     22  C   UNL     1       0.099   1.983  -1.525  0.00  0.00    +0.134 C 
ATOM     23  C   UNL     1       0.803   1.498  -0.255  0.00  0.00    +0.178 C 
ATOM     24  O   UNL     1      -0.177   1.077   0.698  0.00  0.00    -0.377 OA
ATOM     25  C   UNL     1      -1.107   2.103   1.058  0.00  0.00    +0.178 C 
ATOM     26  C   UNL     1      -1.831   2.593  -0.199  0.00  0.00    +0.134 C 
ENDBRANCH   6  21
BRANCH  12  27
ATOM     27  N   UNL     1      -4.436   3.028  -8.814  0.00  0.00    -0.326 N 
ATOM     28  H   UNL     1      -4.190   2.120  -8.577  0.00  0.00    +0.148 HD
BRANCH  27  29
ATOM     29  C   UNL     1      -5.081   3.300 -10.100  0.00  0.00    +0.107 C 
BRANCH  29  30
ATOM     30  C   UNL     1      -5.251   1.990 -10.873  0.00  0.00    +0.054 C 
BRANCH  30  31
ATOM     31  C   UNL     1      -5.915   2.270 -12.196  0.00  0.00    -0.046 A 
ATOM     32  C   UNL     1      -7.293   2.234 -12.300  0.00  0.00    +0.004 A 
ATOM     33  C   UNL     1      -7.902   2.496 -13.512  0.00  0.00    +0.000 A 
ATOM     34  C   UNL     1      -7.133   2.783 -14.624  0.00  0.00    +0.000 A 
ATOM     35  C   UNL     1      -5.755   2.814 -14.523  0.00  0.00    +0.000 A 
ATOM     36  C   UNL     1      -5.146   2.557 -13.308  0.00  0.00    +0.004 A 
ENDBRANCH  30  31
ENDBRANCH  29  30
ENDBRANCH  27  29
ENDBRANCH  12  27
TORSDOF 5
