REMARK  Name = ZINC38593609
REMARK  6 active torsions:
REMARK  status: ('A' for Active; 'I' for Inactive)
REMARK    1  A    between atoms: C_1  and  O_2
REMARK    2  A    between atoms: O_2  and  C_3
REMARK    3  A    between atoms: C_6  and  C_9
REMARK    4  A    between atoms: C_9  and  C_14
REMARK    5  A    between atoms: C_14  and  N_15
REMARK    6  A    between atoms: C_16  and  C_18
REMARK                            x       y       z     vdW  Elec       q    Type
REMARK                         _______ _______ _______ _____ _____    ______ ____
ROOT
ATOM      1  N   UNL     1       2.092  -0.586   5.681  0.00  0.00    -0.314 N 
ATOM      2  C   UNL     1       1.736   0.075   6.800  0.00  0.00    +0.225 C 
ATOM      3  O   UNL     1       1.349  -0.541   7.771  0.00  0.00    -0.275 OA
ATOM      4  H   UNL     1       2.402  -0.093   4.905  0.00  0.00    +0.149 HD
ENDROOT
BRANCH   2   5
ATOM      5  C   UNL     1       1.818   1.579   6.846  0.00  0.00    +0.142 C 
ATOM      6  C   UNL     1       3.236   2.008   6.580  0.00  0.00    +0.011 A 
ATOM      7  C   UNL     1       3.713   2.007   5.281  0.00  0.00    +0.008 A 
ATOM      8  C   UNL     1       5.012   2.398   5.017  0.00  0.00    +0.001 A 
ATOM      9  C   UNL     1       5.840   2.791   6.052  0.00  0.00    +0.004 A 
ATOM     10  C   UNL     1       5.370   2.794   7.350  0.00  0.00    +0.046 A 
ATOM     11  C   UNL     1       4.063   2.402   7.619  0.00  0.00    +0.133 A 
ATOM     12  O   UNL     1       3.619   2.412   8.899  0.00  0.00    -0.455 OA
ATOM     13  C   UNL     1       2.290   2.453   9.155  0.00  0.00    +0.133 A 
ATOM     14  C   UNL     1       1.367   2.061   8.198  0.00  0.00    +0.011 A 
ATOM     15  C   UNL     1       0.014   2.111   8.484  0.00  0.00    +0.008 A 
ATOM     16  C   UNL     1      -0.420   2.551   9.720  0.00  0.00    +0.001 A 
ATOM     17  C   UNL     1       0.499   2.944  10.676  0.00  0.00    +0.004 A 
ATOM     18  C   UNL     1       1.850   2.895  10.397  0.00  0.00    +0.046 A 
ENDBRANCH   2   5
BRANCH   1  19
ATOM     19  C   UNL     1       2.012  -2.048   5.636  0.00  0.00    +0.115 C 
BRANCH  19  20
ATOM     20  C   UNL     1       2.594  -2.551   4.314  0.00  0.00    +0.011 C 
ATOM     21  C   UNL     1       4.049  -2.062   4.156  0.00  0.00    +0.013 C 
ATOM     22  C   UNL     1       4.905  -3.247   4.670  0.00  0.00    +0.001 C 
ATOM     23  C   UNL     1       4.127  -4.481   4.151  0.00  0.00    +0.001 C 
ATOM     24  C   UNL     1       2.644  -4.088   4.311  0.00  0.00    +0.013 C 
BRANCH  20  28
ATOM     25  C   UNL     1       0.219  -1.156   1.047  0.00  0.00    +0.120 A 
ATOM     26  C   UNL     1       1.396  -1.849   0.804  0.00  0.00    +0.046 A 
ATOM     27  C   UNL     1       2.162  -2.299   1.862  0.00  0.00    +0.008 A 
ATOM     28  C   UNL     1       1.757  -2.058   3.162  0.00  0.00    -0.039 A 
ATOM     29  C   UNL     1       0.584  -1.368   3.406  0.00  0.00    +0.008 A 
ATOM     30  C   UNL     1      -0.183  -0.911   2.352  0.00  0.00    +0.046 A 
BRANCH  25  32
ATOM     31  C   UNL     1      -0.062  -1.000  -1.309  0.00  0.00    +0.277 C 
ATOM     32  O   UNL     1      -0.536  -0.712   0.008  0.00  0.00    -0.495 OA
ENDBRANCH  25  32
ENDBRANCH  20  28
ENDBRANCH  19  20
ENDBRANCH   1  19
TORSDOF 5
