REMARK  Name = ZINC13393253
REMARK  12 active torsions:
REMARK  status: ('A' for Active; 'I' for Inactive)
REMARK    1  A    between atoms: C_1  and  N_43
REMARK    2  A    between atoms: C_2  and  N_43
REMARK    3  A    between atoms: C_3  and  C_4
REMARK    4  A    between atoms: C_3  and  N_43
REMARK    5  A    between atoms: C_4  and  C_5
REMARK    6  A    between atoms: C_5  and  O_6
REMARK    7  A    between atoms: O_6  and  C_7
REMARK    8  A    between atoms: C_10  and  C_14
REMARK    9  A    between atoms: C_14  and  C_15
REMARK   10  A    between atoms: C_15  and  N_45
REMARK   11  A    between atoms: C_16  and  N_45
REMARK   12  A    between atoms: C_17  and  N_45
REMARK                            x       y       z     vdW  Elec       q    Type
REMARK                         _______ _______ _______ _____ _____    ______ ____
ROOT
ATOM      1  C   UNL     1       1.156   3.170   0.008  0.00  0.00    +0.147 A 
ATOM      2  C   UNL     1       1.175   1.782   0.000  0.00  0.00    +0.056 A 
ATOM      3  C   UNL     1      -0.013   1.076   0.008  0.00  0.00    +0.021 A 
ATOM      4  C   UNL     1      -1.220   1.750   0.017  0.00  0.00    -0.047 A 
ATOM      5  C   UNL     1      -1.242   3.132   0.030  0.00  0.00    +0.021 A 
ATOM      6  C   UNL     1      -0.057   3.844   0.022  0.00  0.00    +0.056 A 
ATOM      7  I   UNL     1      -0.092   5.939   0.034  0.00  0.00    -0.040 I 
ATOM      8  I   UNL     1       3.003   0.760  -0.021  0.00  0.00    -0.040 I 
ENDROOT
BRANCH   1   9
ATOM      9  O   UNL     1       2.322   3.867   0.001  0.00  0.00    -0.490 OA
BRANCH   9  10
ATOM     10  C   UNL     1       2.868   4.207  -1.276  0.00  0.00    +0.227 C 
BRANCH  10  11
ATOM     11  C   UNL     1       4.171   4.984  -1.083  0.00  0.00    +0.022 C 
BRANCH  11  12
ATOM     12  C   UNL     1       4.755   5.347  -2.450  0.00  0.00    -0.076 C 
BRANCH  12  15
ATOM     13  C   UNL     1       6.718   6.254  -3.540  0.00  0.00    -0.097 C 
ATOM     14  C   UNL     1       5.755   7.396  -1.635  0.00  0.00    -0.097 C 
ATOM     15  N   UNL     1       6.024   6.078  -2.247  0.00  0.00    +0.376 N 
ATOM     16  H   UNL     1       6.625   5.534  -1.617  0.00  0.00    -0.083 HD
ENDBRANCH  12  15
ENDBRANCH  11  12
ENDBRANCH  10  11
ENDBRANCH   9  10
ENDBRANCH   1   9
BRANCH   4  17
ATOM     17  C   UNL     1      -2.513   0.977   0.020  0.00  0.00    +0.016 C 
BRANCH  17  18
ATOM     18  C   UNL     1      -2.944   0.708   1.463  0.00  0.00    -0.075 C 
BRANCH  18  21
ATOM     19  C   UNL     1      -4.528  -0.527   2.815  0.00  0.00    -0.097 C 
ATOM     20  C   UNL     1      -5.302   0.763   0.918  0.00  0.00    -0.097 C 
ATOM     21  N   UNL     1      -4.201  -0.069   1.448  0.00  0.00    +0.376 N 
ATOM     22  H   UNL     1      -4.080  -0.888   0.842  0.00  0.00    -0.083 HD
ENDBRANCH  18  21
ENDBRANCH  17  18
ENDBRANCH   4  17
TORSDOF 8
