REMARK  Name = ZINC39280315
REMARK  7 active torsions:
REMARK  status: ('A' for Active; 'I' for Inactive)
REMARK    1  A    between atoms: C_4  and  C_7
REMARK    2  A    between atoms: C_11  and  C_13
REMARK    3  A    between atoms: N_14  and  N_15
REMARK    4  A    between atoms: C_16  and  C_18
REMARK    5  A    between atoms: C_18  and  S_19
REMARK    6  A    between atoms: S_19  and  C_20
REMARK    7  A    between atoms: N_25  and  C_26
REMARK                            x       y       z     vdW  Elec       q    Type
REMARK                         _______ _______ _______ _____ _____    ______ ____
ROOT
ATOM      1  C   UNL     1       0.246  -5.790  -3.453  0.00  0.00    +0.169 C 
ENDROOT
BRANCH   1   3
ATOM      2  N   UNL     1       1.819  -4.247  -2.329  0.00  0.00    -0.207 N 
ATOM      3  C   UNL     1       0.849  -5.176  -2.216  0.00  0.00    +0.242 C 
ATOM      4  O   UNL     1       0.462  -5.519  -1.119  0.00  0.00    -0.273 OA
ATOM      5  H   UNL     1       2.128  -3.973  -3.206  0.00  0.00    +0.177 HD
BRANCH   2   7
ATOM      6  C   UNL     1       3.300  -2.794  -1.286  0.00  0.00    +0.118 C 
ATOM      7  N   UNL     1       2.380  -3.677  -1.178  0.00  0.00    -0.192 NA
BRANCH   6  12
ATOM      8  C   UNL     1       3.691  -0.680  -0.038  0.00  0.00    +0.084 C 
ATOM      9  N   UNL     1       4.884  -0.152  -0.042  0.00  0.00    -0.153 NA
ATOM     10  N   UNL     1       5.886  -1.118  -0.059  0.00  0.00    -0.161 NA
ATOM     11  C   UNL     1       5.413  -2.321  -0.067  0.00  0.00    +0.123 C 
ATOM     12  C   UNL     1       3.904  -2.181  -0.048  0.00  0.00    +0.125 C 
BRANCH   8  16
ATOM     13  C   UNL     1      -0.017   1.380   0.010  0.00  0.00    +0.000 A 
ATOM     14  C   UNL     1       1.168   2.095   0.002  0.00  0.00    +0.001 A 
ATOM     15  C   UNL     1       2.377   1.433  -0.013  0.00  0.00    +0.010 A 
ATOM     16  C   UNL     1       2.405   0.035  -0.021  0.00  0.00    -0.001 A 
ATOM     17  C   UNL     1       1.203  -0.681  -0.013  0.00  0.00    +0.010 A 
ATOM     18  C   UNL     1       0.002  -0.004   0.002  0.00  0.00    +0.001 A 
ENDBRANCH   8  16
ENDBRANCH   6  12
ENDBRANCH   2   7
ENDBRANCH   1   3
BRANCH   1  19
ATOM     19  S   UNL     1      -1.022  -6.996  -2.974  0.00  0.00    -0.114 S 
BRANCH  19  20
ATOM     20  C   UNL     1      -1.641  -7.634  -4.555  0.00  0.00    +0.203 C 
ATOM     21  N   UNL     1      -0.527  -8.213  -5.345  0.00  0.00    -0.320 NA
ATOM     22  N   UNL     1      -0.847  -7.784  -6.718  0.00  0.00    +0.411 N 
ATOM     23  N   UNL     1      -1.422  -6.447  -6.515  0.00  0.00    -0.265 NA
ATOM     24  N   UNL     1      -2.181  -6.533  -5.370  0.00  0.00    -0.254 N 
ATOM     25  H   UNL     1       0.361  -7.838  -5.047  0.00  0.00    +0.106 HD
ATOM     26  H   UNL     1      -0.010  -7.731  -7.280  0.00  0.00    -0.031 HD
ATOM     27  H   UNL     1      -1.988  -6.174  -7.304  0.00  0.00    +0.125 HD
ATOM     28  H   UNL     1      -1.523  -8.404  -7.138  0.00  0.00    -0.031 HD
BRANCH  24  29
ATOM     29  C   UNL     1      -3.270  -5.722  -5.040  0.00  0.00    +0.045 A 
ATOM     30  C   UNL     1      -3.945  -5.917  -3.842  0.00  0.00    +0.026 A 
ATOM     31  C   UNL     1      -5.020  -5.113  -3.517  0.00  0.00    +0.022 A 
ATOM     32  C   UNL     1      -5.425  -4.114  -4.385  0.00  0.00    +0.041 A 
ATOM     33  C   UNL     1      -4.755  -3.918  -5.579  0.00  0.00    +0.022 A 
ATOM     34  C   UNL     1      -3.675  -4.715  -5.906  0.00  0.00    +0.026 A 
ATOM     35 CL   UNL     1      -6.778  -3.107  -3.974  0.00  0.00    -0.084 Cl
ENDBRANCH  24  29
ENDBRANCH  19  20
ENDBRANCH   1  19
TORSDOF 7
