REMARK  Name = ZINC22473122
REMARK  10 active torsions:
REMARK  status: ('A' for Active; 'I' for Inactive)
REMARK    1  A    between atoms: C_1  and  C_2
REMARK    2  A    between atoms: C_4  and  C_11
REMARK    3  A    between atoms: C_7  and  N_8
REMARK    4  A    between atoms: N_13  and  C_14
REMARK    5  A    between atoms: N_13  and  C_29
REMARK    6  A    between atoms: C_14  and  C_15
REMARK    7  A    between atoms: C_15  and  C_16
REMARK    8  A    between atoms: C_16  and  N_17
REMARK    9  A    between atoms: C_20  and  O_21
REMARK   10  A    between atoms: C_29  and  C_30
REMARK                            x       y       z     vdW  Elec       q    Type
REMARK                         _______ _______ _______ _____ _____    ______ ____
ROOT
ATOM      1  C   UNL     1      -6.639   3.079   1.249  0.00  0.00    +0.247 C 
ATOM      2  O   UNL     1      -7.345   4.069   1.244  0.00  0.00    -0.270 OA
ATOM      3  N   UNL     1      -6.432   2.393   0.108  0.00  0.00    -0.293 N 
ENDROOT
BRANCH   1   7
ATOM      4  C   UNL     1      -6.564   2.949   6.237  0.00  0.00    +0.046 C 
ATOM      5  C   UNL     1      -5.968   2.562   4.908  0.00  0.00    -0.020 A 
ATOM      6  C   UNL     1      -6.562   2.987   3.738  0.00  0.00    +0.018 A 
ATOM      7  C   UNL     1      -6.008   2.627   2.508  0.00  0.00    +0.037 A 
ATOM      8  C   UNL     1      -4.859   1.835   2.471  0.00  0.00    +0.015 A 
ATOM      9  C   UNL     1      -4.273   1.421   3.649  0.00  0.00    +0.034 A 
ATOM     10  C   UNL     1      -4.827   1.781   4.865  0.00  0.00    +0.129 A 
BRANCH  10  11
ATOM     11  N   UNL     1      -4.195   1.329   6.125  0.00  0.00    +0.057 N 
ATOM     12  O   UNL     1      -2.981   1.278   6.214  0.00  0.00    -0.126 OA
ATOM     13  O   UNL     1      -4.889   1.008   7.073  0.00  0.00    -0.126 OA
ENDBRANCH  10  11
ENDBRANCH   1   7
BRANCH   3  14
ATOM     14  C   UNL     1      -5.640   1.161   0.127  0.00  0.00    +0.110 C 
BRANCH  14  15
ATOM     15  C   UNL     1      -4.256   1.435  -0.465  0.00  0.00    +0.040 C 
BRANCH  15  16
ATOM     16  C   UNL     1      -3.429   0.148  -0.445  0.00  0.00    +0.114 C 
BRANCH  16  17
ATOM     17  N   UNL     1      -2.104   0.410  -1.012  0.00  0.00    -0.384 N 
ATOM     18  C   UNL     1      -1.178  -0.606  -1.099  0.00  0.00    +0.053 A 
ATOM     19  C   UNL     1      -1.475  -1.871  -0.661  0.00  0.00    +0.113 A 
ATOM     20  C   UNL     1      -0.514  -2.885  -0.768  0.00  0.00    +0.286 A 
ATOM     21  O   UNL     1       0.702  -2.659  -1.290  0.00  0.00    -0.425 OA
ATOM     22  C   UNL     1       1.065  -1.438  -1.742  0.00  0.00    +0.141 A 
ATOM     23  C   UNL     1       0.158  -0.369  -1.670  0.00  0.00    +0.041 A 
ATOM     24  C   UNL     1       0.529   0.893  -2.136  0.00  0.00    +0.013 A 
ATOM     25  C   UNL     1       1.787   1.081  -2.666  0.00  0.00    +0.001 A 
ATOM     26  C   UNL     1       2.681   0.024  -2.737  0.00  0.00    +0.004 A 
ATOM     27  C   UNL     1       2.328  -1.228  -2.279  0.00  0.00    +0.047 A 
ATOM     28  H   UNL     1      -1.848   1.419  -1.368  0.00  0.00    +0.160 HD
BRANCH  20  29
ATOM     29  O   UNL     1      -0.791  -4.005  -0.375  0.00  0.00    -0.480 OA
ATOM     30  H   UNL     1      -0.048  -4.814  -0.451  0.00  0.00    +0.295 HD
ENDBRANCH  20  29
ENDBRANCH  16  17
ENDBRANCH  15  16
ENDBRANCH  14  15
ENDBRANCH   3  14
BRANCH   3  31
ATOM     31  C   UNL     1      -6.999   2.880  -1.152  0.00  0.00    +0.143 C 
BRANCH  31  32
ATOM     32  C   UNL     1      -8.405   2.361  -1.304  0.00  0.00    -0.030 A 
ATOM     33  C   UNL     1      -8.639   1.198  -2.013  0.00  0.00    +0.005 A 
ATOM     34  C   UNL     1      -9.929   0.718  -2.148  0.00  0.00    +0.000 A 
ATOM     35  C   UNL     1     -10.986   1.408  -1.584  0.00  0.00    +0.000 A 
ATOM     36  C   UNL     1     -10.752   2.574  -0.879  0.00  0.00    +0.000 A 
ATOM     37  C   UNL     1      -9.462   3.051  -0.740  0.00  0.00    +0.005 A 
ENDBRANCH  31  32
ENDBRANCH   3  31
TORSDOF 9
