REMARK  Name = ZINC29666396
REMARK  8 active torsions:
REMARK  status: ('A' for Active; 'I' for Inactive)
REMARK    1  A    between atoms: C_3  and  C_6
REMARK    2  A    between atoms: C_9  and  S_16
REMARK    3  A    between atoms: N_10  and  C_11
REMARK    4  A    between atoms: C_11  and  C_12
REMARK    5  A    between atoms: C_12  and  C_13
REMARK    6  A    between atoms: S_16  and  C_17
REMARK    7  A    between atoms: C_17  and  C_18
REMARK    8  A    between atoms: N_20  and  C_21
REMARK                            x       y       z     vdW  Elec       q    Type
REMARK                         _______ _______ _______ _____ _____    ______ ____
ROOT
ATOM      1  C   UNL     1      -0.187  -3.328   1.662  0.00  0.00    +0.200 A 
ATOM      2  N   UNL     1      -0.644  -3.652   0.472  0.00  0.00    -0.125 NA
ATOM      3  N   UNL     1      -1.896  -3.933   0.545  0.00  0.00    -0.122 NA
ATOM      4  C   UNL     1      -2.319  -3.797   1.782  0.00  0.00    +0.192 A 
ATOM      5  N   UNL     1      -1.248  -3.408   2.537  0.00  0.00    -0.299 N 
ENDROOT
BRANCH   1   8
ATOM      6  C   UNL     1       3.394  -2.628   1.917  0.00  0.00    +0.042 A 
ATOM      7  C   UNL     1       2.290  -3.141   1.208  0.00  0.00    +0.053 A 
ATOM      8  C   UNL     1       1.195  -2.947   1.996  0.00  0.00    +0.172 A 
ATOM      9  O   UNL     1       1.597  -2.346   3.132  0.00  0.00    -0.460 OA
ATOM     10  C   UNL     1       2.926  -2.151   3.087  0.00  0.00    +0.196 A 
ENDBRANCH   1   8
BRANCH   5  11
ATOM     11  C   UNL     1      -1.233  -3.132   3.976  0.00  0.00    +0.135 C 
BRANCH  11  12
ATOM     12  C   UNL     1      -1.546  -1.654   4.215  0.00  0.00    +0.117 C 
BRANCH  12  13
ATOM     13  C   UNL     1      -1.530  -1.371   5.696  0.00  0.00    +0.212 C 
ATOM     14  O   UNL     1      -1.292  -2.263   6.481  0.00  0.00    -0.276 OA
ATOM     15  N   UNL     1      -1.781  -0.126   6.146  0.00  0.00    -0.329 N 
ATOM     16  H   UNL     1      -1.769   0.081   7.226  0.00  0.00    +0.145 HD
ATOM     17  H   UNL     1      -1.997   0.684   5.434  0.00  0.00    +0.145 HD
ENDBRANCH  12  13
ENDBRANCH  11  12
ENDBRANCH   5  11
BRANCH   4  18
ATOM     18  S   UNL     1      -3.962  -4.066   2.359  0.00  0.00    -0.077 S 
BRANCH  18  19
ATOM     19  C   UNL     1      -4.765  -4.544   0.809  0.00  0.00    +0.173 C 
BRANCH  19  20
ATOM     20  C   UNL     1      -6.222  -4.830   1.065  0.00  0.00    +0.228 C 
ATOM     21  O   UNL     1      -6.673  -4.722   2.186  0.00  0.00    -0.275 OA
ATOM     22  N   UNL     1      -7.024  -5.207   0.050  0.00  0.00    -0.282 N 
ATOM     23  H   UNL     1      -6.636  -5.227  -0.979  0.00  0.00    +0.155 HD
BRANCH  22  24
ATOM     24  C   UNL     1      -8.353  -5.572   0.305  0.00  0.00    +0.083 A 
ATOM     25  C   UNL     1      -9.344  -4.598   0.367  0.00  0.00    +0.148 A 
ATOM     26  C   UNL     1     -10.654  -4.962   0.619  0.00  0.00    +0.078 A 
ATOM     27  C   UNL     1     -10.979  -6.295   0.808  0.00  0.00    +0.127 A 
ATOM     28  C   UNL     1      -9.995  -7.266   0.746  0.00  0.00    +0.055 A 
ATOM     29  C   UNL     1      -8.684  -6.908   0.489  0.00  0.00    +0.045 A 
ATOM     30 BR   UNL     1      -7.341  -8.236   0.397  0.00  0.00    -0.048 Br
ATOM     31  F   UNL     1     -12.260  -6.648   1.053  0.00  0.00    -0.205 F 
ATOM     32  F   UNL     1      -9.026  -3.298   0.182  0.00  0.00    -0.203 F 
ENDBRANCH  22  24
ENDBRANCH  19  20
ENDBRANCH  18  19
ENDBRANCH   4  18
TORSDOF 8
