REMARK  Name = ZINC08773968
REMARK  14 active torsions:
REMARK  status: ('A' for Active; 'I' for Inactive)
REMARK    1  A    between atoms: C_1  and  C_2
REMARK    2  A    between atoms: C_2  and  O_3
REMARK    3  A    between atoms: O_3  and  C_4
REMARK    4  A    between atoms: C_4  and  C_6
REMARK    5  A    between atoms: C_10  and  N_11
REMARK    6  A    between atoms: C_12  and  C_14
REMARK    7  A    between atoms: C_14  and  C_16
REMARK    8  A    between atoms: C_14  and  O_17
REMARK    9  A    between atoms: O_17  and  C_18
REMARK   10  A    between atoms: C_18  and  C_20
REMARK   11  A    between atoms: C_20  and  N_28
REMARK   12  A    between atoms: C_21  and  C_22
REMARK   13  A    between atoms: C_29  and  C_31
REMARK   14  A    between atoms: C_33  and  C_37
REMARK                            x       y       z     vdW  Elec       q    Type
REMARK                         _______ _______ _______ _____ _____    ______ ____
ROOT
ATOM      1  N   UNL     1       4.667  -0.591   5.721  0.00  0.00    -0.276 N 
ATOM      2  C   UNL     1       5.775  -0.134   5.105  0.00  0.00    +0.258 C 
ATOM      3  O   UNL     1       5.741   0.148   3.926  0.00  0.00    -0.271 OA
ATOM      4  H   UNL     1       4.694  -0.816   6.664  0.00  0.00    +0.155 HD
ENDROOT
BRANCH   1   9
ATOM      5  C   UNL     1       2.255  -1.189   5.460  0.00  0.00    +0.091 A 
ATOM      6  C   UNL     1       1.167  -1.250   4.498  0.00  0.00    -0.021 A 
ATOM      7  C   UNL     1       1.484  -0.855   3.246  0.00  0.00    -0.004 A 
ATOM      8  S   UNL     1       3.195  -0.406   3.332  0.00  0.00    -0.077 S 
ATOM      9  C   UNL     1       3.488  -0.738   5.007  0.00  0.00    +0.086 A 
ATOM     10  C   UNL     1       0.576  -0.811   2.056  0.00  0.00    +0.046 C 
ATOM     11  C   UNL     1      -0.678  -1.637   2.374  0.00  0.00    -0.009 C 
ATOM     12  C   UNL     1      -1.201  -1.229   3.755  0.00  0.00    +0.008 C 
ATOM     13  C   UNL     1      -0.241  -1.721   4.840  0.00  0.00    +0.037 C 
ATOM     14  C   UNL     1      -1.751  -1.369   1.317  0.00  0.00    +0.008 C 
BRANCH   5  15
ATOM     15  C   UNL     1       2.058  -1.586   6.856  0.00  0.00    +0.342 C 
ATOM     16  O   UNL     1       1.705  -0.763   7.679  0.00  0.00    -0.245 OA
BRANCH  15  17
ATOM     17  O   UNL     1       2.268  -2.866   7.229  0.00  0.00    -0.461 OA
BRANCH  17  19
ATOM     18  C   UNL     1       2.338  -4.673   8.859  0.00  0.00    +0.048 C 
ATOM     19  C   UNL     1       2.053  -3.188   8.628  0.00  0.00    +0.229 C 
ENDBRANCH  17  19
ENDBRANCH  15  17
ENDBRANCH   5  15
ENDBRANCH   1   9
BRANCH   2  20
ATOM     20  C   UNL     1       7.057   0.026   5.881  0.00  0.00    +0.259 C 
ATOM     21  C   UNL     1       6.874   1.106   6.949  0.00  0.00    +0.062 C 
BRANCH  20  22
ATOM     22  O   UNL     1       8.124   0.416   4.977  0.00  0.00    -0.448 OA
BRANCH  22  23
ATOM     23  C   UNL     1       9.373   0.020   5.298  0.00  0.00    +0.354 C 
ATOM     24  O   UNL     1       9.564  -0.632   6.306  0.00  0.00    -0.244 OA
BRANCH  23  25
ATOM     25  C   UNL     1      10.502   0.377   4.430  0.00  0.00    +0.119 C 
ATOM     26  C   UNL     1      11.767   0.068   4.803  0.00  0.00    +0.038 C 
BRANCH  26  27
ATOM     27  C   UNL     1      12.879   0.261   3.860  0.00  0.00    -0.023 A 
ATOM     28  C   UNL     1      12.632   0.326   2.485  0.00  0.00    +0.008 A 
ATOM     29  C   UNL     1      13.679   0.511   1.607  0.00  0.00    +0.001 A 
ATOM     30  C   UNL     1      14.974   0.621   2.084  0.00  0.00    +0.000 A 
ATOM     31  C   UNL     1      15.228   0.552   3.443  0.00  0.00    +0.001 A 
ATOM     32  C   UNL     1      14.190   0.373   4.333  0.00  0.00    +0.008 A 
ENDBRANCH  26  27
BRANCH  25  33
ATOM     33  N   UNL     1      10.272   1.037   3.218  0.00  0.00    -0.280 N 
ATOM     34  C   UNL     1       9.451   0.491   2.299  0.00  0.00    +0.214 C 
ATOM     35  O   UNL     1       8.844  -0.527   2.557  0.00  0.00    -0.276 OA
ATOM     36  C   UNL     1       9.287   1.145   0.952  0.00  0.00    +0.109 C 
ATOM     37  H   UNL     1      10.703   1.887   3.039  0.00  0.00    +0.155 HD
ENDBRANCH  25  33
ENDBRANCH  23  25
ENDBRANCH  22  23
ENDBRANCH  20  22
ENDBRANCH   2  20
TORSDOF 10
