REMARK  Name = ZINC33938185
REMARK  10 active torsions:
REMARK  status: ('A' for Active; 'I' for Inactive)
REMARK    1  A    between atoms: C_1  and  C_2
REMARK    2  A    between atoms: C_2  and  C_4
REMARK    3  A    between atoms: C_2  and  C_12
REMARK    4  A    between atoms: C_5  and  C_6
REMARK    5  A    between atoms: C_6  and  C_8
REMARK    6  A    between atoms: C_6  and  O_11
REMARK    7  A    between atoms: C_18  and  C_36
REMARK    8  A    between atoms: C_23  and  C_24
REMARK    9  A    between atoms: C_27  and  O_35
REMARK   10  A    between atoms: C_30  and  O_34
REMARK                            x       y       z     vdW  Elec       q    Type
REMARK                         _______ _______ _______ _____ _____    ______ ____
ROOT
ATOM      1  C   UNL     1      -1.556  -0.562   0.308  0.00  0.00    +0.002 C 
ATOM      2  C   UNL     1      -2.200  -0.454   1.716  0.00  0.00    +0.005 C 
ATOM      3  C   UNL     1      -2.331  -1.909   2.249  0.00  0.00    +0.009 C 
ATOM      4  C   UNL     1      -1.248  -2.655   1.465  0.00  0.00    +0.021 C 
ATOM      5  C   UNL     1      -1.435  -2.054   0.040  0.00  0.00    -0.022 C 
ATOM      6  C   UNL     1      -0.289  -2.538  -0.817  0.00  0.00    +0.008 C 
ATOM      7  C   UNL     1      -0.467  -4.053  -1.017  0.00  0.00    +0.005 C 
ATOM      8  C   UNL     1      -0.480  -4.803   0.314  0.00  0.00    +0.031 C 
ATOM      9  C   UNL     1      -1.425  -4.136   1.316  0.00  0.00    -0.066 C 
ATOM     10  C   UNL     1      -2.347  -4.818   1.995  0.00  0.00    -0.000 C 
ATOM     11  C   UNL     1      -2.748  -2.568  -0.554  0.00  0.00    +0.012 C 
ENDROOT
BRANCH  10  12
ATOM     12  C   UNL     1      -2.474  -6.265   1.809  0.00  0.00    +0.004 C 
ATOM     13  C   UNL     1      -3.408  -6.954   2.496  0.00  0.00    -0.040 C 
ATOM     14  C   UNL     1      -3.567  -8.453   2.336  0.00  0.00    +0.067 C 
ATOM     15  C   UNL     1      -3.673  -9.079   3.730  0.00  0.00    +0.122 C 
ATOM     16  C   UNL     1      -4.849  -8.462   4.487  0.00  0.00    +0.067 C 
ATOM     17  C   UNL     1      -4.569  -6.982   4.766  0.00  0.00    +0.147 C 
ATOM     18  C   UNL     1      -4.321  -6.286   3.446  0.00  0.00    -0.023 C 
ATOM     19  C   UNL     1      -4.903  -5.122   3.155  0.00  0.00    +0.015 C 
BRANCH  17  20
ATOM     20  O   UNL     1      -5.694  -6.393   5.420  0.00  0.00    -0.387 OA
ATOM     21  H   UNL     1      -5.583  -5.455   5.626  0.00  0.00    +0.210 HD
ENDBRANCH  17  20
BRANCH  15  22
ATOM     22  O   UNL     1      -3.877 -10.488   3.604  0.00  0.00    -0.391 OA
ATOM     23  H   UNL     1      -3.166 -10.948   3.138  0.00  0.00    +0.210 HD
ENDBRANCH  15  22
ENDBRANCH  10  12
BRANCH   1  25
ATOM     24  C   UNL     1      -0.314   1.585   0.612  0.00  0.00    +0.012 C 
ATOM     25  C   UNL     1      -0.173   0.092   0.305  0.00  0.00    +0.012 C 
BRANCH  25  26
ATOM     26  C   UNL     1       0.463  -0.084  -1.049  0.00  0.00    -0.025 C 
ATOM     27  C   UNL     1       1.600  -0.726  -1.161  0.00  0.00    +0.000 C 
BRANCH  27  28
ATOM     28  C   UNL     1       2.236  -0.903  -2.515  0.00  0.00    +0.140 C 
BRANCH  28  29
ATOM     29  C   UNL     1       3.619  -0.249  -2.518  0.00  0.00    +0.022 C 
ATOM     30  C   UNL     1       3.805   1.005  -3.375  0.00  0.00    +0.007 C 
ATOM     31  C   UNL     1       4.431  -0.320  -3.813  0.00  0.00    +0.007 C 
ENDBRANCH  28  29
BRANCH  28  32
ATOM     32  O   UNL     1       2.368  -2.297  -2.802  0.00  0.00    -0.387 OA
ATOM     33  H   UNL     1       2.913  -2.779  -2.165  0.00  0.00    +0.210 HD
ENDBRANCH  28  32
ENDBRANCH  27  28
ENDBRANCH  25  26
ENDBRANCH   1  25
TORSDOF 8
