REMARK  Name = ZINC39774685
REMARK  10 active torsions:
REMARK  status: ('A' for Active; 'I' for Inactive)
REMARK    1  A    between atoms: C_1  and  C_2
REMARK    2  A    between atoms: C_2  and  O_3
REMARK    3  A    between atoms: O_3  and  C_4
REMARK    4  A    between atoms: C_6  and  C_11
REMARK    5  A    between atoms: C_9  and  O_10
REMARK    6  A    between atoms: N_12  and  N_13
REMARK    7  A    between atoms: C_16  and  C_19
REMARK    8  A    between atoms: C_23  and  S_25
REMARK    9  A    between atoms: S_25  and  N_28
REMARK   10  A    between atoms: C_32  and  C_35
REMARK                            x       y       z     vdW  Elec       q    Type
REMARK                         _______ _______ _______ _____ _____    ______ ____
ROOT
ATOM      1  N   UNL     1      -0.593  -7.046  -1.241  0.00  0.00    -0.124 NA
ATOM      2  C   UNL     1      -0.483  -8.357  -1.093  0.00  0.00    +0.192 A 
ATOM      3  N   UNL     1      -0.937  -9.363  -1.912  0.00  0.00    -0.332 N 
ATOM      4  C   UNL     1      -0.704 -10.660  -1.549  0.00  0.00    +0.055 A 
ATOM      5  C   UNL     1      -0.038 -10.924  -0.404  0.00  0.00    +0.075 A 
ATOM      6  S   UNL     1       0.300  -9.284   0.217  0.00  0.00    -0.056 S 
ATOM      7  H   UNL     1      -1.415  -9.158  -2.731  0.00  0.00    +0.168 HD
ENDROOT
BRANCH   4   8
ATOM      8  C   UNL     1      -1.178 -11.769  -2.405  0.00  0.00    +0.001 A 
ATOM      9  C   UNL     1      -1.862 -11.495  -3.591  0.00  0.00    +0.010 A 
ATOM     10  C   UNL     1      -2.301 -12.534  -4.385  0.00  0.00    +0.003 A 
ATOM     11  C   UNL     1      -2.066 -13.845  -4.009  0.00  0.00    +0.028 A 
ATOM     12  C   UNL     1      -1.389 -14.122  -2.834  0.00  0.00    +0.106 A 
ATOM     13  C   UNL     1      -0.939 -13.092  -2.034  0.00  0.00    +0.038 A 
BRANCH  12  14
ATOM     14  S   UNL     1      -1.095 -15.795  -2.364  0.00  0.00    +0.061 S 
ATOM     15  O   UNL     1      -0.922 -15.795  -0.953  0.00  0.00    -0.153 OA
ATOM     16  O   UNL     1      -2.089 -16.579  -3.010  0.00  0.00    -0.153 OA
BRANCH  14  17
ATOM     17  N   UNL     1       0.359 -16.239  -3.019  0.00  0.00    -0.176 NA
ATOM     18  C   UNL     1       0.425 -16.833  -4.362  0.00  0.00    +0.109 C 
ATOM     19  C   UNL     1       1.419 -16.030  -5.207  0.00  0.00    +0.017 C 
ATOM     20  C   UNL     1       2.764 -15.966  -4.482  0.00  0.00    +0.006 C 
ATOM     21  C   UNL     1       2.588 -15.255  -3.138  0.00  0.00    +0.002 C 
ATOM     22  C   UNL     1       1.609 -16.043  -2.272  0.00  0.00    +0.112 C 
ATOM     23  C   UNL     1       3.941 -15.161  -2.429  0.00  0.00    +0.009 C 
ENDBRANCH  14  17
ENDBRANCH  12  14
ENDBRANCH   4   8
BRANCH   1  25
ATOM     24  C   UNL     1      -0.198  -4.958  -0.501  0.00  0.00    +0.143 C 
ATOM     25  N   UNL     1      -0.090  -6.253  -0.356  0.00  0.00    -0.155 NA
BRANCH  24  28
ATOM     26  C   UNL     1       0.802  -1.825   1.306  0.00  0.00    +0.162 A 
ATOM     27  C   UNL     1       0.261  -2.669   0.354  0.00  0.00    +0.059 A 
ATOM     28  C   UNL     1       0.376  -4.055   0.507  0.00  0.00    -0.002 A 
ATOM     29  C   UNL     1       1.037  -4.578   1.624  0.00  0.00    +0.013 A 
ATOM     30  C   UNL     1       1.573  -3.729   2.568  0.00  0.00    +0.050 A 
ATOM     31  C   UNL     1       1.464  -2.354   2.412  0.00  0.00    +0.158 A 
BRANCH  31  32
ATOM     32  O   UNL     1       1.999  -1.522   3.344  0.00  0.00    -0.503 OA
ATOM     33  H   UNL     1       1.393  -1.294   4.062  0.00  0.00    +0.292 HD
ENDBRANCH  31  32
BRANCH  26  34
ATOM     34  O   UNL     1       0.693  -0.477   1.160  0.00  0.00    -0.489 OA
BRANCH  34  36
ATOM     35  C   UNL     1      -0.019   1.526   0.010  0.00  0.00    +0.048 C 
ATOM     36  C   UNL     1       0.002  -0.004   0.002  0.00  0.00    +0.226 C 
ENDBRANCH  34  36
ENDBRANCH  26  34
ENDBRANCH  24  28
ENDBRANCH   1  25
TORSDOF 8
