REMARK  Name = ZINC19682758
REMARK  7 active torsions:
REMARK  status: ('A' for Active; 'I' for Inactive)
REMARK    1  A    between atoms: C_6  and  C_7
REMARK    2  A    between atoms: C_7  and  N_8
REMARK    3  A    between atoms: N_11  and  C_14
REMARK    4  A    between atoms: C_14  and  C_15
REMARK    5  A    between atoms: N_17  and  N_18
REMARK    6  A    between atoms: C_19  and  C_20
REMARK    7  A    between atoms: C_22  and  N_27
REMARK                            x       y       z     vdW  Elec       q    Type
REMARK                         _______ _______ _______ _____ _____    ______ ____
ROOT
ATOM      1  C   UNL     1      -1.445   3.591  -2.413  0.00  0.00    +0.020 C 
ENDROOT
BRANCH   1   5
ATOM      2  N   UNL     1      -1.209   1.116   1.003  0.00  0.00    -0.302 NA
ATOM      3  C   UNL     1      -0.564   0.649  -0.232  0.00  0.00    +0.066 C 
ATOM      4  C   UNL     1      -1.156   1.397  -1.429  0.00  0.00    -0.063 C 
ATOM      5  N   UNL     1      -0.956   2.842  -1.248  0.00  0.00    +0.387 N 
ATOM      6  C   UNL     1      -1.602   3.309  -0.013  0.00  0.00    -0.063 C 
ATOM      7  C   UNL     1      -1.010   2.561   1.184  0.00  0.00    +0.066 C 
ATOM      8  H   UNL     1       0.124   3.026  -1.157  0.00  0.00    -0.081 HD
BRANCH   2   9
ATOM      9  C   UNL     1      -0.721   0.367   2.168  0.00  0.00    +0.119 C 
BRANCH   9  15
ATOM     10  C   UNL     1      -0.448   2.007   4.039  0.00  0.00    +0.006 A 
ATOM     11  C   UNL     1      -0.899   2.616   5.194  0.00  0.00    +0.020 A 
ATOM     12  C   UNL     1      -2.108   2.238   5.749  0.00  0.00    +0.041 A 
ATOM     13  C   UNL     1      -2.868   1.253   5.144  0.00  0.00    +0.020 A 
ATOM     14  C   UNL     1      -2.419   0.648   3.985  0.00  0.00    +0.006 A 
ATOM     15  C   UNL     1      -1.210   1.027   3.431  0.00  0.00    -0.033 A 
ATOM     16 CL   UNL     1      -2.672   2.999   7.204  0.00  0.00    -0.084 Cl
ENDBRANCH   9  15
ENDBRANCH   2   9
ENDBRANCH   1   5
BRANCH   1  17
ATOM     17  C   UNL     1      -0.592   3.266  -3.612  0.00  0.00    +0.216 C 
ATOM     18  O   UNL     1       0.397   2.576  -3.484  0.00  0.00    -0.276 OA
ATOM     19  N   UNL     1      -0.930   3.741  -4.828  0.00  0.00    -0.209 N 
ATOM     20  H   UNL     1      -1.827   4.367  -4.944  0.00  0.00    +0.177 HD
BRANCH  19  21
ATOM     21  N   UNL     1      -0.137   3.439  -5.943  0.00  0.00    -0.188 NA
ATOM     22  C   UNL     1      -0.462   3.897  -7.113  0.00  0.00    +0.139 C 
BRANCH  22  23
ATOM     23  C   UNL     1       0.372   3.578  -8.287  0.00  0.00    +0.015 A 
ATOM     24  C   UNL     1       0.022   4.064  -9.549  0.00  0.00    +0.043 A 
ATOM     25  C   UNL     1       0.809   3.766 -10.641  0.00  0.00    +0.127 A 
ATOM     26  C   UNL     1       1.938   2.979 -10.492  0.00  0.00    +0.034 A 
ATOM     27  C   UNL     1       2.288   2.490  -9.247  0.00  0.00    +0.023 A 
ATOM     28  C   UNL     1       1.513   2.784  -8.143  0.00  0.00    +0.050 A 
ATOM     29 CL   UNL     1       1.953   2.168  -6.581  0.00  0.00    -0.083 Cl
BRANCH  25  30
ATOM     30  N   UNL     1       0.443   4.285 -11.978  0.00  0.00    +0.056 N 
ATOM     31  O   UNL     1       1.133   4.018 -12.945  0.00  0.00    -0.126 OA
ATOM     32  O   UNL     1      -0.550   4.978 -12.111  0.00  0.00    -0.126 OA
ENDBRANCH  25  30
ENDBRANCH  22  23
ENDBRANCH  19  21
ENDBRANCH   1  17
TORSDOF 7
