REMARK  Name = ZINC02449549
REMARK  4 active torsions:
REMARK  status: ('A' for Active; 'I' for Inactive)
REMARK    1  A    between atoms: C_1  and  C_2
REMARK    2  A    between atoms: N_5  and  C_7
REMARK    3  A    between atoms: C_13  and  O_25
REMARK    4  A    between atoms: C_16  and  C_18
REMARK                            x       y       z     vdW  Elec       q    Type
REMARK                         _______ _______ _______ _____ _____    ______ ____
ROOT
ATOM      1  C   UNL     1       0.467   1.747  -0.271  0.00  0.00    +0.068 C 
ATOM      2  C   UNL     1       0.523   0.246  -0.138  0.00  0.00    +0.067 A 
ATOM      3  C   UNL     1       0.210  -0.676  -1.153  0.00  0.00    +0.036 A 
ATOM      4  C   UNL     1       0.381  -1.933  -0.639  0.00  0.00    +0.160 A 
ATOM      5  N   UNL     1       0.798  -1.773   0.665  0.00  0.00    -0.243 N 
ATOM      6  N   UNL     1       0.873  -0.406   0.934  0.00  0.00    -0.174 NA
ATOM      7  N   UNL     1       0.205  -3.153  -1.175  0.00  0.00    -0.197 NA
ATOM      8  C   UNL     1      -0.154  -3.618  -2.281  0.00  0.00    +0.199 C 
ATOM      9  C   UNL     1      -0.496  -2.918  -3.537  0.00  0.00    +0.165 C 
ATOM     10  S   UNL     1      -1.396  -1.385  -3.269  0.00  0.00    -0.138 S 
ATOM     11  C   UNL     1      -0.220  -0.249  -2.524  0.00  0.00    +0.112 C 
ENDROOT
BRANCH  11  12
ATOM     12  C   UNL     1      -0.852   1.115  -2.432  0.00  0.00    -0.030 A 
ATOM     13  C   UNL     1      -2.064   1.274  -1.787  0.00  0.00    +0.006 A 
ATOM     14  C   UNL     1      -2.645   2.525  -1.702  0.00  0.00    +0.015 A 
ATOM     15  C   UNL     1      -2.012   3.620  -2.264  0.00  0.00    +0.018 A 
ATOM     16  C   UNL     1      -0.799   3.461  -2.910  0.00  0.00    +0.015 A 
ATOM     17  C   UNL     1      -0.217   2.210  -2.989  0.00  0.00    +0.006 A 
ATOM     18 BR   UNL     1      -2.806   5.332  -2.149  0.00  0.00    -0.050 Br
ENDBRANCH  11  12
BRANCH   5  19
ATOM     19  C   UNL     1       1.113  -2.852   1.606  0.00  0.00    +0.109 C 
ATOM     20  C   UNL     1       0.238  -2.723   2.870  0.00  0.00    +0.027 C 
ATOM     21  C   UNL     1       1.178  -3.145   4.026  0.00  0.00    +0.002 C 
ATOM     22  C   UNL     1       2.539  -2.542   3.599  0.00  0.00    +0.002 C 
ATOM     23  C   UNL     1       2.575  -2.737   2.069  0.00  0.00    +0.027 C 
ENDBRANCH   5  19
BRANCH   8  24
ATOM     24  O   UNL     1      -0.240  -4.963  -2.335  0.00  0.00    -0.495 OA
ATOM     25  H   UNL     1      -0.013  -5.405  -1.506  0.00  0.00    +0.293 HD
ENDBRANCH   8  24
TORSDOF 3
