REMARK  Name = ZINC15938608
REMARK  6 active torsions:
REMARK  status: ('A' for Active; 'I' for Inactive)
REMARK    1  A    between atoms: C_1  and  O_2
REMARK    2  A    between atoms: O_2  and  C_3
REMARK    3  A    between atoms: C_7  and  C_10
REMARK    4  A    between atoms: C_8  and  O_9
REMARK    5  A    between atoms: N_11  and  C_12
REMARK    6  A    between atoms: C_13  and  C_21
REMARK                            x       y       z     vdW  Elec       q    Type
REMARK                         _______ _______ _______ _____ _____    ______ ____
ROOT
ATOM      1  C   UNL     1      -2.136  -4.678   1.075  0.00  0.00    +0.123 C 
ATOM      2  N   UNL     1      -1.145  -5.058   0.312  0.00  0.00    -0.246 NA
ENDROOT
BRANCH   2   3
ATOM      3  C   UNL     1       0.028  -4.389   0.345  0.00  0.00    +0.119 A 
ATOM      4  C   UNL     1       1.324  -4.888   0.515  0.00  0.00    +0.088 A 
ATOM      5  C   UNL     1       2.399  -3.982   0.514  0.00  0.00    -0.018 A 
ATOM      6  C   UNL     1       2.096  -2.671   0.348  0.00  0.00    -0.004 A 
ATOM      7  S   UNL     1       0.331  -2.637   0.178  0.00  0.00    -0.073 S 
ATOM      8  C   UNL     1       3.046  -1.515   0.311  0.00  0.00    +0.043 C 
ATOM      9  C   UNL     1       4.402  -1.985   0.859  0.00  0.00    +0.005 C 
ATOM     10  C   UNL     1       4.770  -3.311   0.187  0.00  0.00    +0.005 C 
ATOM     11  C   UNL     1       3.850  -4.423   0.691  0.00  0.00    +0.037 C 
BRANCH   4  12
ATOM     12  C   UNL     1       1.551  -6.292   0.685  0.00  0.00    +0.102 C 
ATOM     13  N   UNL     1       1.731  -7.405   0.821  0.00  0.00    -0.191 NA
ENDBRANCH   4  12
ENDBRANCH   2   3
BRANCH   1  18
ATOM     14  C   UNL     1      -2.789  -1.879   3.499  0.00  0.00    +0.163 A 
ATOM     15  C   UNL     1      -1.518  -1.674   4.013  0.00  0.00    +0.069 A 
ATOM     16  C   UNL     1      -0.453  -2.444   3.572  0.00  0.00    +0.045 A 
ATOM     17  C   UNL     1      -0.646  -3.421   2.619  0.00  0.00    +0.033 A 
ATOM     18  C   UNL     1      -1.925  -3.639   2.091  0.00  0.00    +0.040 A 
ATOM     19  C   UNL     1      -3.003  -2.863   2.542  0.00  0.00    +0.167 A 
ATOM     20 CL   UNL     1       1.134  -2.176   4.224  0.00  0.00    -0.083 Cl
BRANCH  14  22
ATOM     21  C   UNL     1      -3.537  -0.126   4.923  0.00  0.00    +0.277 C 
ATOM     22  O   UNL     1      -3.829  -1.119   3.938  0.00  0.00    -0.491 OA
ENDBRANCH  14  22
BRANCH  19  23
ATOM     23  O   UNL     1      -4.248  -3.069   2.041  0.00  0.00    -0.503 OA
ATOM     24  H   UNL     1      -4.451  -2.537   1.259  0.00  0.00    +0.292 HD
ENDBRANCH  19  23
ENDBRANCH   1  18
TORSDOF 5
