REMARK  Name = ZINC39494708
REMARK  11 active torsions:
REMARK  status: ('A' for Active; 'I' for Inactive)
REMARK    1  A    between atoms: C_1  and  C_2
REMARK    2  A    between atoms: C_2  and  C_3
REMARK    3  A    between atoms: C_3  and  C_5
REMARK    4  A    between atoms: C_3  and  C_26
REMARK    5  A    between atoms: C_5  and  C_7
REMARK    6  A    between atoms: C_5  and  N_13
REMARK    7  A    between atoms: C_14  and  S_16
REMARK    8  A    between atoms: S_16  and  O_19
REMARK    9  A    between atoms: O_19  and  C_20
REMARK   10  A    between atoms: C_26  and  C_28
REMARK   11  A    between atoms: C_33  and  O_34
REMARK                            x       y       z     vdW  Elec       q    Type
REMARK                         _______ _______ _______ _____ _____    ______ ____
ROOT
ATOM      1  C   UNL     1      -2.348  -0.129  -1.152  0.00  0.00    +0.115 C 
ENDROOT
BRANCH   1   2
ATOM      2  C   UNL     1      -1.560  -0.711  -2.297  0.00  0.00    -0.026 A 
ATOM      3  C   UNL     1      -0.396  -0.095  -2.718  0.00  0.00    +0.005 A 
ATOM      4  C   UNL     1       0.327  -0.628  -3.768  0.00  0.00    +0.000 A 
ATOM      5  C   UNL     1      -0.113  -1.778  -4.397  0.00  0.00    +0.000 A 
ATOM      6  C   UNL     1      -1.277  -2.394  -3.976  0.00  0.00    +0.000 A 
ATOM      7  C   UNL     1      -1.998  -1.863  -2.922  0.00  0.00    +0.005 A 
ENDBRANCH   1   2
BRANCH   1   8
ATOM      8  N   UNL     1      -2.367   1.332  -1.264  0.00  0.00    -0.286 N 
ATOM      9  C   UNL     1      -3.318   1.938  -2.002  0.00  0.00    +0.391 C 
ATOM     10  O   UNL     1      -4.158   1.275  -2.573  0.00  0.00    -0.246 OA
ATOM     11  H   UNL     1      -1.696   1.862  -0.807  0.00  0.00    +0.151 HD
BRANCH   9  12
ATOM     12  S   UNL     1      -3.341   3.695  -2.137  0.00  0.00    +0.203 S 
ATOM     13  O   UNL     1      -4.556   4.036  -2.790  0.00  0.00    -0.127 OA
ATOM     14  O   UNL     1      -2.995   4.205  -0.857  0.00  0.00    -0.127 OA
BRANCH  12  15
ATOM     15  O   UNL     1      -2.214   4.088  -3.081  0.00  0.00    -0.339 OA
BRANCH  15  16
ATOM     16  C   UNL     1      -2.479   3.840  -4.391  0.00  0.00    +0.157 A 
ATOM     17  C   UNL     1      -2.143   2.615  -4.947  0.00  0.00    +0.048 A 
ATOM     18  C   UNL     1      -2.413   2.365  -6.279  0.00  0.00    +0.004 A 
ATOM     19  C   UNL     1      -3.017   3.335  -7.057  0.00  0.00    +0.000 A 
ATOM     20  C   UNL     1      -3.353   4.557  -6.505  0.00  0.00    +0.004 A 
ATOM     21  C   UNL     1      -3.090   4.810  -5.172  0.00  0.00    +0.048 A 
ENDBRANCH  15  16
ENDBRANCH  12  15
ENDBRANCH   9  12
ENDBRANCH   1   8
BRANCH   1  22
ATOM     22  C   UNL     1      -1.695  -0.530   0.173  0.00  0.00    +0.085 C 
BRANCH  22  24
ATOM     23  C   UNL     1      -0.997  -2.464   1.592  0.00  0.00    +0.004 C 
ATOM     24  C   UNL     1      -1.771  -2.049   0.339  0.00  0.00    +0.010 C 
ENDBRANCH  22  24
BRANCH  22  25
ATOM     25  C   UNL     1      -2.421   0.137   1.313  0.00  0.00    +0.172 C 
ATOM     26  O   UNL     1      -3.603   0.389   1.215  0.00  0.00    -0.292 OA
BRANCH  25  27
ATOM     27  C   UNL     1      -1.696   0.482   2.542  0.00  0.00    +0.059 A 
ATOM     28  C   UNL     1      -0.330   0.199   2.658  0.00  0.00    +0.015 A 
ATOM     29  C   UNL     1       0.343   0.526   3.814  0.00  0.00    +0.001 A 
ATOM     30  C   UNL     1      -0.326   1.135   4.865  0.00  0.00    +0.004 A 
ATOM     31  C   UNL     1      -1.673   1.420   4.765  0.00  0.00    +0.046 A 
ATOM     32  C   UNL     1      -2.368   1.104   3.607  0.00  0.00    +0.127 A 
BRANCH  32  33
ATOM     33  O   UNL     1      -3.689   1.389   3.506  0.00  0.00    -0.506 OA
ATOM     34  H   UNL     1      -4.269   0.680   3.815  0.00  0.00    +0.292 HD
ENDBRANCH  32  33
ENDBRANCH  25  27
ENDBRANCH  22  25
ENDBRANCH   1  22
TORSDOF 10
