REMARK  Name = ZINC63577746
REMARK  7 active torsions:
REMARK  status: ('A' for Active; 'I' for Inactive)
REMARK    1  A    between atoms: C_1  and  C_2
REMARK    2  A    between atoms: C_2  and  C_3
REMARK    3  A    between atoms: C_2  and  N_13
REMARK    4  A    between atoms: N_13  and  C_14
REMARK    5  A    between atoms: N_13  and  C_26
REMARK    6  A    between atoms: C_14  and  C_15
REMARK    7  A    between atoms: N_17  and  C_18
REMARK                            x       y       z     vdW  Elec       q    Type
REMARK                         _______ _______ _______ _____ _____    ______ ____
ROOT
ATOM      1  N   UNL     1       0.682  -0.666   0.619  0.00  0.00    +0.392 N 
ATOM      2  H   UNL     1       1.581  -0.212   0.677  0.00  0.00    -0.080 HD
ENDROOT
BRANCH   1   3
ATOM      3  C   UNL     1      -0.272   0.021   1.500  0.00  0.00    -0.067 C 
ATOM      4  C   UNL     1       0.203   1.298   2.195  0.00  0.00    -0.017 C 
ATOM      5  C   UNL     1       0.020   0.011   3.001  0.00  0.00    -0.017 C 
ENDBRANCH   1   3
BRANCH   1   7
ATOM      6  C   UNL     1       0.035   0.848  -1.195  0.00  0.00    -0.008 C 
ATOM      7  C   UNL     1       0.195  -0.613  -0.766  0.00  0.00    -0.040 C 
BRANCH   7   8
ATOM      8  C   UNL     1       1.186  -1.296  -1.674  0.00  0.00    -0.061 A 
ATOM      9  C   UNL     1       2.551  -1.120  -1.456  0.00  0.00    +0.002 A 
ATOM     10  C   UNL     1       3.472  -1.723  -2.257  0.00  0.00    +0.009 A 
ATOM     11  C   UNL     1       3.043  -2.536  -3.320  0.00  0.00    -0.018 A 
ATOM     12  C   UNL     1       3.964  -3.175  -4.168  0.00  0.00    +0.008 A 
ATOM     13  C   UNL     1       3.511  -3.956  -5.186  0.00  0.00    +0.001 A 
ATOM     14  C   UNL     1       2.146  -4.132  -5.404  0.00  0.00    +0.001 A 
ATOM     15  C   UNL     1       1.225  -3.529  -4.603  0.00  0.00    +0.008 A 
ATOM     16  C   UNL     1       1.655  -2.716  -3.541  0.00  0.00    -0.018 A 
ATOM     17  C   UNL     1       0.734  -2.081  -2.689  0.00  0.00    +0.010 A 
ENDBRANCH   7   8
ENDBRANCH   1   7
BRANCH   1  18
ATOM     18  C   UNL     1       0.813  -2.068   1.038  0.00  0.00    +0.020 C 
BRANCH  18  19
ATOM     19  C   UNL     1      -0.544  -2.724   1.030  0.00  0.00    +0.197 C 
ATOM     20  O   UNL     1      -1.529  -2.075   0.750  0.00  0.00    -0.278 OA
ATOM     21  N   UNL     1      -0.662  -4.032   1.333  0.00  0.00    -0.306 N 
ATOM     22  H   UNL     1       0.127  -4.551   1.557  0.00  0.00    +0.149 HD
BRANCH  21  23
ATOM     23  C   UNL     1      -1.981  -4.669   1.326  0.00  0.00    +0.159 C 
ATOM     24  C   UNL     1      -1.902  -6.022   2.037  0.00  0.00    +0.032 C 
ATOM     25  C   UNL     1      -0.561  -6.686   1.782  0.00  0.00    +0.004 C 
ATOM     26  C   UNL     1      -0.346  -7.100   0.338  0.00  0.00    +0.019 C 
ATOM     27  C   UNL     1      -0.240  -5.873  -0.571  0.00  0.00    +0.104 C 
ATOM     28  N   UNL     1      -1.596  -5.471  -0.979  0.00  0.00    -0.314 N 
ATOM     29  C   UNL     1      -2.425  -4.902  -0.103  0.00  0.00    +0.233 C 
ATOM     30  O   UNL     1      -3.538  -4.571  -0.452  0.00  0.00    -0.274 OA
ATOM     31  H   UNL     1      -1.888  -5.622  -1.892  0.00  0.00    +0.149 HD
ENDBRANCH  21  23
ENDBRANCH  18  19
ENDBRANCH   1  18
TORSDOF 6
