REMARK  Name = ZINC12887624
REMARK  11 active torsions:
REMARK  status: ('A' for Active; 'I' for Inactive)
REMARK    1  A    between atoms: C_1  and  C_2
REMARK    2  A    between atoms: C_2  and  C_3
REMARK    3  A    between atoms: C_3  and  C_5
REMARK    4  A    between atoms: C_3  and  C_6
REMARK    5  A    between atoms: C_6  and  C_8
REMARK    6  A    between atoms: C_6  and  N_16
REMARK    7  A    between atoms: N_10  and  C_11
REMARK    8  A    between atoms: C_11  and  C_13
REMARK    9  A    between atoms: C_11  and  C_14
REMARK   10  A    between atoms: C_14  and  C_15
REMARK   11  A    between atoms: C_17  and  C_19
REMARK                            x       y       z     vdW  Elec       q    Type
REMARK                         _______ _______ _______ _____ _____    ______ ____
ROOT
ATOM      1  C   UNL     1       6.441  -0.161   5.261  0.00  0.00    +0.167 C 
ATOM      2  C   UNL     1       7.098  -1.014   4.166  0.00  0.00    +0.069 C 
ATOM      3  C   UNL     1       7.576  -2.322   4.742  0.00  0.00    -0.015 A 
ATOM      4  C   UNL     1       8.511  -3.257   4.141  0.00  0.00    +0.003 A 
ATOM      5  C   UNL     1       9.217  -3.241   2.935  0.00  0.00    +0.010 A 
ATOM      6  C   UNL     1      10.031  -4.317   2.679  0.00  0.00    +0.001 A 
ATOM      7  C   UNL     1      10.154  -5.373   3.566  0.00  0.00    +0.002 A 
ATOM      8  C   UNL     1       9.467  -5.415   4.766  0.00  0.00    +0.026 A 
ATOM      9  C   UNL     1       8.633  -4.336   5.053  0.00  0.00    +0.047 A 
ATOM     10  N   UNL     1       7.828  -4.059   6.120  0.00  0.00    -0.356 N 
ATOM     11  H   UNL     1       7.714  -4.629   6.896  0.00  0.00    +0.166 HD
ATOM     12  C   UNL     1       7.209  -2.853   5.930  0.00  0.00    +0.046 A 
ATOM     13  C   UNL     1       6.263  -2.162   6.882  0.00  0.00    +0.155 C 
ATOM     14  N   UNL     1       5.650  -1.053   6.114  0.00  0.00    -0.273 N 
ATOM     15  C   UNL     1       4.327  -1.073   6.323  0.00  0.00    +0.248 C 
ATOM     16  O   UNL     1       3.557  -0.179   6.030  0.00  0.00    -0.270 OA
ATOM     17  C   UNL     1       3.950  -2.340   6.959  0.00  0.00    +0.042 A 
ATOM     18  C   UNL     1       5.143  -3.043   7.318  0.00  0.00    -0.009 A 
ATOM     19  C   UNL     1       5.088  -4.271   7.903  0.00  0.00    +0.006 A 
ATOM     20  C   UNL     1       3.830  -4.802   8.173  0.00  0.00    +0.000 A 
ATOM     21  C   UNL     1       2.670  -4.123   7.858  0.00  0.00    +0.001 A 
ATOM     22  C   UNL     1       2.694  -2.878   7.247  0.00  0.00    +0.013 A 
ENDROOT
BRANCH   1  24
ATOM     23  N   UNL     1       4.437   0.487   3.964  0.00  0.00    -0.302 N 
ATOM     24  C   UNL     1       5.542   0.872   4.632  0.00  0.00    +0.235 C 
ATOM     25  O   UNL     1       5.813   2.051   4.727  0.00  0.00    -0.274 OA
ATOM     26  H   UNL     1       4.181  -0.449   3.949  0.00  0.00    +0.150 HD
BRANCH  23  27
ATOM     27  C   UNL     1       3.622   1.480   3.260  0.00  0.00    +0.162 C 
BRANCH  27  28
ATOM     28  C   UNL     1       2.181   1.039   3.257  0.00  0.00    +0.234 C 
ATOM     29  O   UNL     1       1.872  -0.024   3.753  0.00  0.00    -0.274 OA
ATOM     30  N   UNL     1       1.236   1.825   2.705  0.00  0.00    -0.311 N 
ATOM     31  H   UNL     1       1.472   2.703   2.368  0.00  0.00    +0.149 HD
BRANCH  30  32
ATOM     32  C   UNL     1      -0.148   1.353   2.614  0.00  0.00    +0.070 C 
ATOM     33  C   UNL     1      -0.854   1.585   3.951  0.00  0.00    +0.028 C 
BRANCH  32  34
ATOM     34  C   UNL     1      -0.877   2.122   1.511  0.00  0.00    +0.018 C 
ATOM     35  C   UNL     1      -0.238   1.804   0.158  0.00  0.00    +0.005 C 
ENDBRANCH  32  34
ENDBRANCH  30  32
ENDBRANCH  27  28
BRANCH  27  36
ATOM     36  C   UNL     1       4.116   1.616   1.818  0.00  0.00    +0.015 C 
ATOM     37  C   UNL     1       5.514   2.238   1.814  0.00  0.00    +0.010 C 
BRANCH  36  39
ATOM     38  C   UNL     1       2.750  -0.306   0.990  0.00  0.00    +0.004 C 
ATOM     39  C   UNL     1       4.172   0.233   1.166  0.00  0.00    +0.002 C 
ENDBRANCH  36  39
ENDBRANCH  27  36
ENDBRANCH  23  27
ENDBRANCH   1  24
TORSDOF 7
