REMARK  Name = ZINC07310041
REMARK  3 active torsions:
REMARK  status: ('A' for Active; 'I' for Inactive)
REMARK    1  A    between atoms: C_5  and  S_7
REMARK    2  A    between atoms: S_7  and  N_10
REMARK    3  A    between atoms: C_14  and  C_16
REMARK                            x       y       z     vdW  Elec       q    Type
REMARK                         _______ _______ _______ _____ _____    ______ ____
ROOT
ATOM      1  S   UNL     1       2.671   4.066  -0.003  0.00  0.00    +0.062 S 
ATOM      2  O   UNL     1       2.571   5.039   1.029  0.00  0.00    -0.153 OA
ATOM      3  O   UNL     1       3.716   3.104  -0.045  0.00  0.00    -0.153 OA
ENDROOT
BRANCH   1   8
ATOM      4  C   UNL     1      -0.013   1.076   0.008  0.00  0.00    +0.002 A 
ATOM      5  C   UNL     1      -1.219   1.751   0.017  0.00  0.00    +0.001 A 
ATOM      6  C   UNL     1      -1.238   3.132   0.030  0.00  0.00    +0.017 A 
ATOM      7  C   UNL     1      -0.050   3.841   0.022  0.00  0.00    +0.044 A 
ATOM      8  C   UNL     1       1.157   3.165   0.008  0.00  0.00    +0.119 A 
ATOM      9  C   UNL     1       1.175   1.783   0.000  0.00  0.00    +0.029 A 
ATOM     10 BR   UNL     1      -0.076   5.731   0.033  0.00  0.00    -0.048 Br
ENDBRANCH   1   8
BRANCH   1  11
ATOM     11  N   UNL     1       2.736   4.899  -1.433  0.00  0.00    -0.169 NA
ATOM     12  C   UNL     1       2.219   6.261  -1.659  0.00  0.00    +0.110 C 
ATOM     13  C   UNL     1       3.034   6.799  -2.861  0.00  0.00    +0.019 C 
ATOM     14  C   UNL     1       3.177   5.526  -3.736  0.00  0.00    +0.027 C 
ATOM     15  C   UNL     1       3.323   4.404  -2.686  0.00  0.00    +0.116 C 
BRANCH  15  16
ATOM     16  C   UNL     1       2.584   3.174  -3.148  0.00  0.00    +0.009 A 
ATOM     17  C   UNL     1       3.077   2.040  -3.704  0.00  0.00    +0.013 A 
ATOM     18  C   UNL     1       2.202   1.028  -4.050  0.00  0.00    +0.008 A 
ATOM     19  C   UNL     1       0.875   1.204  -3.835  0.00  0.00    +0.045 A 
ATOM     20  S   UNL     1       0.832   2.837  -3.114  0.00  0.00    -0.100 S 
ENDBRANCH  15  16
ENDBRANCH   1  11
TORSDOF 3
