REMARK  Name = ZINC39976129
REMARK  12 active torsions:
REMARK  status: ('A' for Active; 'I' for Inactive)
REMARK    1  A    between atoms: C_1  and  C_2
REMARK    2  A    between atoms: C_2  and  C_4
REMARK    3  A    between atoms: C_2  and  N_20
REMARK    4  A    between atoms: N_6  and  C_7
REMARK    5  A    between atoms: C_7  and  C_8
REMARK    6  A    between atoms: C_8  and  C_10
REMARK    7  A    between atoms: C_8  and  N_17
REMARK    8  A    between atoms: N_17  and  C_18
REMARK    9  A    between atoms: N_17  and  C_19
REMARK   10  A    between atoms: C_21  and  O_23
REMARK   11  A    between atoms: O_23  and  C_24
REMARK   12  A    between atoms: C_24  and  C_25
REMARK                            x       y       z     vdW  Elec       q    Type
REMARK                         _______ _______ _______ _____ _____    ______ ____
ROOT
ATOM      1  C   UNL     1       1.442  -0.351  -1.444  0.00  0.00    +0.233 C 
ATOM      2  O   UNL     1       2.392  -1.103  -1.509  0.00  0.00    -0.274 OA
ATOM      3  N   UNL     1       0.741  -0.053  -2.556  0.00  0.00    -0.315 N 
ATOM      4  H   UNL     1      -0.019   0.547  -2.505  0.00  0.00    +0.149 HD
ENDROOT
BRANCH   1   6
ATOM      5  C   UNL     1       1.121   1.774  -0.207  0.00  0.00    +0.038 C 
ATOM      6  C   UNL     1       1.044   0.248  -0.120  0.00  0.00    +0.159 C 
BRANCH   6   7
ATOM      7  N   UNL     1       1.954  -0.228   0.925  0.00  0.00    -0.270 N 
ATOM      8  C   UNL     1       1.546  -0.263   2.209  0.00  0.00    +0.401 C 
ATOM      9  O   UNL     1       0.424   0.100   2.500  0.00  0.00    -0.226 OA
ATOM     10  H   UNL     1       2.850  -0.518   0.692  0.00  0.00    +0.153 HD
BRANCH   8  11
ATOM     11  O   UNL     1       2.383  -0.701   3.169  0.00  0.00    -0.446 OA
BRANCH  11  12
ATOM     12  C   UNL     1       1.885  -0.711   4.508  0.00  0.00    +0.269 C 
BRANCH  12  13
ATOM     13  C   UNL     1       2.953  -1.227   5.438  0.00  0.00    -0.010 A 
ATOM     14  C   UNL     1       3.044  -2.581   5.701  0.00  0.00    +0.007 A 
ATOM     15  C   UNL     1       4.023  -3.055   6.553  0.00  0.00    +0.000 A 
ATOM     16  C   UNL     1       4.912  -2.175   7.142  0.00  0.00    +0.000 A 
ATOM     17  C   UNL     1       4.822  -0.821   6.878  0.00  0.00    +0.000 A 
ATOM     18  C   UNL     1       3.845  -0.348   6.022  0.00  0.00    +0.007 A 
ENDBRANCH  12  13
ENDBRANCH  11  12
ENDBRANCH   8  11
ENDBRANCH   6   7
ENDBRANCH   1   6
BRANCH   3  19
ATOM     19  C   UNL     1       1.128  -0.636  -3.844  0.00  0.00    +0.093 C 
BRANCH  19  20
ATOM     20  C   UNL     1       0.107  -0.237  -4.911  0.00  0.00    -0.020 C 
BRANCH  20  21
ATOM     21  C   UNL     1      -1.230  -0.846  -4.581  0.00  0.00    -0.041 A 
ATOM     22  C   UNL     1      -2.209  -0.079  -3.977  0.00  0.00    +0.003 A 
ATOM     23  C   UNL     1      -3.437  -0.638  -3.673  0.00  0.00    +0.000 A 
ATOM     24  C   UNL     1      -3.686  -1.965  -3.974  0.00  0.00    +0.001 A 
ATOM     25  C   UNL     1      -2.708  -2.732  -4.577  0.00  0.00    +0.020 A 
ATOM     26  C   UNL     1      -1.481  -2.172  -4.886  0.00  0.00    +0.043 A 
ATOM     27 CL   UNL     1      -0.255  -3.134  -5.650  0.00  0.00    -0.083 Cl
ENDBRANCH  20  21
BRANCH  20  28
ATOM     28  N   UNL     1      -0.017   1.227  -4.947  0.00  0.00    +0.382 N 
ATOM     29  C   UNL     1       1.311   1.826  -5.139  0.00  0.00    -0.096 C 
ATOM     30  C   UNL     1      -0.895   1.617  -6.058  0.00  0.00    -0.096 C 
ATOM     31  H   UNL     1      -0.410   1.552  -4.077  0.00  0.00    -0.082 HD
ENDBRANCH  20  28
ENDBRANCH  19  20
ENDBRANCH   3  19
TORSDOF 9
