REMARK  Name = ZINC04914492
REMARK  6 active torsions:
REMARK  status: ('A' for Active; 'I' for Inactive)
REMARK    1  A    between atoms: C_1  and  C_2
REMARK    2  A    between atoms: C_2  and  C_3
REMARK    3  A    between atoms: C_3  and  C_4
REMARK    4  A    between atoms: C_4  and  N_5
REMARK    5  A    between atoms: C_11  and  C_18
REMARK    6  A    between atoms: N_16  and  C_17
REMARK                            x       y       z     vdW  Elec       q    Type
REMARK                         _______ _______ _______ _____ _____    ______ ____
ROOT
ATOM      1  N   UNL     1       2.370   5.987  -3.309  0.00  0.00    -0.292 N 
ATOM      2  C   UNL     1       3.636   5.244  -3.384  0.00  0.00    +0.159 C 
ATOM      3  C   UNL     1       3.728   4.500  -2.071  0.00  0.00    +0.042 C 
ATOM      4  C   UNL     1       2.619   4.821  -1.374  0.00  0.00    +0.058 C 
ATOM      5  C   UNL     1       1.813   5.708  -2.117  0.00  0.00    +0.247 C 
ATOM      6  O   UNL     1       0.752   6.161  -1.730  0.00  0.00    -0.270 OA
ATOM      7  C   UNL     1       2.449   4.208   0.001  0.00  0.00    +0.144 C 
ATOM      8  N   UNL     1       3.517   3.306   0.465  0.00  0.00    -0.288 N 
ATOM      9  C   UNL     1       4.568   3.082  -0.348  0.00  0.00    +0.307 C 
ATOM     10  O   UNL     1       5.454   2.339   0.026  0.00  0.00    -0.252 OA
ATOM     11  N   UNL     1       4.667   3.652  -1.556  0.00  0.00    -0.260 N 
ATOM     12  C   UNL     1       5.847   3.348  -2.370  0.00  0.00    +0.139 C 
ATOM     13  H   UNL     1       3.465   2.883   1.337  0.00  0.00    +0.151 HD
ENDROOT
BRANCH   7  14
ATOM     14  C   UNL     1       1.154   3.437   0.009  0.00  0.00    +0.016 A 
ATOM     15  C   UNL     1       1.172   2.055   0.002  0.00  0.00    +0.050 A 
ATOM     16  C   UNL     1      -0.016   1.347   0.009  0.00  0.00    +0.159 A 
ATOM     17  C   UNL     1      -1.226   2.024   0.019  0.00  0.00    +0.161 A 
ATOM     18  C   UNL     1      -1.244   3.407   0.032  0.00  0.00    +0.080 A 
ATOM     19  C   UNL     1      -0.053   4.114   0.024  0.00  0.00    +0.132 A 
ATOM     20  F   UNL     1      -0.070   5.465   0.031  0.00  0.00    -0.205 F 
ATOM     21  F   UNL     1      -2.388   1.333   0.021  0.00  0.00    -0.202 F 
ATOM     22  F   UNL     1       0.002  -0.004   0.002  0.00  0.00    -0.202 F 
ENDBRANCH   7  14
BRANCH   1  23
ATOM     23  C   UNL     1       1.817   6.869  -4.341  0.00  0.00    +0.108 C 
BRANCH  23  24
ATOM     24  C   UNL     1       0.932   6.054  -5.287  0.00  0.00    +0.019 C 
BRANCH  24  26
ATOM     25  C   UNL     1      -0.530   6.160  -7.310  0.00  0.00    +0.004 C 
ATOM     26  C   UNL     1       0.355   6.974  -6.364  0.00  0.00    -0.002 C 
ENDBRANCH  24  26
ENDBRANCH  23  24
ENDBRANCH   1  23
TORSDOF 4
