REMARK  Name = ZINC40569303
REMARK  6 active torsions:
REMARK  status: ('A' for Active; 'I' for Inactive)
REMARK    1  A    between atoms: C_1  and  C_2
REMARK    2  A    between atoms: C_2  and  C_3
REMARK    3  A    between atoms: C_3  and  C_4
REMARK    4  A    between atoms: C_11  and  C_19
REMARK    5  A    between atoms: C_13  and  C_17
REMARK    6  A    between atoms: C_14  and  N_16
REMARK                            x       y       z     vdW  Elec       q    Type
REMARK                         _______ _______ _______ _____ _____    ______ ____
ROOT
ATOM      1  C   UNL     1      -1.413  -2.041   0.005  0.00  0.00    +0.113 A 
ATOM      2  C   UNL     1      -1.500  -2.709   1.170  0.00  0.00    +0.088 A 
ATOM      3  C   UNL     1      -1.482  -4.122   1.169  0.00  0.00    +0.144 A 
ATOM      4  C   UNL     1      -1.373  -4.783  -0.036  0.00  0.00    +0.092 A 
ATOM      5  C   UNL     1      -1.285  -4.034  -1.216  0.00  0.00    +0.345 A 
ATOM      6  O   UNL     1      -1.188  -4.600  -2.293  0.00  0.00    -0.245 OA
ATOM      7  O   UNL     1      -1.313  -2.691  -1.164  0.00  0.00    -0.427 OA
ATOM      8  C   UNL     1      -1.347  -6.285  -0.090  0.00  0.00    +0.105 C 
ATOM      9  C   UNL     1      -1.842  -6.858   1.209  0.00  0.00    +0.098 C 
ATOM     10  C   UNL     1      -1.923  -6.098   2.326  0.00  0.00    +0.199 C 
ATOM     11  O   UNL     1      -1.570  -4.801   2.332  0.00  0.00    -0.441 OA
ENDROOT
BRANCH   8  12
ATOM     12  C   UNL     1       0.065  -6.753  -0.333  0.00  0.00    -0.031 A 
ATOM     13  C   UNL     1       1.062  -6.436   0.572  0.00  0.00    +0.008 A 
ATOM     14  C   UNL     1       2.358  -6.863   0.353  0.00  0.00    +0.050 A 
ATOM     15  C   UNL     1       2.663  -7.609  -0.774  0.00  0.00    +0.166 A 
ATOM     16  C   UNL     1       1.659  -7.928  -1.685  0.00  0.00    +0.167 A 
ATOM     17  C   UNL     1       0.360  -7.501  -1.457  0.00  0.00    +0.054 A 
ATOM     18  O   UNL     1       2.206  -8.660  -2.698  0.00  0.00    -0.453 OA
ATOM     19  C   UNL     1       3.626  -8.440  -2.609  0.00  0.00    +0.466 C 
ATOM     20  O   UNL     1       3.839  -8.142  -1.216  0.00  0.00    -0.453 OA
ENDBRANCH   8  12
BRANCH  10  21
ATOM     21  N   UNL     1      -2.382  -6.668   3.488  0.00  0.00    -0.328 N 
ATOM     22  H   UNL     1      -2.642  -7.602   3.500  0.00  0.00    +0.145 HD
ATOM     23  H   UNL     1      -2.446  -6.136   4.296  0.00  0.00    +0.145 HD
ENDBRANCH  10  21
BRANCH   9  24
ATOM     24  C   UNL     1      -2.235  -8.234   1.266  0.00  0.00    +0.101 C 
ATOM     25  N   UNL     1      -2.547  -9.325   1.310  0.00  0.00    -0.191 NA
ENDBRANCH   9  24
BRANCH   1  26
ATOM     26  C   UNL     1      -1.433  -0.534   0.013  0.00  0.00    +0.074 C 
BRANCH  26  28
ATOM     27  C   UNL     1      -0.019   1.526   0.010  0.00  0.00    +0.004 C 
ATOM     28  C   UNL     1       0.002  -0.004   0.002  0.00  0.00    +0.004 C 
ENDBRANCH  26  28
ENDBRANCH   1  26
TORSDOF 5
