REMARK  Name = ZINC23908692
REMARK  8 active torsions:
REMARK  status: ('A' for Active; 'I' for Inactive)
REMARK    1  A    between atoms: C_1  and  C_2
REMARK    2  A    between atoms: C_2  and  C_27
REMARK    3  A    between atoms: N_5  and  C_9
REMARK    4  A    between atoms: C_9  and  C_10
REMARK    5  A    between atoms: N_12  and  C_13
REMARK    6  A    between atoms: C_18  and  S_19
REMARK    7  A    between atoms: S_19  and  C_20
REMARK    8  A    between atoms: C_20  and  C_21
REMARK                            x       y       z     vdW  Elec       q    Type
REMARK                         _______ _______ _______ _____ _____    ______ ____
ROOT
ATOM      1  C   UNL     1       6.654  -2.238  -5.125  0.00  0.00    +0.235 C 
ATOM      2  O   UNL     1       7.710  -2.827  -5.023  0.00  0.00    -0.274 OA
ATOM      3  N   UNL     1       5.933  -1.951  -4.023  0.00  0.00    -0.283 N 
ATOM      4  H   UNL     1       4.936  -1.499  -4.121  0.00  0.00    +0.155 HD
ENDROOT
BRANCH   3   5
ATOM      5  C   UNL     1       6.455  -2.229  -2.753  0.00  0.00    +0.047 A 
ATOM      6  C   UNL     1       7.827  -2.300  -2.565  0.00  0.00    +0.024 A 
ATOM      7  C   UNL     1       8.340  -2.575  -1.310  0.00  0.00    +0.002 A 
ATOM      8  C   UNL     1       7.488  -2.779  -0.240  0.00  0.00    +0.001 A 
ATOM      9  C   UNL     1       6.120  -2.706  -0.417  0.00  0.00    +0.016 A 
ATOM     10  C   UNL     1       5.596  -2.436  -1.673  0.00  0.00    +0.029 A 
BRANCH  10  11
ATOM     11  S   UNL     1       3.851  -2.347  -1.903  0.00  0.00    -0.119 S 
BRANCH  11  12
ATOM     12  C   UNL     1       3.174  -2.677  -0.253  0.00  0.00    +0.109 C 
BRANCH  12  13
ATOM     13  C   UNL     1       1.669  -2.630  -0.309  0.00  0.00    -0.037 A 
ATOM     14  C   UNL     1       0.951  -3.780  -0.581  0.00  0.00    +0.004 A 
ATOM     15  C   UNL     1      -0.430  -3.736  -0.633  0.00  0.00    +0.000 A 
ATOM     16  C   UNL     1      -1.093  -2.543  -0.413  0.00  0.00    +0.000 A 
ATOM     17  C   UNL     1      -0.375  -1.394  -0.141  0.00  0.00    +0.000 A 
ATOM     18  C   UNL     1       1.006  -1.437  -0.089  0.00  0.00    +0.004 A 
ENDBRANCH  12  13
ENDBRANCH  11  12
ENDBRANCH  10  11
ENDBRANCH   3   5
BRANCH   1  19
ATOM     19  C   UNL     1       6.149  -1.826  -6.484  0.00  0.00    +0.214 C 
BRANCH  19  24
ATOM     20  C   UNL     1       7.742  -3.573 -10.543  0.00  0.00    +0.047 C 
ATOM     21  C   UNL     1       8.235  -3.438  -9.101  0.00  0.00    +0.135 C 
ATOM     22  C   UNL     1       7.066  -3.443  -8.136  0.00  0.00    +0.251 C 
ATOM     23  O   UNL     1       6.262  -4.334  -7.963  0.00  0.00    -0.272 OA
ATOM     24  N   UNL     1       7.106  -2.250  -7.510  0.00  0.00    -0.215 N 
ATOM     25  C   UNL     1       8.124  -1.498  -7.944  0.00  0.00    +0.310 C 
ATOM     26  O   UNL     1       8.363  -0.381  -7.531  0.00  0.00    -0.252 OA
ATOM     27  N   UNL     1       8.855  -2.120  -8.887  0.00  0.00    -0.281 N 
ATOM     28  H   UNL     1       9.748  -1.832  -9.462  0.00  0.00    +0.152 HD
BRANCH  21  29
ATOM     29  C   UNL     1       9.204  -4.542  -8.765  0.00  0.00    -0.016 A 
ATOM     30  C   UNL     1       8.748  -5.707  -8.176  0.00  0.00    +0.006 A 
ATOM     31  C   UNL     1       9.637  -6.721  -7.873  0.00  0.00    +0.000 A 
ATOM     32  C   UNL     1      10.983  -6.566  -8.149  0.00  0.00    +0.000 A 
ATOM     33  C   UNL     1      11.439  -5.400  -8.733  0.00  0.00    +0.000 A 
ATOM     34  C   UNL     1      10.550  -4.387  -9.041  0.00  0.00    +0.006 A 
ENDBRANCH  21  29
ENDBRANCH  19  24
ENDBRANCH   1  19
TORSDOF 7
