REMARK  Name = ZINC04106589
REMARK  5 active torsions:
REMARK  status: ('A' for Active; 'I' for Inactive)
REMARK    1  A    between atoms: C_1  and  C_2
REMARK    2  A    between atoms: C_5  and  C_8
REMARK    3  A    between atoms: C_8  and  S_9
REMARK    4  A    between atoms: S_9  and  C_10
REMARK    5  A    between atoms: N_24  and  C_25
REMARK                            x       y       z     vdW  Elec       q    Type
REMARK                         _______ _______ _______ _____ _____    ______ ____
ROOT
ATOM      1  C   UNL     1       2.890   3.708   0.494  0.00  0.00    +0.177 A 
ATOM      2  N   UNL     1       1.604   3.975   0.524  0.00  0.00    -0.221 NA
ATOM      3  C   UNL     1       0.703   3.099   0.053  0.00  0.00    +0.104 A 
ATOM      4  C   UNL     1      -0.764   3.108  -0.049  0.00  0.00    +0.026 A 
ATOM      5  C   UNL     1      -1.746   4.033   0.308  0.00  0.00    +0.012 A 
ATOM      6  C   UNL     1      -3.063   3.749   0.083  0.00  0.00    +0.001 A 
ATOM      7  C   UNL     1      -3.433   2.545  -0.501  0.00  0.00    +0.002 A 
ATOM      8  C   UNL     1      -2.481   1.619  -0.861  0.00  0.00    +0.026 A 
ATOM      9  C   UNL     1      -1.131   1.890  -0.645  0.00  0.00    +0.049 A 
ATOM     10  N   UNL     1       0.016   1.165  -0.890  0.00  0.00    -0.349 N 
ATOM     11  H   UNL     1       0.041   0.284  -1.296  0.00  0.00    +0.166 HD
ATOM     12  C   UNL     1       1.128   1.882  -0.479  0.00  0.00    +0.132 A 
ATOM     13  C   UNL     1       2.511   1.607  -0.505  0.00  0.00    +0.283 A 
ATOM     14  O   UNL     1       2.928   0.555  -0.960  0.00  0.00    -0.265 OA
ATOM     15  N   UNL     1       3.364   2.532  -0.015  0.00  0.00    -0.254 N 
ENDROOT
BRANCH  15  16
ATOM     16  C   UNL     1       4.743   2.285  -0.029  0.00  0.00    +0.052 A 
ATOM     17  C   UNL     1       5.349   1.661   1.054  0.00  0.00    +0.026 A 
ATOM     18  C   UNL     1       6.707   1.414   1.035  0.00  0.00    +0.002 A 
ATOM     19  C   UNL     1       7.466   1.797  -0.055  0.00  0.00    +0.000 A 
ATOM     20  C   UNL     1       6.867   2.423  -1.133  0.00  0.00    +0.002 A 
ATOM     21  C   UNL     1       5.508   2.668  -1.123  0.00  0.00    +0.026 A 
ENDBRANCH  15  16
BRANCH   1  22
ATOM     22  S   UNL     1       4.030   4.894   1.125  0.00  0.00    -0.083 S 
BRANCH  22  23
ATOM     23  C   UNL     1       2.879   6.192   1.642  0.00  0.00    +0.112 C 
BRANCH  23  28
ATOM     24  C   UNL     1       5.845  10.608   3.900  0.00  0.00    +0.044 C 
ATOM     25  C   UNL     1       5.071   9.456   3.311  0.00  0.00    -0.050 A 
ATOM     26  C   UNL     1       4.796   9.429   1.957  0.00  0.00    +0.003 A 
ATOM     27  C   UNL     1       4.086   8.373   1.417  0.00  0.00    +0.005 A 
ATOM     28  C   UNL     1       3.653   7.343   2.231  0.00  0.00    -0.037 A 
ATOM     29  C   UNL     1       3.924   7.373   3.586  0.00  0.00    +0.005 A 
ATOM     30  C   UNL     1       4.637   8.427   4.125  0.00  0.00    +0.003 A 
ENDBRANCH  23  28
ENDBRANCH  22  23
ENDBRANCH   1  22
TORSDOF 4
