REMARK  Name = ZINC11560175
REMARK  10 active torsions:
REMARK  status: ('A' for Active; 'I' for Inactive)
REMARK    1  A    between atoms: C_1  and  C_2
REMARK    2  A    between atoms: C_2  and  O_3
REMARK    3  A    between atoms: O_3  and  C_4
REMARK    4  A    between atoms: C_6  and  C_11
REMARK    5  A    between atoms: C_9  and  O_10
REMARK    6  A    between atoms: C_13  and  C_28
REMARK    7  A    between atoms: C_14  and  C_27
REMARK    8  A    between atoms: N_15  and  C_19
REMARK    9  A    between atoms: C_22  and  C_26
REMARK   10  A    between atoms: C_33  and  C_36
REMARK                            x       y       z     vdW  Elec       q    Type
REMARK                         _______ _______ _______ _____ _____    ______ ____
ROOT
ATOM      1  C   UNL     1       3.105  -4.326   0.041  0.00  0.00    +0.139 C 
ATOM      2  C   UNL     1       1.644  -4.085   0.365  0.00  0.00    +0.056 C 
ATOM      3  C   UNL     1       0.808  -5.144   0.323  0.00  0.00    +0.025 C 
ATOM      4  N   UNL     1       1.262  -6.389  -0.012  0.00  0.00    -0.255 N 
ATOM      5  C   UNL     1       2.541  -6.657  -0.307  0.00  0.00    +0.142 C 
ATOM      6  S   UNL     1       2.978  -8.264  -0.704  0.00  0.00    -0.018 S 
ATOM      7  N   UNL     1       3.493  -5.704  -0.302  0.00  0.00    -0.315 N 
ATOM      8  C   UNL     1      -0.651  -4.949   0.645  0.00  0.00    +0.062 C 
ATOM      9  H   UNL     1       4.414  -5.921  -0.519  0.00  0.00    +0.149 HD
ENDROOT
BRANCH   2  10
ATOM     10  C   UNL     1       1.174  -2.793   0.707  0.00  0.00    +0.249 C 
ATOM     11  O   UNL     1       1.421  -2.326   1.804  0.00  0.00    -0.270 OA
ATOM     12  N   UNL     1       0.453  -2.082  -0.182  0.00  0.00    -0.264 N 
ATOM     13  C   UNL     1      -0.093  -0.854   0.187  0.00  0.00    +0.168 A 
ATOM     14  C   UNL     1       0.018  -0.217   1.451  0.00  0.00    +0.091 A 
ATOM     15  C   UNL     1      -0.676   0.934   1.299  0.00  0.00    +0.136 A 
ATOM     16  O   UNL     1      -1.141   0.938   0.041  0.00  0.00    -0.358 OA
ATOM     17  N   UNL     1      -0.810  -0.057  -0.562  0.00  0.00    -0.063 NA
ATOM     18  C   UNL     1      -0.892   2.000   2.342  0.00  0.00    +0.089 C 
ATOM     19  H   UNL     1       0.314  -2.425  -1.079  0.00  0.00    +0.157 HD
ENDBRANCH   2  10
BRANCH   4  20
ATOM     20  C   UNL     1       0.341  -7.443  -0.042  0.00  0.00    +0.043 A 
ATOM     21  C   UNL     1       0.360  -8.412   0.953  0.00  0.00    +0.024 A 
ATOM     22  C   UNL     1      -0.553  -9.448   0.925  0.00  0.00    +0.008 A 
ATOM     23  C   UNL     1      -1.479  -9.528  -0.098  0.00  0.00    -0.015 A 
ATOM     24  C   UNL     1      -1.498  -8.567  -1.095  0.00  0.00    +0.128 A 
ATOM     25  C   UNL     1      -0.589  -7.524  -1.069  0.00  0.00    +0.062 A 
ATOM     26  F   UNL     1      -2.404  -8.648  -2.094  0.00  0.00    -0.205 F 
ATOM     27  C   UNL     1      -2.470 -10.663  -0.129  0.00  0.00    +0.047 C 
ENDBRANCH   4  20
BRANCH   1  30
ATOM     28  C   UNL     1       4.599  -1.497  -1.968  0.00  0.00    +0.162 A 
ATOM     29  C   UNL     1       4.253  -2.313  -0.903  0.00  0.00    +0.055 A 
ATOM     30  C   UNL     1       3.476  -3.437  -1.117  0.00  0.00    -0.019 A 
ATOM     31  C   UNL     1       3.035  -3.743  -2.391  0.00  0.00    +0.009 A 
ATOM     32  C   UNL     1       3.373  -2.930  -3.457  0.00  0.00    +0.049 A 
ATOM     33  C   UNL     1       4.155  -1.805  -3.250  0.00  0.00    +0.158 A 
BRANCH  33  34
ATOM     34  O   UNL     1       4.487  -1.004  -4.297  0.00  0.00    -0.503 OA
ATOM     35  H   UNL     1       3.855  -0.291  -4.463  0.00  0.00    +0.292 HD
ENDBRANCH  33  34
BRANCH  28  36
ATOM     36  O   UNL     1       5.367  -0.394  -1.759  0.00  0.00    -0.489 OA
BRANCH  36  38
ATOM     37  C   UNL     1       6.635   1.133  -0.380  0.00  0.00    +0.048 C 
ATOM     38  C   UNL     1       5.787  -0.140  -0.417  0.00  0.00    +0.226 C 
ENDBRANCH  36  38
ENDBRANCH  28  36
ENDBRANCH   1  30
TORSDOF 6
