REMARK  Name = ZINC13174466
REMARK  7 active torsions:
REMARK  status: ('A' for Active; 'I' for Inactive)
REMARK    1  A    between atoms: C_1  and  C_2
REMARK    2  A    between atoms: C_5  and  N_9
REMARK    3  A    between atoms: C_10  and  C_12
REMARK    4  A    between atoms: C_12  and  S_13
REMARK    5  A    between atoms: S_13  and  C_14
REMARK    6  A    between atoms: C_15  and  C_33
REMARK    7  A    between atoms: C_16  and  C_26
REMARK                            x       y       z     vdW  Elec       q    Type
REMARK                         _______ _______ _______ _____ _____    ______ ____
ROOT
ATOM      1  C   UNL     1       0.595  -8.711   2.632  0.00  0.00    +0.112 C 
ATOM      2  C   UNL     1       0.714  -9.497   3.765  0.00  0.00    +0.073 C 
ATOM      3  C   UNL     1       0.839 -10.997   3.561  0.00  0.00    +0.097 C 
ATOM      4  C   UNL     1       0.817 -11.472   2.121  0.00  0.00    +0.029 C 
ATOM      5  C   UNL     1       0.918 -12.782   1.846  0.00  0.00    +0.162 C 
ATOM      6  C   UNL     1       0.901 -13.288   0.428  0.00  0.00    +0.080 C 
ATOM      7  C   UNL     1       0.070 -12.337  -0.438  0.00  0.00    +0.014 C 
ATOM      8  C   UNL     1       0.664 -10.930  -0.338  0.00  0.00    +0.056 C 
ATOM      9  C   UNL     1       0.688 -10.502   1.110  0.00  0.00    +0.050 C 
ATOM     10  N   UNL     1       0.582  -9.230   1.402  0.00  0.00    -0.244 NA
ATOM     11  O   UNL     1       1.038 -13.663   2.860  0.00  0.00    -0.292 OA
ENDROOT
BRANCH   3  12
ATOM     12  C   UNL     1      -0.296 -11.667   4.292  0.00  0.00    -0.035 A 
ATOM     13  C   UNL     1      -1.604 -11.377   3.951  0.00  0.00    +0.006 A 
ATOM     14  C   UNL     1      -2.646 -11.991   4.620  0.00  0.00    +0.020 A 
ATOM     15  C   UNL     1      -2.379 -12.897   5.631  0.00  0.00    +0.041 A 
ATOM     16  C   UNL     1      -1.070 -13.187   5.972  0.00  0.00    +0.020 A 
ATOM     17  C   UNL     1      -0.029 -12.576   5.298  0.00  0.00    +0.006 A 
ATOM     18 CL   UNL     1      -3.687 -13.669   6.473  0.00  0.00    -0.084 Cl
ENDBRANCH   3  12
BRANCH   2  19
ATOM     19  C   UNL     1       0.721  -8.920   5.076  0.00  0.00    +0.098 C 
ATOM     20  N   UNL     1       0.726  -8.462   6.115  0.00  0.00    -0.191 NA
ENDBRANCH   2  19
BRANCH   1  21
ATOM     21  S   UNL     1       0.447  -6.965   2.820  0.00  0.00    -0.096 S 
BRANCH  21  22
ATOM     22  C   UNL     1       0.310  -6.351   1.119  0.00  0.00    +0.172 C 
BRANCH  22  24
ATOM     23  N   UNL     1       0.059  -4.170  -0.022  0.00  0.00    -0.285 N 
ATOM     24  C   UNL     1       0.176  -4.850   1.136  0.00  0.00    +0.227 C 
ATOM     25  O   UNL     1       0.174  -4.254   2.192  0.00  0.00    -0.275 OA
ATOM     26  H   UNL     1      -0.015  -4.651  -0.861  0.00  0.00    +0.155 HD
BRANCH  23  31
ATOM     27  C   UNL     1       0.008   1.503   0.012  0.00  0.00    +0.045 C 
ATOM     28  C   UNL     1       0.022  -0.004   0.003  0.00  0.00    -0.032 A 
ATOM     29  C   UNL     1       0.777  -0.693   0.934  0.00  0.00    +0.006 A 
ATOM     30  C   UNL     1       0.792  -2.074   0.928  0.00  0.00    +0.023 A 
ATOM     31  C   UNL     1       0.046  -2.771  -0.014  0.00  0.00    +0.035 A 
ATOM     32  C   UNL     1      -0.712  -2.078  -0.948  0.00  0.00    +0.043 A 
ATOM     33  C   UNL     1      -0.726  -0.695  -0.934  0.00  0.00    +0.046 A 
ATOM     34 CL   UNL     1      -1.678   0.174  -2.096  0.00  0.00    -0.083 Cl
ENDBRANCH  23  31
ENDBRANCH  22  24
ENDBRANCH  21  22
ENDBRANCH   1  21
TORSDOF 6
