REMARK  Name = ZINC39051437
REMARK  3 active torsions:
REMARK  status: ('A' for Active; 'I' for Inactive)
REMARK    1  A    between atoms: C_1  and  C_2
REMARK    2  A    between atoms: C_6  and  C_10
REMARK    3  A    between atoms: C_7  and  C_9
REMARK                            x       y       z     vdW  Elec       q    Type
REMARK                         _______ _______ _______ _____ _____    ______ ____
ROOT
ATOM      1  C   UNL     1      -0.018   1.503   0.010  0.00  0.00    +0.060 C 
ATOM      2  C   UNL     1       0.002  -0.004   0.002  0.00  0.00    +0.005 C 
ATOM      3  C   UNL     1       0.005  -0.661  -1.168  0.00  0.00    +0.026 C 
ATOM      4  C   UNL     1       0.019  -2.140  -1.135  0.00  0.00    -0.026 C 
ATOM      5  C   UNL     1       0.290  -2.867  -2.243  0.00  0.00    +0.017 C 
ATOM      6  C   UNL     1      -0.275  -2.790   0.160  0.00  0.00    -0.027 C 
ATOM      7  C   UNL     1      -0.265  -2.029   1.266  0.00  0.00    +0.008 C 
ATOM      8  N   UNL     1       0.023  -0.689   1.190  0.00  0.00    -0.321 N 
ATOM      9  C   UNL     1      -0.566  -2.654   2.604  0.00  0.00    +0.061 C 
ATOM     10  C   UNL     1      -0.578  -4.265   0.237  0.00  0.00    +0.046 C 
ATOM     11  H   UNL     1       0.244  -0.209   2.004  0.00  0.00    +0.152 HD
ENDROOT
TORSDOF 0
