REMARK  Name = ZINC36743185
REMARK  5 active torsions:
REMARK  status: ('A' for Active; 'I' for Inactive)
REMARK    1  A    between atoms: C_1  and  C_2
REMARK    2  A    between atoms: N_8  and  S_9
REMARK    3  A    between atoms: S_9  and  N_12
REMARK    4  A    between atoms: N_12  and  C_13
REMARK    5  A    between atoms: C_14  and  N_21
REMARK                            x       y       z     vdW  Elec       q    Type
REMARK                         _______ _______ _______ _____ _____    ______ ____
ROOT
ATOM      1  N   UNL     1       0.166   0.920   2.867  0.00  0.00    -0.204 N 
ATOM      2  H   UNL     1       0.038   1.867   2.703  0.00  0.00    +0.175 HD
ENDROOT
BRANCH   1   3
ATOM      3  C   UNL     1      -0.616   0.264   3.827  0.00  0.00    +0.084 A 
ATOM      4  C   UNL     1      -0.018  -0.273   4.967  0.00  0.00    +0.049 A 
ATOM      5  C   UNL     1      -0.797  -0.921   5.913  0.00  0.00    +0.040 A 
ATOM      6  C   UNL     1      -2.163  -1.036   5.725  0.00  0.00    +0.021 A 
ATOM      7  C   UNL     1      -2.756  -0.504   4.594  0.00  0.00    +0.032 A 
ATOM      8  C   UNL     1      -1.986   0.151   3.648  0.00  0.00    +0.043 A 
ATOM      9 BR   UNL     1      -2.803   0.883   2.108  0.00  0.00    -0.048 Br
ATOM     10 BR   UNL     1      -3.222  -1.921   7.017  0.00  0.00    -0.050 Br
BRANCH   4  11
ATOM     11  N   UNL     1       1.365  -0.157   5.155  0.00  0.00    -0.356 N 
ATOM     12  H   UNL     1       1.880   0.451   4.603  0.00  0.00    +0.142 HD
ATOM     13  H   UNL     1       1.807  -0.686   5.838  0.00  0.00    +0.142 HD
ENDBRANCH   4  11
ENDBRANCH   1   3
BRANCH   1  14
ATOM     14  S   UNL     1       1.308   0.078   2.012  0.00  0.00    +0.112 S 
ATOM     15  O   UNL     1       2.062  -0.662   2.962  0.00  0.00    -0.138 OA
ATOM     16  O   UNL     1       1.908   1.003   1.116  0.00  0.00    -0.138 OA
BRANCH  14  23
ATOM     17  C   UNL     1       0.090   0.865  -0.419  0.00  0.00    +0.026 C 
ATOM     18  C   UNL     1      -0.202  -0.611  -0.139  0.00  0.00    +0.078 C 
ATOM     19  C   UNL     1       0.287  -1.463  -1.313  0.00  0.00    +0.020 C 
ATOM     20  C   UNL     1       0.120  -2.945  -0.968  0.00  0.00    +0.003 C 
ATOM     21  C   UNL     1       0.967  -3.283   0.261  0.00  0.00    +0.017 C 
ATOM     22  C   UNL     1       0.485  -2.451   1.453  0.00  0.00    +0.111 C 
ATOM     23  N   UNL     1       0.504  -1.029   1.080  0.00  0.00    -0.161 NA
ENDBRANCH  14  23
ENDBRANCH   1  14
TORSDOF 4
