REMARK  Name = ZINC17326314
REMARK  6 active torsions:
REMARK  status: ('A' for Active; 'I' for Inactive)
REMARK    1  A    between atoms: C_1  and  C_2
REMARK    2  A    between atoms: C_2  and  C_4
REMARK    3  A    between atoms: C_10  and  C_35
REMARK    4  A    between atoms: C_20  and  C_34
REMARK    5  A    between atoms: C_23  and  O_26
REMARK    6  A    between atoms: O_26  and  C_27
REMARK                            x       y       z     vdW  Elec       q    Type
REMARK                         _______ _______ _______ _____ _____    ______ ____
ROOT
ATOM      1  C   UNL     1      -2.127   0.944   1.292  0.00  0.00    +0.061 C 
ATOM      2  C   UNL     1      -2.057  -0.449   1.965  0.00  0.00    +0.012 C 
ATOM      3  C   UNL     1      -0.607  -0.610   2.501  0.00  0.00    +0.005 C 
ATOM      4  C   UNL     1      -0.115   0.841   2.573  0.00  0.00    -0.001 C 
ATOM      5  C   UNL     1      -0.671   1.432   1.258  0.00  0.00    -0.019 C 
ATOM      6  C   UNL     1      -0.477   2.928   1.255  0.00  0.00    +0.008 C 
ATOM      7  C   UNL     1       0.961   3.322   1.571  0.00  0.00    +0.005 C 
ATOM      8  C   UNL     1       1.642   2.563   2.700  0.00  0.00    +0.003 C 
ATOM      9  C   UNL     1       1.373   1.062   2.613  0.00  0.00    +0.000 C 
ATOM     10  C   UNL     1       2.044   0.310   3.756  0.00  0.00    +0.031 C 
ATOM     11  C   UNL     1       1.707   0.938   5.073  0.00  0.00    -0.027 C 
ATOM     12  C   UNL     1       1.475   2.208   5.204  0.00  0.00    -0.065 C 
ATOM     13  C   UNL     1       1.394   3.176   4.058  0.00  0.00    -0.008 C 
ATOM     14  C   UNL     1       2.426   4.288   4.308  0.00  0.00    +0.014 C 
ATOM     15  C   UNL     1       2.234   4.911   5.686  0.00  0.00    +0.033 C 
ATOM     16  C   UNL     1       2.361   3.868   6.793  0.00  0.00    +0.125 C 
ATOM     17  C   UNL     1       1.313   2.767   6.607  0.00  0.00    +0.062 C 
ATOM     18  C   UNL     1       0.012   3.826   4.112  0.00  0.00    +0.016 C 
ATOM     19  C   UNL     1      -0.001   0.819   0.026  0.00  0.00    +0.012 C 
ENDROOT
BRANCH   1  21
ATOM     20  C   UNL     1      -3.267   2.024  -0.792  0.00  0.00    +0.086 C 
ATOM     21  C   UNL     1      -2.661   0.824  -0.111  0.00  0.00    +0.134 C 
ATOM     22  O   UNL     1      -2.604  -0.234  -0.690  0.00  0.00    -0.297 OA
ENDBRANCH   1  21
BRANCH  16  23
ATOM     23  O   UNL     1       3.668   3.289   6.759  0.00  0.00    -0.348 OA
BRANCH  23  24
ATOM     24  C   UNL     1       4.147   2.858   8.034  0.00  0.00    +0.250 C 
ATOM     25  C   UNL     1       5.629   2.490   7.926  0.00  0.00    +0.061 C 
ATOM     26  C   UNL     1       6.119   1.972   9.282  0.00  0.00    +0.007 C 
ATOM     27  C   UNL     1       5.254   0.781   9.703  0.00  0.00    +0.028 C 
ATOM     28  C   UNL     1       3.786   1.214   9.743  0.00  0.00    +0.163 C 
ATOM     29  O   UNL     1       3.404   1.714   8.460  0.00  0.00    -0.351 OA
ENDBRANCH  23  24
ENDBRANCH  16  23
TORSDOF 3
