REMARK  Name = ZINC12384773
REMARK  9 active torsions:
REMARK  status: ('A' for Active; 'I' for Inactive)
REMARK    1  A    between atoms: C_1  and  C_2
REMARK    2  A    between atoms: C_7  and  C_21
REMARK    3  A    between atoms: C_9  and  C_13
REMARK    4  A    between atoms: C_10  and  C_12
REMARK    5  A    between atoms: C_13  and  O_15
REMARK    6  A    between atoms: O_15  and  C_16
REMARK    7  A    between atoms: C_31  and  C_33
REMARK    8  A    between atoms: C_33  and  O_35
REMARK    9  A    between atoms: O_35  and  C_36
REMARK                            x       y       z     vdW  Elec       q    Type
REMARK                         _______ _______ _______ _____ _____    ______ ____
ROOT
ATOM      1  C   UNL     1       2.644   3.058  -2.335  0.00  0.00    +0.009 C 
ATOM      2  C   UNL     1       2.433   3.908  -1.080  0.00  0.00    +0.012 C 
ATOM      3  C   UNL     1       1.109   3.524  -0.422  0.00  0.00    +0.056 C 
ATOM      4  C   UNL     1       1.152   2.077   0.003  0.00  0.00    +0.031 C 
ATOM      5  C   UNL     1       2.313   1.494   0.369  0.00  0.00    +0.112 C 
ATOM      6  C   UNL     1       2.346   0.051   0.805  0.00  0.00    +0.073 C 
ATOM      7  C   UNL     1       1.108  -0.673   0.365  0.00  0.00    +0.066 C 
ATOM      8  C   UNL     1       0.002  -0.004   0.002  0.00  0.00    +0.049 C 
ATOM      9  N   UNL     1      -0.017   1.363   0.010  0.00  0.00    -0.260 NA
ATOM     10  C   UNL     1      -1.225  -0.767  -0.426  0.00  0.00    +0.066 C 
ATOM     11  C   UNL     1       3.522   2.212   0.352  0.00  0.00    +0.157 C 
ATOM     12  O   UNL     1       4.548   1.659   0.694  0.00  0.00    -0.296 OA
ATOM     13  C   UNL     1       3.568   3.651  -0.083  0.00  0.00    +0.167 C 
ENDROOT
BRANCH   6  14
ATOM     14  C   UNL     1       2.446  -0.008   2.308  0.00  0.00    -0.037 A 
ATOM     15  C   UNL     1       3.543  -0.603   2.905  0.00  0.00    +0.006 A 
ATOM     16  C   UNL     1       3.636  -0.657   4.282  0.00  0.00    +0.022 A 
ATOM     17  C   UNL     1       2.632  -0.116   5.065  0.00  0.00    +0.059 A 
ATOM     18  C   UNL     1       1.534   0.480   4.468  0.00  0.00    +0.060 A 
ATOM     19  C   UNL     1       1.445   0.538   3.088  0.00  0.00    +0.025 A 
ATOM     20 CL   UNL     1       0.273   1.159   5.449  0.00  0.00    -0.082 Cl
ATOM     21 CL   UNL     1       2.748  -0.184   6.796  0.00  0.00    -0.082 Cl
ENDBRANCH   6  14
BRANCH   7  22
ATOM     22  C   UNL     1       1.105  -2.088   0.337  0.00  0.00    +0.338 C 
ATOM     23  O   UNL     1       0.107  -2.687  -0.018  0.00  0.00    -0.245 OA
BRANCH  22  24
ATOM     24  O   UNL     1       2.209  -2.772   0.703  0.00  0.00    -0.458 OA
BRANCH  24  25
ATOM     25  C   UNL     1       2.135  -4.199   0.650  0.00  0.00    +0.177 C 
ATOM     26  C   UNL     1       1.686  -4.756   2.017  0.00  0.00    +0.044 C 
ATOM     27  C   UNL     1       2.504  -6.062   2.180  0.00  0.00    +0.004 C 
ATOM     28  C   UNL     1       3.878  -5.684   1.576  0.00  0.00    +0.004 C 
ATOM     29  C   UNL     1       3.528  -4.789   0.369  0.00  0.00    +0.044 C 
ENDBRANCH  24  25
ENDBRANCH  22  24
ENDBRANCH   7  22
BRANCH  13  30
ATOM     30  C   UNL     1       4.892   3.937  -0.742  0.00  0.00    +0.317 C 
ATOM     31  O   UNL     1       4.928   4.309  -1.891  0.00  0.00    -0.250 OA
BRANCH  30  32
ATOM     32  O   UNL     1       6.033   3.780  -0.052  0.00  0.00    -0.467 OA
ATOM     33  C   UNL     1       7.272   4.074  -0.750  0.00  0.00    +0.280 C 
ENDBRANCH  30  32
ENDBRANCH  13  30
TORSDOF 6
