REMARK  Name = ZINC36704599
REMARK  12 active torsions:
REMARK  status: ('A' for Active; 'I' for Inactive)
REMARK    1  A    between atoms: C_1  and  C_2
REMARK    2  A    between atoms: C_3  and  C_21
REMARK    3  A    between atoms: C_4  and  C_17
REMARK    4  A    between atoms: N_6  and  C_7
REMARK    5  A    between atoms: N_12  and  C_14
REMARK    6  A    between atoms: C_14  and  C_15
REMARK    7  A    between atoms: C_14  and  C_16
REMARK    8  A    between atoms: N_23  and  C_24
REMARK    9  A    between atoms: C_24  and  C_25
REMARK   10  A    between atoms: C_24  and  C_26
REMARK   11  A    between atoms: C_24  and  C_27
REMARK   12  A    between atoms: C_27  and  O_28
REMARK                            x       y       z     vdW  Elec       q    Type
REMARK                         _______ _______ _______ _____ _____    ______ ____
ROOT
ATOM      1  C   UNL     1      -0.018   1.503   0.010  0.00  0.00    +0.066 C 
ATOM      2  C   UNL     1       0.002  -0.004   0.002  0.00  0.00    +0.049 A 
ATOM      3  C   UNL     1       0.009  -0.815  -1.115  0.00  0.00    +0.089 A 
ATOM      4  C   UNL     1       0.029  -2.152  -0.660  0.00  0.00    +0.178 A 
ATOM      5  N   UNL     1       0.034  -2.134   0.645  0.00  0.00    -0.166 NA
ATOM      6  N   UNL     1       0.023  -0.804   1.080  0.00  0.00    -0.266 N 
ENDROOT
BRANCH   6   7
ATOM      7  C   UNL     1       0.030  -0.360   2.476  0.00  0.00    +0.091 C 
ATOM      8  C   UNL     1      -1.205  -0.912   3.194  0.00  0.00    +0.023 C 
ATOM      9  C   UNL     1      -1.148  -0.508   4.670  0.00  0.00    -0.017 C 
ATOM     10  C   UNL     1       0.157  -1.020   5.284  0.00  0.00    -0.078 C 
ATOM     11  N   UNL     1       1.299  -0.437   4.570  0.00  0.00    +0.383 N 
ATOM     12  C   UNL     1       1.292  -0.877   3.170  0.00  0.00    -0.051 C 
ATOM     13  H   UNL     1       1.237   0.570   4.605  0.00  0.00    -0.081 HD
BRANCH  11  14
ATOM     14  C   UNL     1       2.548  -0.870   5.212  0.00  0.00    -0.075 C 
ATOM     15  C   UNL     1       3.740  -0.262   4.469  0.00  0.00    -0.014 C 
ATOM     16  C   UNL     1       2.562  -0.402   6.668  0.00  0.00    -0.014 C 
ENDBRANCH  11  14
ENDBRANCH   6   7
BRANCH   4  17
ATOM     17  C   UNL     1       0.043  -3.384  -1.528  0.00  0.00    +0.437 C 
ATOM     18  F   UNL     1       1.365  -3.746  -1.803  0.00  0.00    -0.164 F 
ATOM     19  F   UNL     1      -0.600  -4.432  -0.861  0.00  0.00    -0.164 F 
ATOM     20  F   UNL     1      -0.626  -3.115  -2.728  0.00  0.00    -0.164 F 
ENDBRANCH   4  17
BRANCH   3  21
ATOM     21  C   UNL     1      -0.004  -0.369  -2.520  0.00  0.00    +0.248 C 
ATOM     22  O   UNL     1       1.044  -0.170  -3.104  0.00  0.00    -0.270 OA
ATOM     23  N   UNL     1      -1.177  -0.182  -3.157  0.00  0.00    -0.304 N 
ATOM     24  H   UNL     1      -2.013  -0.341  -2.691  0.00  0.00    +0.150 HD
BRANCH  23  25
ATOM     25  C   UNL     1      -1.189   0.261  -4.554  0.00  0.00    +0.052 C 
ATOM     26  C   UNL     1      -0.488   1.616  -4.665  0.00  0.00    +0.033 C 
ATOM     27  C   UNL     1      -0.457  -0.765  -5.421  0.00  0.00    +0.033 C 
BRANCH  25  28
ATOM     28  C   UNL     1      -2.636   0.395  -5.033  0.00  0.00    +0.181 C 
BRANCH  28  29
ATOM     29  O   UNL     1      -2.648   0.827  -6.395  0.00  0.00    -0.393 OA
ATOM     30  H   UNL     1      -3.535   0.934  -6.766  0.00  0.00    +0.209 HD
ENDBRANCH  28  29
ENDBRANCH  25  28
ENDBRANCH  23  25
ENDBRANCH   3  21
TORSDOF 7
