REMARK  Name = ZINC08754552
REMARK  10 active torsions:
REMARK  status: ('A' for Active; 'I' for Inactive)
REMARK    1  A    between atoms: C_1  and  C_2
REMARK    2  A    between atoms: C_5  and  S_8
REMARK    3  A    between atoms: S_8  and  N_11
REMARK    4  A    between atoms: N_11  and  C_12
REMARK    5  A    between atoms: N_11  and  C_32
REMARK    6  A    between atoms: C_12  and  C_13
REMARK    7  A    between atoms: C_13  and  C_15
REMARK    8  A    between atoms: C_13  and  O_31
REMARK    9  A    between atoms: C_15  and  O_16
REMARK   10  A    between atoms: O_16  and  N_17
REMARK                            x       y       z     vdW  Elec       q    Type
REMARK                         _______ _______ _______ _____ _____    ______ ____
ROOT
ATOM      1  C   UNL     1      -2.704   1.381   2.289  0.00  0.00    +0.166 C 
ENDROOT
BRANCH   1   2
ATOM      2  N   UNL     1      -1.922   2.346   1.512  0.00  0.00    -0.200 N 
BRANCH   2   3
ATOM      3  C   UNL     1      -1.324   3.437   2.150  0.00  0.00    +0.052 A 
ATOM      4  C   UNL     1       0.054   3.602   2.101  0.00  0.00    +0.027 A 
ATOM      5  C   UNL     1       0.642   4.683   2.728  0.00  0.00    +0.040 A 
ATOM      6  C   UNL     1      -0.140   5.596   3.414  0.00  0.00    +0.124 A 
ATOM      7  C   UNL     1      -1.514   5.431   3.469  0.00  0.00    +0.040 A 
ATOM      8  C   UNL     1      -2.107   4.354   2.839  0.00  0.00    +0.027 A 
ATOM      9  F   UNL     1       0.437   6.650   4.031  0.00  0.00    -0.205 F 
ENDBRANCH   2   3
BRANCH   2  10
ATOM     10  S   UNL     1      -1.748   2.145  -0.122  0.00  0.00    +0.075 S 
ATOM     11  O   UNL     1      -1.341   3.402  -0.645  0.00  0.00    -0.150 OA
ATOM     12  O   UNL     1      -2.914   1.473  -0.576  0.00  0.00    -0.150 OA
BRANCH  10  17
ATOM     13  C   UNL     1       2.864  -1.648  -0.988  0.00  0.00    +0.044 C 
ATOM     14  C   UNL     1       1.713  -0.701  -0.770  0.00  0.00    -0.050 A 
ATOM     15  C   UNL     1       0.428  -1.194  -0.633  0.00  0.00    +0.005 A 
ATOM     16  C   UNL     1      -0.628  -0.325  -0.434  0.00  0.00    +0.029 A 
ATOM     17  C   UNL     1      -0.400   1.037  -0.370  0.00  0.00    +0.109 A 
ATOM     18  C   UNL     1       0.884   1.530  -0.506  0.00  0.00    +0.029 A 
ATOM     19  C   UNL     1       1.940   0.661  -0.707  0.00  0.00    +0.005 A 
ENDBRANCH  10  17
ENDBRANCH   2  10
ENDBRANCH   1   2
BRANCH   1  20
ATOM     20  C   UNL     1      -1.769   0.318   2.870  0.00  0.00    +0.173 C 
BRANCH  20  21
ATOM     21  O   UNL     1      -0.893   0.923   3.823  0.00  0.00    -0.387 OA
ATOM     22  H   UNL     1      -1.343   1.273   4.605  0.00  0.00    +0.210 HD
ENDBRANCH  20  21
BRANCH  20  23
ATOM     23  C   UNL     1      -2.597  -0.769   3.558  0.00  0.00    +0.295 C 
BRANCH  23  24
ATOM     24  O   UNL     1      -1.734  -1.819   3.998  0.00  0.00    -0.391 OA
BRANCH  24  25
ATOM     25  N   UNL     1      -2.405  -2.881   4.651  0.00  0.00    -0.084 NA
ATOM     26  C   UNL     1      -1.730  -3.899   5.100  0.00  0.00    +0.118 C 
ATOM     27  C   UNL     1      -0.265  -4.099   5.002  0.00  0.00    +0.012 A 
ATOM     28  C   UNL     1       0.750  -3.326   4.447  0.00  0.00    +0.011 A 
ATOM     29  C   UNL     1       2.058  -3.768   4.499  0.00  0.00    +0.001 A 
ATOM     30  C   UNL     1       2.364  -4.976   5.101  0.00  0.00    +0.001 A 
ATOM     31  C   UNL     1       1.368  -5.750   5.665  0.00  0.00    +0.009 A 
ATOM     32  C   UNL     1       0.044  -5.323   5.617  0.00  0.00    -0.008 A 
ATOM     33  C   UNL     1      -1.211  -5.937   6.110  0.00  0.00    -0.008 A 
ATOM     34  C   UNL     1      -2.282  -5.083   5.802  0.00  0.00    +0.012 A 
ATOM     35  C   UNL     1      -3.577  -5.438   6.163  0.00  0.00    +0.011 A 
ATOM     36  C   UNL     1      -3.806  -6.629   6.826  0.00  0.00    +0.001 A 
ATOM     37  C   UNL     1      -2.751  -7.471   7.131  0.00  0.00    +0.001 A 
ATOM     38  C   UNL     1      -1.459  -7.133   6.778  0.00  0.00    +0.009 A 
ENDBRANCH  24  25
ENDBRANCH  23  24
ENDBRANCH  20  23
ENDBRANCH   1  20
TORSDOF 9
