REMARK  Name = ZINC15764561
REMARK  5 active torsions:
REMARK  status: ('A' for Active; 'I' for Inactive)
REMARK    1  A    between atoms: C_3  and  N_17
REMARK    2  A    between atoms: C_6  and  N_7
REMARK    3  A    between atoms: C_8  and  C_10
REMARK    4  A    between atoms: N_17  and  S_18
REMARK    5  A    between atoms: S_18  and  C_21
REMARK                            x       y       z     vdW  Elec       q    Type
REMARK                         _______ _______ _______ _____ _____    ______ ____
ROOT
ATOM      1  C   UNL     1       4.666   5.369   0.149  0.00  0.00    +0.025 A 
ATOM      2  C   UNL     1       5.780   6.035   0.621  0.00  0.00    +0.026 A 
ATOM      3  C   UNL     1       7.029   5.777   0.069  0.00  0.00    +0.048 A 
ATOM      4  C   UNL     1       7.157   4.845  -0.952  0.00  0.00    +0.026 A 
ATOM      5  C   UNL     1       6.044   4.175  -1.419  0.00  0.00    +0.025 A 
ATOM      6  C   UNL     1       4.796   4.434  -0.868  0.00  0.00    +0.034 A 
ENDROOT
BRANCH   6   7
ATOM      7  N   UNL     1       3.666   3.754  -1.343  0.00  0.00    -0.285 N 
ATOM      8  C   UNL     1       3.768   2.469  -1.736  0.00  0.00    +0.221 C 
ATOM      9  O   UNL     1       4.852   1.926  -1.759  0.00  0.00    -0.275 OA
ATOM     10  H   UNL     1       2.810   4.209  -1.389  0.00  0.00    +0.155 HD
BRANCH   8  11
ATOM     11  C   UNL     1       2.535   1.706  -2.146  0.00  0.00    +0.079 C 
ATOM     12  C   UNL     1       2.925   0.285  -2.571  0.00  0.00    +0.017 C 
ATOM     13  C   UNL     1       1.644  -0.518  -2.810  0.00  0.00    +0.027 C 
ATOM     14  C   UNL     1       0.707   0.253  -3.693  0.00  0.00    -0.031 C 
ATOM     15  C   UNL     1       0.806   1.523  -3.922  0.00  0.00    -0.030 C 
ATOM     16  C   UNL     1       1.872   2.402  -3.337  0.00  0.00    +0.039 C 
ENDBRANCH   8  11
ENDBRANCH   6   7
BRANCH   3  17
ATOM     17  N   UNL     1       8.156   6.456   0.542  0.00  0.00    -0.216 N 
ATOM     18  H   UNL     1       8.975   5.969   0.725  0.00  0.00    +0.174 HD
BRANCH  17  19
ATOM     19  S   UNL     1       8.094   8.092   0.790  0.00  0.00    +0.072 S 
ATOM     20  O   UNL     1       6.939   8.340   1.580  0.00  0.00    -0.150 OA
ATOM     21  O   UNL     1       9.396   8.491   1.199  0.00  0.00    -0.150 OA
BRANCH  19  22
ATOM     22  C   UNL     1       7.805   8.846  -0.775  0.00  0.00    +0.111 A 
ATOM     23  C   UNL     1       6.516   9.167  -1.160  0.00  0.00    +0.032 A 
ATOM     24  C   UNL     1       6.286   9.758  -2.388  0.00  0.00    +0.043 A 
ATOM     25  C   UNL     1       7.347  10.030  -3.234  0.00  0.00    +0.159 A 
ATOM     26  C   UNL     1       8.639   9.709  -2.849  0.00  0.00    +0.160 A 
ATOM     27  C   UNL     1       8.867   9.122  -1.616  0.00  0.00    +0.070 A 
ATOM     28  F   UNL     1       9.677   9.973  -3.673  0.00  0.00    -0.202 F 
ATOM     29  F   UNL     1       7.123  10.609  -4.434  0.00  0.00    -0.202 F 
ENDBRANCH  19  22
ENDBRANCH  17  19
ENDBRANCH   3  17
TORSDOF 5
