REMARK  Name = ZINC09086541
REMARK  12 active torsions:
REMARK  status: ('A' for Active; 'I' for Inactive)
REMARK    1  A    between atoms: C_1  and  C_2
REMARK    2  A    between atoms: C_2  and  O_3
REMARK    3  A    between atoms: O_3  and  C_4
REMARK    4  A    between atoms: C_7  and  N_10
REMARK    5  A    between atoms: C_11  and  C_30
REMARK    6  A    between atoms: C_14  and  S_15
REMARK    7  A    between atoms: S_15  and  C_16
REMARK    8  A    between atoms: C_16  and  C_17
REMARK    9  A    between atoms: N_19  and  N_20
REMARK   10  A    between atoms: C_21  and  C_22
REMARK   11  A    between atoms: C_21  and  C_23
REMARK   12  A    between atoms: C_28  and  O_29
REMARK                            x       y       z     vdW  Elec       q    Type
REMARK                         _______ _______ _______ _____ _____    ______ ____
ROOT
ATOM      1  N   UNL     1       1.098  -5.965   1.732  0.00  0.00    -0.270 N 
ATOM      2  C   UNL     1       0.650  -6.726   2.790  0.00  0.00    +0.169 A 
ATOM      3  N   UNL     1       1.012  -7.966   2.552  0.00  0.00    -0.128 NA
ATOM      4  N   UNL     1       1.645  -8.033   1.436  0.00  0.00    -0.122 NA
ATOM      5  C   UNL     1       1.723  -6.841   0.888  0.00  0.00    +0.197 A 
ENDROOT
BRANCH   1   9
ATOM      6  C   UNL     1       0.628  -1.853   1.207  0.00  0.00    +0.121 A 
ATOM      7  C   UNL     1      -0.038  -2.740   0.373  0.00  0.00    +0.047 A 
ATOM      8  C   UNL     1       0.118  -4.101   0.546  0.00  0.00    +0.030 A 
ATOM      9  C   UNL     1       0.940  -4.582   1.556  0.00  0.00    +0.051 A 
ATOM     10  C   UNL     1       1.606  -3.695   2.390  0.00  0.00    +0.030 A 
ATOM     11  C   UNL     1       1.454  -2.334   2.213  0.00  0.00    +0.047 A 
BRANCH   6  12
ATOM     12  O   UNL     1       0.474  -0.513   1.036  0.00  0.00    -0.492 OA
BRANCH  12  14
ATOM     13  C   UNL     1      -0.438   1.440  -0.056  0.00  0.00    +0.048 C 
ATOM     14  C   UNL     1      -0.391  -0.089  -0.018  0.00  0.00    +0.225 C 
ENDBRANCH  12  14
ENDBRANCH   6  12
ENDBRANCH   1   9
BRANCH   2  15
ATOM     15  C   UNL     1      -0.095  -6.239   3.969  0.00  0.00    +0.020 A 
ATOM     16  C   UNL     1      -0.735  -4.999   3.931  0.00  0.00    +0.011 A 
ATOM     17  C   UNL     1      -1.430  -4.550   5.035  0.00  0.00    +0.001 A 
ATOM     18  C   UNL     1      -1.493  -5.326   6.179  0.00  0.00    +0.000 A 
ATOM     19  C   UNL     1      -0.860  -6.556   6.224  0.00  0.00    +0.001 A 
ATOM     20  C   UNL     1      -0.167  -7.019   5.125  0.00  0.00    +0.011 A 
ENDBRANCH   2  15
BRANCH   5  21
ATOM     21  S   UNL     1       2.494  -6.444  -0.646  0.00  0.00    -0.076 S 
BRANCH  21  22
ATOM     22  C   UNL     1       3.118  -8.037  -1.249  0.00  0.00    +0.174 C 
BRANCH  22  23
ATOM     23  C   UNL     1       3.809  -7.838  -2.573  0.00  0.00    +0.242 C 
ATOM     24  O   UNL     1       3.874  -6.729  -3.062  0.00  0.00    -0.273 OA
ATOM     25  N   UNL     1       4.355  -8.890  -3.214  0.00  0.00    -0.206 N 
ATOM     26  H   UNL     1       4.303  -9.776  -2.822  0.00  0.00    +0.177 HD
BRANCH  25  27
ATOM     27  N   UNL     1       4.997  -8.705  -4.445  0.00  0.00    -0.184 NA
ATOM     28  C   UNL     1       5.523  -9.718  -5.062  0.00  0.00    +0.067 C 
ATOM     29  C   UNL     1       5.442 -11.095  -4.454  0.00  0.00    +0.068 C 
BRANCH  28  30
ATOM     30  C   UNL     1       6.199  -9.523  -6.357  0.00  0.00    +0.039 A 
ATOM     31  C   UNL     1       6.761 -10.612  -7.027  0.00  0.00    +0.013 A 
ATOM     32  C   UNL     1       7.391 -10.423  -8.238  0.00  0.00    +0.001 A 
ATOM     33  C   UNL     1       7.470  -9.157  -8.794  0.00  0.00    +0.004 A 
ATOM     34  C   UNL     1       6.919  -8.071  -8.141  0.00  0.00    +0.046 A 
ATOM     35  C   UNL     1       6.277  -8.245  -6.926  0.00  0.00    +0.126 A 
BRANCH  35  36
ATOM     36  O   UNL     1       5.729  -7.179  -6.285  0.00  0.00    -0.506 OA
ATOM     37  H   UNL     1       6.335  -6.730  -5.680  0.00  0.00    +0.292 HD
ENDBRANCH  35  36
ENDBRANCH  28  30
ENDBRANCH  25  27
ENDBRANCH  22  23
ENDBRANCH  21  22
ENDBRANCH   5  21
TORSDOF 10
