REMARK  Name = ZINC38183959
REMARK  7 active torsions:
REMARK  status: ('A' for Active; 'I' for Inactive)
REMARK    1  A    between atoms: C_4  and  C_7
REMARK    2  A    between atoms: C_7  and  C_8
REMARK    3  A    between atoms: N_16  and  C_17
REMARK    4  A    between atoms: C_17  and  C_18
REMARK    5  A    between atoms: N_20  and  N_21
REMARK    6  A    between atoms: C_22  and  C_23
REMARK    7  A    between atoms: C_27  and  N_30
REMARK                            x       y       z     vdW  Elec       q    Type
REMARK                         _______ _______ _______ _____ _____    ______ ____
ROOT
ATOM      1  C   UNL     1       3.918  -4.235   1.030  0.00  0.00    +0.252 C 
ATOM      2  O   UNL     1       5.114  -4.049   0.949  0.00  0.00    -0.272 OA
ATOM      3  N   UNL     1       3.379  -5.372   0.547  0.00  0.00    -0.206 N 
ATOM      4  H   UNL     1       2.423  -5.521   0.612  0.00  0.00    +0.177 HD
ENDROOT
BRANCH   3   5
ATOM      5  N   UNL     1       4.200  -6.339  -0.048  0.00  0.00    -0.188 NA
ATOM      6  C   UNL     1       3.680  -7.435  -0.513  0.00  0.00    +0.142 C 
BRANCH   6   7
ATOM      7  C   UNL     1       4.542  -8.450  -1.138  0.00  0.00    +0.054 A 
ATOM      8  C   UNL     1       3.985  -9.638  -1.650  0.00  0.00    +0.036 A 
ATOM      9  C   UNL     1       4.816 -10.601  -2.247  0.00  0.00    +0.138 A 
ATOM     10  C   UNL     1       6.184 -10.372  -2.325  0.00  0.00    +0.083 A 
ATOM     11  C   UNL     1       6.728  -9.208  -1.822  0.00  0.00    +0.177 A 
ATOM     12  C   UNL     1       5.921  -8.243  -1.235  0.00  0.00    +0.218 A 
ATOM     13  O   UNL     1       6.472  -7.099  -0.750  0.00  0.00    -0.285 OA
ATOM     14  O   UNL     1       4.027 -11.623  -2.645  0.00  0.00    -0.459 OA
ATOM     15  C   UNL     1       2.742 -11.383  -2.341  0.00  0.00    +0.109 A 
ATOM     16  C   UNL     1       2.637 -10.188  -1.732  0.00  0.00    +0.002 A 
ATOM     17  C   UNL     1       1.349  -9.579  -1.246  0.00  0.00    +0.039 C 
ATOM     18  C   UNL     1       0.181 -10.323  -1.906  0.00  0.00    +0.005 C 
ATOM     19  C   UNL     1       0.387 -11.832  -1.744  0.00  0.00    +0.008 C 
ATOM     20  C   UNL     1       1.562 -12.286  -2.618  0.00  0.00    +0.075 C 
BRANCH  11  21
ATOM     21  N   UNL     1       8.188  -8.984  -1.914  0.00  0.00    +0.060 N 
ATOM     22  O   UNL     1       8.897  -9.818  -2.428  0.00  0.00    -0.126 OA
ATOM     23  O   UNL     1       8.672  -7.966  -1.476  0.00  0.00    -0.126 OA
ENDBRANCH  11  21
ENDBRANCH   6   7
ENDBRANCH   3   5
BRANCH   1  24
ATOM     24  C   UNL     1       3.035  -3.195   1.670  0.00  0.00    +0.221 C 
BRANCH  24  33
ATOM     25  C   UNL     1       4.164  -0.959   1.377  0.00  0.00    +0.116 A 
ATOM     26  N   UNL     1       4.905  -0.151   2.078  0.00  0.00    -0.232 NA
ATOM     27  C   UNL     1       5.125  -0.684   3.308  0.00  0.00    +0.089 A 
ATOM     28  C   UNL     1       5.835  -0.253   4.432  0.00  0.00    +0.030 A 
ATOM     29  C   UNL     1       5.873  -1.033   5.552  0.00  0.00    +0.002 A 
ATOM     30  C   UNL     1       5.215  -2.254   5.588  0.00  0.00    +0.002 A 
ATOM     31  C   UNL     1       4.509  -2.699   4.491  0.00  0.00    +0.028 A 
ATOM     32  C   UNL     1       4.458  -1.920   3.343  0.00  0.00    +0.069 A 
ATOM     33  N   UNL     1       3.854  -2.063   2.110  0.00  0.00    -0.318 N 
BRANCH  25  34
ATOM     34  C   UNL     1       3.711  -0.707  -0.038  0.00  0.00    +0.109 C 
BRANCH  34  38
ATOM     35  C   UNL     1      -0.017   1.378   0.010  0.00  0.00    +0.000 A 
ATOM     36  C   UNL     1       1.171   2.086   0.002  0.00  0.00    +0.000 A 
ATOM     37  C   UNL     1       2.377   1.411  -0.013  0.00  0.00    +0.004 A 
ATOM     38  C   UNL     1       2.396   0.029  -0.020  0.00  0.00    -0.040 A 
ATOM     39  C   UNL     1       1.208  -0.679  -0.012  0.00  0.00    +0.004 A 
ATOM     40  C   UNL     1       0.002  -0.004   0.002  0.00  0.00    +0.000 A 
ENDBRANCH  34  38
ENDBRANCH  25  34
ENDBRANCH  24  33
ENDBRANCH   1  24
TORSDOF 7
