REMARK  Name = ZINC39492729
REMARK  12 active torsions:
REMARK  status: ('A' for Active; 'I' for Inactive)
REMARK    1  A    between atoms: C_1  and  C_2
REMARK    2  A    between atoms: C_2  and  C_3
REMARK    3  A    between atoms: N_5  and  C_6
REMARK    4  A    between atoms: C_6  and  C_8
REMARK    5  A    between atoms: C_6  and  C_14
REMARK    6  A    between atoms: C_14  and  C_16
REMARK    7  A    between atoms: C_14  and  C_23
REMARK    8  A    between atoms: C_21  and  O_22
REMARK    9  A    between atoms: C_23  and  C_25
REMARK   10  A    between atoms: C_25  and  C_26
REMARK   11  A    between atoms: C_26  and  C_27
REMARK   12  A    between atoms: C_26  and  C_28
REMARK                            x       y       z     vdW  Elec       q    Type
REMARK                         _______ _______ _______ _____ _____    ______ ____
ROOT
ATOM      1  C   UNL     1       2.177  -3.682  -2.499  0.00  0.00    +0.113 C 
ENDROOT
BRANCH   1   2
ATOM      2  C   UNL     1       1.110  -4.745  -2.456  0.00  0.00    +0.006 A 
ATOM      3  C   UNL     1       0.326  -4.982  -3.569  0.00  0.00    +0.008 A 
ATOM      4  C   UNL     1      -0.654  -5.957  -3.530  0.00  0.00    +0.001 A 
ATOM      5  C   UNL     1      -0.851  -6.697  -2.379  0.00  0.00    +0.004 A 
ATOM      6  C   UNL     1      -0.069  -6.464  -1.264  0.00  0.00    +0.046 A 
ATOM      7  C   UNL     1       0.918  -5.490  -1.302  0.00  0.00    +0.121 A 
BRANCH   7   8
ATOM      8  O   UNL     1       1.693  -5.263  -0.209  0.00  0.00    -0.506 OA
ATOM      9  H   UNL     1       1.334  -4.599   0.397  0.00  0.00    +0.292 HD
ENDBRANCH   7   8
ENDBRANCH   1   2
BRANCH   1  10
ATOM     10  C   UNL     1       3.122  -3.963  -3.639  0.00  0.00    +0.143 C 
ATOM     11  O   UNL     1       2.953  -3.430  -4.709  0.00  0.00    -0.297 OA
BRANCH  10  12
ATOM     12  C   UNL     1       4.277  -4.911  -3.444  0.00  0.00    +0.078 C 
BRANCH  12  13
ATOM     13  C   UNL     1       5.074  -5.019  -4.746  0.00  0.00    -0.010 C 
ATOM     14  C   UNL     1       5.710  -3.666  -5.068  0.00  0.00    +0.007 C 
ATOM     15  C   UNL     1       6.170  -6.074  -4.586  0.00  0.00    +0.007 C 
ENDBRANCH  12  13
ENDBRANCH  10  12
ENDBRANCH   1  10
BRANCH   1  16
ATOM     16  C   UNL     1       1.525  -2.313  -2.703  0.00  0.00    +0.118 C 
BRANCH  16  17
ATOM     17  C   UNL     1       0.623  -2.007  -1.536  0.00  0.00    -0.026 A 
ATOM     18  C   UNL     1       1.167  -1.651  -0.316  0.00  0.00    +0.005 A 
ATOM     19  C   UNL     1       0.339  -1.370   0.755  0.00  0.00    +0.000 A 
ATOM     20  C   UNL     1      -1.034  -1.446   0.605  0.00  0.00    +0.000 A 
ATOM     21  C   UNL     1      -1.578  -1.801  -0.615  0.00  0.00    +0.000 A 
ATOM     22  C   UNL     1      -0.750  -2.077  -1.687  0.00  0.00    +0.005 A 
ENDBRANCH  16  17
BRANCH  16  25
ATOM     23  C   UNL     1       2.319  -0.135  -3.456  0.00  0.00    +0.213 C 
ATOM     24  O   UNL     1       1.236   0.049  -3.970  0.00  0.00    -0.276 OA
ATOM     25  N   UNL     1       2.566  -1.286  -2.798  0.00  0.00    -0.307 N 
ATOM     26  H   UNL     1       3.432  -1.433  -2.387  0.00  0.00    +0.149 HD
BRANCH  23  28
ATOM     27  C   UNL     1       2.856   2.116  -4.345  0.00  0.00    +0.013 C 
ATOM     28  C   UNL     1       3.390   0.921  -3.553  0.00  0.00    +0.092 C 
ENDBRANCH  23  28
ENDBRANCH  16  25
ENDBRANCH   1  16
TORSDOF 9
