REMARK  Name = ZINC04150835
REMARK  5 active torsions:
REMARK  status: ('A' for Active; 'I' for Inactive)
REMARK    1  A    between atoms: C_6  and  C_7
REMARK    2  A    between atoms: C_23  and  C_24
REMARK    3  A    between atoms: C_23  and  N_58
REMARK    4  A    between atoms: C_24  and  C_26
REMARK    5  A    between atoms: C_24  and  O_28
REMARK                            x       y       z     vdW  Elec       q    Type
REMARK                         _______ _______ _______ _____ _____    ______ ____
ROOT
ATOM      1  C   UNL     1       1.159   1.812   0.001  0.00  0.00    +0.006 A 
ATOM      2  C   UNL     1      -0.013   1.076   0.008  0.00  0.00    +0.027 A 
ATOM      3  C   UNL     1      -1.211   1.785   0.017  0.00  0.00    +0.049 A 
ATOM      4  C   UNL     1      -1.206   3.212   0.034  0.00  0.00    +0.003 A 
ATOM      5  C   UNL     1      -0.004   3.926   0.025  0.00  0.00    +0.014 A 
ATOM      6  C   UNL     1       1.159   3.197   0.008  0.00  0.00    -0.044 A 
ATOM      7  C   UNL     1      -2.586   3.615   0.057  0.00  0.00    -0.020 A 
ATOM      8  C   UNL     1      -3.315   2.481   0.048  0.00  0.00    +0.009 A 
ATOM      9  N   UNL     1      -2.511   1.377   0.011  0.00  0.00    -0.347 N 
ATOM     10  C   UNL     1      -3.080   0.021  -0.046  0.00  0.00    +0.103 C 
ATOM     11  C   UNL     1      -4.560   0.107   0.346  0.00  0.00    -0.056 C 
ATOM     12  C   UNL     1      -4.827   2.502   0.069  0.00  0.00    -0.020 C 
ATOM     13  C   UNL     1      -5.304   3.584  -0.861  0.00  0.00    -0.009 C 
ATOM     14  C   UNL     1      -4.498   4.860  -0.881  0.00  0.00    +0.003 C 
ATOM     15  C   UNL     1      -3.301   4.937   0.056  0.00  0.00    +0.037 C 
ATOM     16  N   UNL     1      -5.243   1.165  -0.428  0.00  0.00    +0.388 N 
ATOM     17  H   UNL     1      -4.979   1.079  -1.417  0.00  0.00    -0.081 HD
ENDROOT
BRANCH   6  18
ATOM     18  C   UNL     1       2.478   3.926  -0.002  0.00  0.00    +0.019 C 
ATOM     19  C   UNL     1       3.260   3.549  -1.262  0.00  0.00    +0.008 C 
ATOM     20  C   UNL     1       4.598   4.290  -1.273  0.00  0.00    +0.001 C 
ATOM     21  C   UNL     1       5.407   3.899  -0.034  0.00  0.00    +0.000 C 
ATOM     22  C   UNL     1       4.625   4.277   1.226  0.00  0.00    +0.001 C 
ATOM     23  C   UNL     1       3.286   3.536   1.236  0.00  0.00    +0.008 C 
ENDBRANCH   6  18
BRANCH  16  24
ATOM     24  C   UNL     1      -6.709   1.014  -0.308  0.00  0.00    -0.045 C 
BRANCH  24  25
ATOM     25  C   UNL     1      -7.134  -0.267  -1.028  0.00  0.00    +0.113 C 
BRANCH  25  26
ATOM     26  C   UNL     1      -8.653  -0.427  -0.929  0.00  0.00    +0.138 C 
ATOM     27 CL   UNL     1      -9.139  -2.007  -1.648  0.00  0.00    -0.123 Cl
ENDBRANCH  25  26
BRANCH  25  28
ATOM     28  O   UNL     1      -6.752  -0.191  -2.402  0.00  0.00    -0.392 OA
ATOM     29  H   UNL     1      -7.148   0.550  -2.880  0.00  0.00    +0.210 HD
ENDBRANCH  25  28
ENDBRANCH  24  25
ENDBRANCH  16  24
TORSDOF 5
