REMARK  Name = ZINC12564951
REMARK  6 active torsions:
REMARK  status: ('A' for Active; 'I' for Inactive)
REMARK    1  A    between atoms: C_3  and  C_6
REMARK    2  A    between atoms: C_6  and  N_50
REMARK    3  A    between atoms: C_9  and  C_22
REMARK    4  A    between atoms: C_9  and  O_29
REMARK    5  A    between atoms: C_10  and  C_13
REMARK    6  A    between atoms: C_13  and  C_15
REMARK                            x       y       z     vdW  Elec       q    Type
REMARK                         _______ _______ _______ _____ _____    ______ ____
ROOT
ATOM      1  C   UNL     1       2.022  -5.257   1.616  0.00  0.00    -0.075 C 
ATOM      2  C   UNL     1       1.471  -5.173   0.191  0.00  0.00    +0.022 C 
ATOM      3  C   UNL     1       2.381  -4.272  -0.651  0.00  0.00    +0.097 C 
ATOM      4  C   UNL     1       2.466  -2.892   0.005  0.00  0.00    +0.080 C 
ATOM      5  C   UNL     1       2.987  -3.042   1.436  0.00  0.00    -0.064 C 
ATOM      6  N   UNL     1       2.055  -3.899   2.199  0.00  0.00    +0.385 N 
ATOM      7  H   UNL     1       1.113  -3.493   2.150  0.00  0.00    -0.081 HD
ENDROOT
BRANCH   3   8
ATOM      8  C   UNL     1       1.812  -4.136  -2.039  0.00  0.00    -0.015 A 
ATOM      9  C   UNL     1       0.446  -4.021  -2.218  0.00  0.00    +0.008 A 
ATOM     10  C   UNL     1      -0.076  -3.891  -3.491  0.00  0.00    +0.020 A 
ATOM     11  C   UNL     1       0.768  -3.886  -4.588  0.00  0.00    +0.041 A 
ATOM     12  C   UNL     1       2.134  -4.007  -4.409  0.00  0.00    +0.020 A 
ATOM     13  C   UNL     1       2.656  -4.131  -3.135  0.00  0.00    +0.008 A 
ATOM     14 CL   UNL     1       0.112  -3.729  -6.187  0.00  0.00    -0.084 Cl
ENDBRANCH   3   8
BRANCH   4  15
ATOM     15  C   UNL     1       1.097  -2.263   0.033  0.00  0.00    +0.167 C 
ATOM     16  O   UNL     1       0.328  -2.523   0.933  0.00  0.00    -0.292 OA
BRANCH  15  17
ATOM     17  C   UNL     1       0.693  -1.333  -1.033  0.00  0.00    +0.018 A 
ATOM     18  C   UNL     1      -0.577  -0.747  -1.011  0.00  0.00    +0.013 A 
ATOM     19  C   UNL     1      -0.949   0.123  -2.013  0.00  0.00    +0.020 A 
ATOM     20  C   UNL     1      -0.067   0.419  -3.041  0.00  0.00    +0.041 A 
ATOM     21  C   UNL     1       1.193  -0.157  -3.069  0.00  0.00    +0.020 A 
ATOM     22  C   UNL     1       1.578  -1.030  -2.074  0.00  0.00    +0.013 A 
ATOM     23 CL   UNL     1      -0.543   1.517  -4.298  0.00  0.00    -0.084 Cl
ENDBRANCH  15  17
ENDBRANCH   4  15
BRANCH   3  24
ATOM     24  O   UNL     1       3.687  -4.848  -0.723  0.00  0.00    -0.383 OA
ATOM     25  H   UNL     1       3.709  -5.725  -1.129  0.00  0.00    +0.211 HD
ENDBRANCH   3  24
BRANCH   6  26
ATOM     26  C   UNL     1       2.475  -3.967   3.614  0.00  0.00    -0.003 C 
BRANCH  26  29
ATOM     27  C   UNL     1       1.028  -6.987   5.152  0.00  0.00    +0.041 A 
ATOM     28  C   UNL     1       2.051  -6.336   4.426  0.00  0.00    +0.042 A 
ATOM     29  C   UNL     1       1.688  -5.046   4.311  0.00  0.00    +0.089 A 
ATOM     30  O   UNL     1       0.501  -4.884   4.919  0.00  0.00    -0.470 OA
ATOM     31  C   UNL     1       0.096  -6.058   5.431  0.00  0.00    +0.195 A 
ENDBRANCH  26  29
ENDBRANCH   6  26
TORSDOF 6
