REMARK  Name = ZINC20205582
REMARK  11 active torsions:
REMARK  status: ('A' for Active; 'I' for Inactive)
REMARK    1  A    between atoms: C_1  and  C_2
REMARK    2  A    between atoms: C_2  and  S_3
REMARK    3  A    between atoms: S_3  and  C_4
REMARK    4  A    between atoms: C_12  and  C_13
REMARK    5  A    between atoms: C_16  and  O_19
REMARK    6  A    between atoms: O_19  and  C_20
REMARK    7  A    between atoms: C_20  and  C_21
REMARK    8  A    between atoms: C_21  and  O_22
REMARK    9  A    between atoms: O_22  and  C_23
REMARK   10  A    between atoms: C_26  and  O_29
REMARK   11  A    between atoms: O_29  and  C_30
REMARK                            x       y       z     vdW  Elec       q    Type
REMARK                         _______ _______ _______ _____ _____    ______ ____
ROOT
ATOM      1  C   UNL     1      -7.052  -4.530  -1.424  0.00  0.00    -0.024 A 
ATOM      2  C   UNL     1      -6.787  -5.891  -1.211  0.00  0.00    +0.011 A 
ATOM      3  C   UNL     1      -7.701  -6.834  -1.604  0.00  0.00    +0.046 A 
ATOM      4  C   UNL     1      -8.890  -6.444  -2.212  0.00  0.00    +0.121 A 
ATOM      5  C   UNL     1      -9.158  -5.096  -2.426  0.00  0.00    +0.046 A 
ATOM      6  C   UNL     1      -8.255  -4.143  -2.033  0.00  0.00    +0.011 A 
ENDROOT
BRANCH   1  15
ATOM      7  C   UNL     1      -5.271   1.228  -1.186  0.00  0.00    +0.175 C 
ATOM      8  N   UNL     1      -5.716   2.291  -1.799  0.00  0.00    -0.185 NA
ATOM      9  S   UNL     1      -6.520   1.688  -3.140  0.00  0.00    +0.048 S 
ATOM     10  C   UNL     1      -6.319   0.056  -2.870  0.00  0.00    +0.183 C 
ATOM     11  N   UNL     1      -6.769  -0.977  -3.548  0.00  0.00    -0.152 NA
ATOM     12  C   UNL     1      -6.529  -2.222  -3.097  0.00  0.00    +0.273 C 
ATOM     13  O   UNL     1      -6.819  -3.197  -3.771  0.00  0.00    -0.268 OA
ATOM     14  C   UNL     1      -5.904  -2.380  -1.761  0.00  0.00    +0.079 C 
ATOM     15  C   UNL     1      -6.080  -3.518  -1.006  0.00  0.00    +0.024 C 
ATOM     16  C   UNL     1      -5.073  -1.238  -1.281  0.00  0.00    +0.137 C 
ATOM     17  N   UNL     1      -4.023  -1.383  -0.520  0.00  0.00    -0.284 NA
ATOM     18  N   UNL     1      -5.532   0.015  -1.736  0.00  0.00    -0.211 N 
ATOM     19  H   UNL     1      -3.747  -2.269  -0.238  0.00  0.00    +0.188 HD
BRANCH   7  20
ATOM     20  S   UNL     1      -4.352   1.364   0.311  0.00  0.00    -0.089 S 
BRANCH  20  22
ATOM     21  C   UNL     1      -3.497   3.413   1.908  0.00  0.00    +0.016 C 
ATOM     22  C   UNL     1      -4.279   3.150   0.620  0.00  0.00    +0.074 C 
ENDBRANCH  20  22
ENDBRANCH   7  20
ENDBRANCH   1  15
BRANCH   4  23
ATOM     23  O   UNL     1      -9.790  -7.382  -2.600  0.00  0.00    -0.489 OA
BRANCH  23  24
ATOM     24  C   UNL     1     -10.990  -6.913  -3.219  0.00  0.00    +0.270 C 
BRANCH  24  25
ATOM     25  C   UNL     1     -11.876  -8.106  -3.583  0.00  0.00    +0.270 C 
BRANCH  25  26
ATOM     26  O   UNL     1     -12.300  -8.767  -2.389  0.00  0.00    -0.489 OA
BRANCH  26  27
ATOM     27  C   UNL     1     -13.100  -9.857  -2.538  0.00  0.00    +0.121 A 
ATOM     28  C   UNL     1     -13.463 -10.282  -3.807  0.00  0.00    +0.049 A 
ATOM     29  C   UNL     1     -14.276 -11.389  -3.957  0.00  0.00    +0.049 A 
ATOM     30  C   UNL     1     -14.728 -12.075  -2.840  0.00  0.00    +0.120 A 
ATOM     31  C   UNL     1     -14.364 -11.649  -1.571  0.00  0.00    +0.049 A 
ATOM     32  C   UNL     1     -13.548 -10.545  -1.420  0.00  0.00    +0.049 A 
BRANCH  30  33
ATOM     33  O   UNL     1     -15.529 -13.164  -2.988  0.00  0.00    -0.495 OA
ATOM     34  C   UNL     1     -15.957 -13.822  -1.794  0.00  0.00    +0.277 C 
ENDBRANCH  30  33
ENDBRANCH  26  27
ENDBRANCH  25  26
ENDBRANCH  24  25
ENDBRANCH  23  24
ENDBRANCH   4  23
TORSDOF 9
