REMARK  Name = ZINC13499044
REMARK  11 active torsions:
REMARK  status: ('A' for Active; 'I' for Inactive)
REMARK    1  A    between atoms: C_1  and  C_2
REMARK    2  A    between atoms: C_4  and  C_36
REMARK    3  A    between atoms: C_7  and  C_14
REMARK    4  A    between atoms: C_14  and  N_75
REMARK    5  A    between atoms: C_15  and  N_75
REMARK    6  A    between atoms: C_20  and  C_22
REMARK    7  A    between atoms: C_20  and  C_33
REMARK    8  A    between atoms: C_20  and  N_75
REMARK    9  A    between atoms: N_26  and  C_27
REMARK   10  A    between atoms: C_33  and  C_34
REMARK   11  A    between atoms: C_33  and  C_35
REMARK                            x       y       z     vdW  Elec       q    Type
REMARK                         _______ _______ _______ _____ _____    ______ ____
ROOT
ATOM      1  N   UNL     1       0.444   1.182  -0.274  0.00  0.00    +0.391 N 
ATOM      2  H   UNL     1       0.599   0.941   0.712  0.00  0.00    -0.080 HD
ENDROOT
BRANCH   1   3
ATOM      3  C   UNL     1      -0.592   2.234  -0.354  0.00  0.00    -0.067 C 
ATOM      4  C   UNL     1      -0.172   3.434   0.519  0.00  0.00    -0.015 C 
ATOM      5  C   UNL     1      -1.498   3.922   1.155  0.00  0.00    -0.002 C 
ATOM      6  C   UNL     1      -2.247   2.598   1.443  0.00  0.00    -0.002 C 
ATOM      7  C   UNL     1      -1.911   1.702   0.233  0.00  0.00    -0.015 C 
ENDBRANCH   1   3
BRANCH   1   8
ATOM      8  C   UNL     1      -0.006  -0.026  -0.998  0.00  0.00    -0.036 C 
BRANCH   8  15
ATOM      9  C   UNL     1       2.835  -6.482   2.726  0.00  0.00    +0.044 C 
ATOM     10  C   UNL     1       2.111  -5.288   2.159  0.00  0.00    -0.048 A 
ATOM     11  C   UNL     1       0.853  -4.954   2.643  0.00  0.00    +0.007 A 
ATOM     12  C   UNL     1       0.179  -3.876   2.143  0.00  0.00    -0.041 A 
ATOM     13  C   UNL     1       0.761  -3.102   1.134  0.00  0.00    +0.002 A 
ATOM     14  C   UNL     1       0.070  -1.937   0.579  0.00  0.00    +0.017 A 
ATOM     15  C   UNL     1       0.681  -1.227  -0.402  0.00  0.00    +0.001 A 
ATOM     16  C   UNL     1       1.960  -1.606  -0.861  0.00  0.00    +0.251 A 
ATOM     17  O   UNL     1       2.494  -0.951  -1.740  0.00  0.00    -0.268 OA
ATOM     18  N   UNL     1       2.606  -2.671  -0.354  0.00  0.00    -0.322 N 
ATOM     19  H   UNL     1       3.484  -2.904  -0.693  0.00  0.00    +0.169 HD
ATOM     20  C   UNL     1       2.037  -3.437   0.641  0.00  0.00    +0.050 A 
ATOM     21  C   UNL     1       2.704  -4.539   1.166  0.00  0.00    +0.029 A 
ATOM     22  C   UNL     1      -1.185  -3.522   2.676  0.00  0.00    +0.044 C 
ENDBRANCH   8  15
ENDBRANCH   1   8
BRANCH   1  23
ATOM     23  C   UNL     1       1.711   1.676  -0.853  0.00  0.00    +0.006 C 
BRANCH  23  24
ATOM     24  C   UNL     1       1.441   2.503  -2.083  0.00  0.00    +0.139 A 
ATOM     25  N   UNL     1       0.572   3.478  -2.196  0.00  0.00    -0.115 NA
ATOM     26  N   UNL     1       0.639   3.934  -3.399  0.00  0.00    -0.023 NA
ATOM     27  N   UNL     1       1.528   3.275  -4.057  0.00  0.00    -0.044 NA
ATOM     28  N   UNL     1       2.048   2.387  -3.279  0.00  0.00    -0.228 N 
BRANCH  28  29
ATOM     29  C   UNL     1       3.100   1.431  -3.632  0.00  0.00    +0.111 C 
ATOM     30  C   UNL     1       4.357   2.190  -4.060  0.00  0.00    +0.027 C 
ATOM     31  C   UNL     1       5.456   1.191  -4.429  0.00  0.00    +0.002 C 
ATOM     32  C   UNL     1       4.976   0.307  -5.582  0.00  0.00    +0.000 C 
ATOM     33  C   UNL     1       3.719  -0.453  -5.153  0.00  0.00    +0.002 C 
ATOM     34  C   UNL     1       2.620   0.547  -4.785  0.00  0.00    +0.027 C 
ENDBRANCH  28  29
ENDBRANCH  23  24
BRANCH  23  35
ATOM     35  C   UNL     1       2.425   2.535   0.192  0.00  0.00    -0.024 C 
ATOM     36  C   UNL     1       2.560   1.745   1.496  0.00  0.00    +0.006 C 
ATOM     37  C   UNL     1       3.815   2.913  -0.322  0.00  0.00    +0.006 C 
ENDBRANCH  23  35
ENDBRANCH   1  23
TORSDOF 7
