REMARK  Name = ZINC04735894
REMARK  7 active torsions:
REMARK  status: ('A' for Active; 'I' for Inactive)
REMARK    1  A    between atoms: C_1  and  C_2
REMARK    2  A    between atoms: C_11  and  S_13
REMARK    3  A    between atoms: S_13  and  C_14
REMARK    4  A    between atoms: C_14  and  C_15
REMARK    5  A    between atoms: N_17  and  C_18
REMARK    6  A    between atoms: C_23  and  O_24
REMARK    7  A    between atoms: O_24  and  C_25
REMARK                            x       y       z     vdW  Elec       q    Type
REMARK                         _______ _______ _______ _____ _____    ______ ____
ROOT
ATOM      1  C   UNL     1       3.626   6.011  -0.216  0.00  0.00    +0.173 C 
ENDROOT
BRANCH   1   2
ATOM      2  C   UNL     1       2.335   5.243  -0.094  0.00  0.00    +0.228 C 
ATOM      3  O   UNL     1       1.277   5.835  -0.081  0.00  0.00    -0.275 OA
ATOM      4  N   UNL     1       2.357   3.899   0.000  0.00  0.00    -0.282 N 
ATOM      5  H   UNL     1       3.204   3.431   0.070  0.00  0.00    +0.155 HD
BRANCH   4   6
ATOM      6  C   UNL     1       1.156   3.176  -0.003  0.00  0.00    +0.077 A 
ATOM      7  C   UNL     1       0.023   3.714  -0.596  0.00  0.00    +0.047 A 
ATOM      8  C   UNL     1      -1.161   2.999  -0.598  0.00  0.00    +0.043 A 
ATOM      9  C   UNL     1      -1.216   1.745  -0.015  0.00  0.00    +0.024 A 
ATOM     10  C   UNL     1      -0.092   1.207   0.583  0.00  0.00    +0.049 A 
ATOM     11  C   UNL     1       1.098   1.917   0.589  0.00  0.00    +0.141 A 
ATOM     12 CL   UNL     1      -2.578   3.673  -1.341  0.00  0.00    -0.083 Cl
BRANCH  11  13
ATOM     13  O   UNL     1       2.206   1.385   1.171  0.00  0.00    -0.493 OA
ATOM     14  C   UNL     1       2.072   0.089   1.758  0.00  0.00    +0.277 C 
ENDBRANCH  11  13
ENDBRANCH   4   6
ENDBRANCH   1   2
BRANCH   1  15
ATOM     15  S   UNL     1       3.267   7.782  -0.323  0.00  0.00    -0.078 S 
BRANCH  15  26
ATOM     16  C   UNL     1       9.325  11.166  -0.880  0.00  0.00    +0.045 C 
ATOM     17  C   UNL     1       8.876   9.733  -0.754  0.00  0.00    -0.029 A 
ATOM     18  C   UNL     1       9.777   8.740  -0.730  0.00  0.00    +0.051 A 
ATOM     19  S   UNL     1       8.773   7.275  -0.574  0.00  0.00    -0.077 S 
ATOM     20  C   UNL     1       7.172   8.039  -0.546  0.00  0.00    +0.116 A 
ATOM     21  C   UNL     1       7.463   9.412  -0.658  0.00  0.00    +0.075 A 
ATOM     22  C   UNL     1       6.332  10.289  -0.662  0.00  0.00    +0.261 A 
ATOM     23  O   UNL     1       6.487  11.494  -0.756  0.00  0.00    -0.267 OA
ATOM     24  N   UNL     1       5.097   9.766  -0.560  0.00  0.00    -0.301 N 
ATOM     25  H   UNL     1       4.328  10.357  -0.563  0.00  0.00    +0.171 HD
ATOM     26  C   UNL     1       4.905   8.418  -0.455  0.00  0.00    +0.170 A 
ATOM     27  N   UNL     1       5.928   7.588  -0.444  0.00  0.00    -0.216 NA
ENDBRANCH  15  26
ENDBRANCH   1  15
TORSDOF 5
