REMARK  Name = ZINC57830393
REMARK  4 active torsions:
REMARK  status: ('A' for Active; 'I' for Inactive)
REMARK    1  A    between atoms: N_9  and  C_16
REMARK    2  A    between atoms: C_10  and  C_12
REMARK    3  A    between atoms: C_16  and  C_17
REMARK    4  A    between atoms: C_17  and  C_18
REMARK                            x       y       z     vdW  Elec       q    Type
REMARK                         _______ _______ _______ _____ _____    ______ ____
ROOT
ATOM      1  C   UNL     1      -0.017   1.373   0.010  0.00  0.00    +0.071 A 
ATOM      2  C   UNL     1       1.187   2.084   0.002  0.00  0.00    +0.093 A 
ATOM      3  C   UNL     1       2.405   1.384  -0.013  0.00  0.00    +0.072 A 
ATOM      4  C   UNL     1       2.407  -0.004  -0.021  0.00  0.00    +0.069 A 
ATOM      5  C   UNL     1       1.211  -0.693  -0.013  0.00  0.00    +0.160 A 
ATOM      6  C   UNL     1       0.002  -0.004   0.002  0.00  0.00    +0.161 A 
ATOM      7  F   UNL     1      -1.161  -0.691   0.010  0.00  0.00    -0.202 F 
ATOM      8  F   UNL     1       1.214  -2.044  -0.021  0.00  0.00    -0.202 F 
ATOM      9  N   UNL     1       3.397   2.345  -0.018  0.00  0.00    -0.319 N 
ATOM     10  C   UNL     1       2.783   3.560  -0.006  0.00  0.00    +0.216 A 
ATOM     11  N   UNL     1       1.491   3.408   0.006  0.00  0.00    -0.224 NA
ENDROOT
BRANCH  10  12
ATOM     12  C   UNL     1       3.496   4.887  -0.006  0.00  0.00    +0.451 C 
ATOM     13  F   UNL     1       2.598   5.899   0.349  0.00  0.00    -0.163 F 
ATOM     14  F   UNL     1       4.547   4.852   0.917  0.00  0.00    -0.163 F 
ATOM     15  F   UNL     1       4.006   5.143  -1.283  0.00  0.00    -0.163 F 
ENDBRANCH  10  12
BRANCH   9  16
ATOM     16  C   UNL     1       4.841   2.102  -0.033  0.00  0.00    +0.138 C 
BRANCH  16  17
ATOM     17  C   UNL     1       5.331   2.025  -1.481  0.00  0.00    +0.140 C 
BRANCH  17  18
ATOM     18  C   UNL     1       6.782   1.780  -1.496  0.00  0.00    +0.064 C 
ATOM     19  N   UNL     1       7.902   1.592  -1.507  0.00  0.00    -0.197 NA
ENDBRANCH  17  18
ENDBRANCH  16  17
ENDBRANCH   9  16
TORSDOF 4
