REMARK  Name = ZINC13757598
REMARK  15 active torsions:
REMARK  status: ('A' for Active; 'I' for Inactive)
REMARK    1  A    between atoms: C_1  and  C_2
REMARK    2  A    between atoms: C_2  and  C_3
REMARK    3  A    between atoms: C_6  and  C_9
REMARK    4  A    between atoms: C_12  and  C_14
REMARK    5  A    between atoms: C_14  and  C_36
REMARK    6  A    between atoms: C_15  and  N_16
REMARK    7  A    between atoms: N_16  and  C_17
REMARK    8  A    between atoms: C_18  and  C_31
REMARK    9  A    between atoms: C_23  and  C_27
REMARK   10  A    between atoms: C_27  and  C_28
REMARK   11  A    between atoms: C_27  and  C_29
REMARK   12  A    between atoms: C_27  and  C_30
REMARK   13  A    between atoms: C_31  and  O_33
REMARK   14  A    between atoms: O_33  and  C_34
REMARK   15  A    between atoms: C_34  and  C_35
REMARK                            x       y       z     vdW  Elec       q    Type
REMARK                         _______ _______ _______ _____ _____    ______ ____
ROOT
ATOM      1  N   UNL     1     -10.166  -3.759   3.274  0.00  0.00    -0.313 N 
ATOM      2  H   UNL     1      -9.824  -3.632   4.173  0.00  0.00    +0.152 HD
ENDROOT
BRANCH   1   3
ATOM      3  C   UNL     1     -11.450  -4.234   3.084  0.00  0.00    +0.084 A 
ATOM      4  C   UNL     1     -12.387  -4.574   4.050  0.00  0.00    +0.091 A 
ATOM      5  C   UNL     1     -13.677  -5.052   3.583  0.00  0.00    -0.021 A 
ATOM      6  C   UNL     1     -13.795  -5.103   2.239  0.00  0.00    -0.004 A 
ATOM      7  S   UNL     1     -12.238  -4.526   1.629  0.00  0.00    -0.077 S 
ATOM      8  C   UNL     1     -14.992  -5.547   1.457  0.00  0.00    +0.046 C 
ATOM      9  C   UNL     1     -16.201  -5.581   2.404  0.00  0.00    -0.000 C 
ATOM     10  C   UNL     1     -15.806  -6.319   3.686  0.00  0.00    +0.009 C 
ATOM     11  C   UNL     1     -14.822  -5.471   4.494  0.00  0.00    +0.037 C 
BRANCH   9  12
ATOM     12  C   UNL     1     -17.363  -6.310   1.726  0.00  0.00    -0.035 C 
ATOM     13  C   UNL     1     -16.940  -7.742   1.390  0.00  0.00    +0.011 C 
ATOM     14  C   UNL     1     -18.566  -6.342   2.671  0.00  0.00    +0.011 C 
ATOM     15  C   UNL     1     -17.745  -5.576   0.439  0.00  0.00    +0.011 C 
ENDBRANCH   9  12
BRANCH   4  16
ATOM     16  C   UNL     1     -12.088  -4.456   5.478  0.00  0.00    +0.342 C 
ATOM     17  O   UNL     1     -12.328  -3.419   6.066  0.00  0.00    -0.245 OA
BRANCH  16  18
ATOM     18  O   UNL     1     -11.545  -5.498   6.142  0.00  0.00    -0.461 OA
BRANCH  18  19
ATOM     19  C   UNL     1     -11.279  -5.313   7.534  0.00  0.00    +0.229 C 
ATOM     20  C   UNL     1     -10.670  -6.592   8.111  0.00  0.00    +0.048 C 
ENDBRANCH  18  19
ENDBRANCH  16  18
ENDBRANCH   4  16
ENDBRANCH   1   3
BRANCH   1  22
ATOM     21  C   UNL     1      -8.112  -2.999   2.384  0.00  0.00    +0.098 C 
ATOM     22  C   UNL     1      -9.377  -3.468   2.196  0.00  0.00    +0.094 C 
BRANCH  21  26
ATOM     23  C   UNL     1      -5.401  -1.998   0.043  0.00  0.00    +0.079 A 
ATOM     24  C   UNL     1      -6.056  -2.241  -1.134  0.00  0.00    +0.075 A 
ATOM     25  S   UNL     1      -7.632  -2.823  -0.523  0.00  0.00    -0.074 S 
ATOM     26  C   UNL     1      -7.261  -2.685   1.220  0.00  0.00    +0.120 A 
ATOM     27  N   UNL     1      -6.017  -2.231   1.189  0.00  0.00    -0.238 NA
BRANCH  23  31
ATOM     28  C   UNL     1      -1.412  -0.526   0.013  0.00  0.00    -0.048 A 
ATOM     29  C   UNL     1      -2.049  -0.765   1.217  0.00  0.00    +0.004 A 
ATOM     30  C   UNL     1      -3.343  -1.243   1.233  0.00  0.00    +0.010 A 
ATOM     31  C   UNL     1      -4.009  -1.484   0.032  0.00  0.00    +0.001 A 
ATOM     32  C   UNL     1      -3.362  -1.241  -1.178  0.00  0.00    +0.010 A 
ATOM     33  C   UNL     1      -2.070  -0.758  -1.182  0.00  0.00    +0.004 A 
BRANCH  28  35
ATOM     34  C   UNL     1      -0.019   1.526   0.010  0.00  0.00    +0.009 C 
ATOM     35  C   UNL     1       0.002  -0.004   0.002  0.00  0.00    +0.032 C 
ENDBRANCH  28  35
ENDBRANCH  23  31
ENDBRANCH  21  26
BRANCH  21  36
ATOM     36  C   UNL     1      -7.607  -2.812   3.711  0.00  0.00    +0.103 C 
ATOM     37  N   UNL     1      -7.207  -2.663   4.763  0.00  0.00    -0.191 NA
ENDBRANCH  21  36
ENDBRANCH   1  22
TORSDOF 10
