REMARK  Name = ZINC09418339
REMARK  7 active torsions:
REMARK  status: ('A' for Active; 'I' for Inactive)
REMARK    1  A    between atoms: C_3  and  S_8
REMARK    2  A    between atoms: C_6  and  N_7
REMARK    3  A    between atoms: S_8  and  N_11
REMARK    4  A    between atoms: N_11  and  C_12
REMARK    5  A    between atoms: C_12  and  C_25
REMARK    6  A    between atoms: N_15  and  C_19
REMARK    7  A    between atoms: C_16  and  O_18
REMARK                            x       y       z     vdW  Elec       q    Type
REMARK                         _______ _______ _______ _____ _____    ______ ____
ROOT
ATOM      1  C   UNL     1       4.490   1.440   2.303  0.00  0.00    +0.306 C 
ATOM      2  C   UNL     1       4.732   1.854   3.741  0.00  0.00    +0.277 C 
ATOM      3  O   UNL     1       3.970   2.442   4.479  0.00  0.00    -0.271 OA
ATOM      4  N   UNL     1       5.981   1.427   4.023  0.00  0.00    -0.220 N 
ATOM      5  C   UNL     1       6.535   0.801   2.935  0.00  0.00    +0.287 C 
ATOM      6  N   UNL     1       5.741   0.770   1.914  0.00  0.00    -0.194 NA
ENDROOT
BRANCH   4   7
ATOM      7  C   UNL     1       6.653   1.607   5.312  0.00  0.00    +0.086 C 
ATOM      8  C   UNL     1       7.932   2.423   5.111  0.00  0.00    +0.023 C 
ATOM      9  C   UNL     1       8.634   2.611   6.457  0.00  0.00    +0.002 C 
ATOM     10  C   UNL     1       8.988   1.243   7.044  0.00  0.00    +0.000 C 
ATOM     11  C   UNL     1       7.709   0.428   7.245  0.00  0.00    +0.002 C 
ATOM     12  C   UNL     1       7.008   0.239   5.898  0.00  0.00    +0.023 C 
ENDBRANCH   4   7
BRANCH   1  13
ATOM     13  C   UNL     1       3.310   0.469   2.213  0.00  0.00    +0.438 C 
ATOM     14  F   UNL     1       3.088   0.129   0.874  0.00  0.00    -0.166 F 
ATOM     15  F   UNL     1       3.600  -0.687   2.946  0.00  0.00    -0.166 F 
ATOM     16  F   UNL     1       2.164   1.078   2.736  0.00  0.00    -0.166 F 
ENDBRANCH   1  13
BRANCH   1  17
ATOM     17  N   UNL     1       4.252   2.615   1.462  0.00  0.00    -0.147 NA
ATOM     18  H   UNL     1       3.413   2.709   0.985  0.00  0.00    +0.151 HD
BRANCH  17  19
ATOM     19  S   UNL     1       5.417   3.785   1.326  0.00  0.00    +0.061 S 
ATOM     20  O   UNL     1       5.877   4.055   2.643  0.00  0.00    -0.153 OA
ATOM     21  O   UNL     1       4.880   4.795   0.483  0.00  0.00    -0.153 OA
BRANCH  19  24
ATOM     22  C   UNL     1       7.811   2.450  -1.611  0.00  0.00    +0.024 A 
ATOM     23  C   UNL     1       6.749   3.008  -0.926  0.00  0.00    +0.030 A 
ATOM     24  C   UNL     1       6.772   3.071   0.455  0.00  0.00    +0.105 A 
ATOM     25  C   UNL     1       7.857   2.574   1.155  0.00  0.00    +0.030 A 
ATOM     26  C   UNL     1       8.921   2.015   0.476  0.00  0.00    +0.024 A 
ATOM     27  C   UNL     1       8.902   1.951  -0.911  0.00  0.00    +0.025 A 
BRANCH  27  28
ATOM     28  N   UNL     1       9.976   1.385  -1.601  0.00  0.00    -0.358 N 
ATOM     29  H   UNL     1       9.961   1.341  -2.570  0.00  0.00    +0.142 HD
ATOM     30  H   UNL     1      10.738   1.036  -1.111  0.00  0.00    +0.142 HD
ENDBRANCH  27  28
ENDBRANCH  19  24
ENDBRANCH  17  19
ENDBRANCH   1  17
BRANCH   5  31
ATOM     31  O   UNL     1       7.779   0.273   2.931  0.00  0.00    -0.481 OA
ATOM     32  H   UNL     1       8.029  -0.135   2.091  0.00  0.00    +0.295 HD
ENDBRANCH   5  31
TORSDOF 7
