REMARK  Name = ZINC41651663
REMARK  8 active torsions:
REMARK  status: ('A' for Active; 'I' for Inactive)
REMARK    1  A    between atoms: C_1  and  C_2
REMARK    2  A    between atoms: C_11  and  C_12
REMARK    3  A    between atoms: C_15  and  N_18
REMARK    4  A    between atoms: N_18  and  C_19
REMARK    5  A    between atoms: N_18  and  C_20
REMARK    6  A    between atoms: N_23  and  C_26
REMARK    7  A    between atoms: C_26  and  C_27
REMARK    8  A    between atoms: C_26  and  C_28
REMARK                            x       y       z     vdW  Elec       q    Type
REMARK                         _______ _______ _______ _____ _____    ______ ____
ROOT
ATOM      1  C   UNL     1       0.367   1.463  -0.008  0.00  0.00    +0.045 C 
ATOM      2  C   UNL     1       0.059  -0.012  -0.001  0.00  0.00    -0.033 A 
ATOM      3  C   UNL     1      -0.162  -0.670  -1.177  0.00  0.00    +0.050 A 
ATOM      4  C   UNL     1      -0.446  -2.035  -1.178  0.00  0.00    +0.131 A 
ATOM      5  C   UNL     1      -0.506  -2.739   0.013  0.00  0.00    +0.051 A 
ATOM      6  C   UNL     1      -0.286  -2.083   1.219  0.00  0.00    +0.148 A 
ATOM      7  C   UNL     1       0.005  -0.710   1.205  0.00  0.00    +0.071 A 
ATOM      8  C   UNL     1       0.194  -0.310   2.612  0.00  0.00    +0.232 C 
ATOM      9  O   UNL     1       0.458   0.799   3.043  0.00  0.00    -0.283 OA
ATOM     10  C   UNL     1      -0.007  -1.549   3.377  0.00  0.00    +0.176 C 
ATOM     11  C   UNL     1       0.068  -1.679   4.727  0.00  0.00    +0.058 C 
ATOM     12  O   UNL     1      -0.291  -2.534   2.493  0.00  0.00    -0.451 OA
ATOM     13  C   UNL     1      -0.803  -4.216   0.025  0.00  0.00    +0.130 C 
ATOM     14  N   UNL     1      -1.396  -4.610  -1.262  0.00  0.00    -0.264 NA
ATOM     15  C   UNL     1      -0.585  -4.088  -2.374  0.00  0.00    +0.319 C 
ATOM     16  O   UNL     1      -0.664  -2.661  -2.365  0.00  0.00    -0.476 OA
ENDROOT
BRANCH  11  17
ATOM     17  C   UNL     1      -0.018  -3.008   5.341  0.00  0.00    -0.021 A 
ATOM     18  C   UNL     1      -0.116  -3.134   6.734  0.00  0.00    +0.010 A 
ATOM     19  C   UNL     1      -0.197  -4.374   7.301  0.00  0.00    +0.023 A 
ATOM     20  C   UNL     1      -0.182  -5.512   6.499  0.00  0.00    +0.029 A 
ATOM     21  C   UNL     1      -0.086  -5.392   5.114  0.00  0.00    +0.023 A 
ATOM     22  C   UNL     1      -0.010  -4.156   4.537  0.00  0.00    +0.010 A 
BRANCH  20  23
ATOM     23  N   UNL     1      -0.265  -6.772   7.081  0.00  0.00    -0.336 N 
ATOM     24  C   UNL     1      -0.366  -6.901   8.537  0.00  0.00    +0.129 C 
ATOM     25  C   UNL     1      -0.250  -7.971   6.239  0.00  0.00    +0.129 C 
ENDBRANCH  20  23
ENDBRANCH  11  17
BRANCH  14  26
ATOM     26  C   UNL     1      -1.536  -6.069  -1.352  0.00  0.00    +0.054 C 
ATOM     27  C   UNL     1      -2.267  -6.432  -2.646  0.00  0.00    +0.024 C 
ATOM     28  C   UNL     1      -0.149  -6.716  -1.351  0.00  0.00    +0.024 C 
ENDBRANCH  14  26
TORSDOF 3
