REMARK  Name = ZINC02731350
REMARK  5 active torsions:
REMARK  status: ('A' for Active; 'I' for Inactive)
REMARK    1  A    between atoms: C_1  and  C_2
REMARK    2  A    between atoms: C_4  and  C_8
REMARK    3  A    between atoms: N_5  and  C_7
REMARK    4  A    between atoms: N_17  and  C_19
REMARK    5  A    between atoms: C_19  and  C_20
REMARK                            x       y       z     vdW  Elec       q    Type
REMARK                         _______ _______ _______ _____ _____    ______ ____
ROOT
ATOM      1  C   UNL     1       5.806   3.981  -0.030  0.00  0.00    +0.153 A 
ATOM      2  N   UNL     1       4.485   4.112  -0.017  0.00  0.00    -0.138 NA
ATOM      3  N   UNL     1       3.716   3.112  -0.022  0.00  0.00    -0.125 NA
ATOM      4  C   UNL     1       4.183   1.869  -0.027  0.00  0.00    +0.187 A 
ATOM      5  S   UNL     1       5.943   2.195  -0.041  0.00  0.00    -0.029 S 
ATOM      6  N   UNL     1       3.501   0.662  -0.027  0.00  0.00    -0.276 N 
ATOM      7  C   UNL     1       2.101   0.649  -0.015  0.00  0.00    +0.146 A 
ATOM      8  C   UNL     1       1.265   1.778  -0.001  0.00  0.00    +0.065 A 
ATOM      9  C   UNL     1      -0.016   1.345   0.009  0.00  0.00    +0.110 A 
ATOM     10  N   UNL     1       0.002  -0.004   0.002  0.00  0.00    -0.265 N 
ATOM     11  N   UNL     1       1.339  -0.420  -0.013  0.00  0.00    -0.156 NA
ATOM     12  H   UNL     1       4.059  -0.285  -0.037  0.00  0.00    +0.156 HD
ENDROOT
BRANCH   1  16
ATOM     13  C   UNL     1      10.341   6.265  -0.059  0.00  0.00    +0.069 C 
ATOM     14  C   UNL     1       8.852   6.034  -0.047  0.00  0.00    +0.075 A 
ATOM     15  C   UNL     1       8.222   4.790  -0.048  0.00  0.00    +0.068 A 
ATOM     16  C   UNL     1       6.860   5.010  -0.034  0.00  0.00    +0.110 A 
ATOM     17  N   UNL     1       6.673   6.363  -0.030  0.00  0.00    -0.263 N 
ATOM     18  N   UNL     1       7.935   6.969  -0.034  0.00  0.00    -0.175 NA
ATOM     19  C   UNL     1       5.382   7.056  -0.021  0.00  0.00    +0.173 C 
ATOM     20 BR   UNL     1       9.080   3.105  -0.064  0.00  0.00    -0.046 Br
ENDBRANCH   1  16
BRANCH  10  21
ATOM     21  C   UNL     1      -1.172  -0.881   0.008  0.00  0.00    +0.183 C 
BRANCH  21  22
ATOM     22  C   UNL     1      -1.097  -1.828  -1.162  0.00  0.00    +0.027 A 
ATOM     23  C   UNL     1      -0.469  -3.054  -1.021  0.00  0.00    +0.130 A 
ATOM     24  C   UNL     1      -0.402  -3.923  -2.096  0.00  0.00    +0.039 A 
ATOM     25  C   UNL     1      -0.962  -3.567  -3.309  0.00  0.00    +0.004 A 
ATOM     26  C   UNL     1      -1.589  -2.344  -3.449  0.00  0.00    +0.020 A 
ATOM     27  C   UNL     1      -1.661  -1.476  -2.374  0.00  0.00    +0.049 A 
ATOM     28 CL   UNL     1      -2.455   0.058  -2.549  0.00  0.00    -0.083 Cl
ATOM     29  F   UNL     1       0.077  -3.401   0.164  0.00  0.00    -0.205 F 
ENDBRANCH  21  22
ENDBRANCH  10  21
TORSDOF 3
