REMARK  Name = ZINC02372621
REMARK  5 active torsions:
REMARK  status: ('A' for Active; 'I' for Inactive)
REMARK    1  A    between atoms: C_4  and  C_7
REMARK    2  A    between atoms: C_7  and  C_12
REMARK    3  A    between atoms: N_13  and  N_14
REMARK    4  A    between atoms: C_15  and  C_17
REMARK    5  A    between atoms: C_17  and  C_18
REMARK                            x       y       z     vdW  Elec       q    Type
REMARK                         _______ _______ _______ _____ _____    ______ ____
ROOT
ATOM      1  N   UNL     1      -2.351  -2.265   1.678  0.00  0.00    -0.207 N 
ATOM      2  C   UNL     1      -2.355  -0.939   1.438  0.00  0.00    +0.237 C 
ATOM      3  O   UNL     1      -2.254  -0.156   2.359  0.00  0.00    -0.274 OA
ATOM      4  H   UNL     1      -2.432  -2.892   0.942  0.00  0.00    +0.177 HD
ENDROOT
BRANCH   1   6
ATOM      5  C   UNL     1      -2.227  -3.999   3.219  0.00  0.00    +0.117 C 
ATOM      6  N   UNL     1      -2.230  -2.740   2.991  0.00  0.00    -0.192 NA
BRANCH   5   7
ATOM      7  C   UNL     1      -2.097  -4.509   4.631  0.00  0.00    +0.068 C 
ATOM      8  C   UNL     1      -3.237  -5.370   5.178  0.00  0.00    +0.060 C 
ATOM      9  C   UNL     1      -3.052  -3.936   5.679  0.00  0.00    +0.134 C 
ATOM     10 CL   UNL     1      -2.416  -3.714   7.352  0.00  0.00    -0.100 Cl
ATOM     11 CL   UNL     1      -4.247  -2.702   5.131  0.00  0.00    -0.100 Cl
BRANCH   7  15
ATOM     12  C   UNL     1       1.873  -5.462   5.888  0.00  0.00    +0.000 A 
ATOM     13  C   UNL     1       1.657  -4.409   5.019  0.00  0.00    +0.000 A 
ATOM     14  C   UNL     1       0.373  -4.101   4.612  0.00  0.00    +0.004 A 
ATOM     15  C   UNL     1      -0.696  -4.846   5.074  0.00  0.00    -0.033 A 
ATOM     16  C   UNL     1      -0.481  -5.895   5.947  0.00  0.00    +0.004 A 
ATOM     17  C   UNL     1       0.804  -6.206   6.351  0.00  0.00    +0.000 A 
ENDBRANCH   7  15
ENDBRANCH   5   7
ENDBRANCH   1   6
BRANCH   2  18
ATOM     18  C   UNL     1      -2.485  -0.429   0.026  0.00  0.00    +0.133 C 
BRANCH  18  19
ATOM     19  C   UNL     1      -2.462   1.078   0.032  0.00  0.00    -0.031 A 
ATOM     20  C   UNL     1      -3.628   1.779   0.046  0.00  0.00    +0.005 A 
ATOM     21  C   UNL     1      -3.627   3.173   0.053  0.00  0.00    +0.001 A 
ATOM     22  C   UNL     1      -2.460   3.873   0.045  0.00  0.00    +0.008 A 
ATOM     23  C   UNL     1      -1.236   3.183   0.030  0.00  0.00    -0.018 A 
ATOM     24  C   UNL     1      -1.237   1.766   0.018  0.00  0.00    -0.014 A 
ATOM     25  C   UNL     1      -0.013   1.076   0.008  0.00  0.00    +0.009 A 
ATOM     26  C   UNL     1       1.155   1.776   0.001  0.00  0.00    +0.001 A 
ATOM     27  C   UNL     1       1.155   3.170   0.007  0.00  0.00    +0.001 A 
ATOM     28  C   UNL     1      -0.011   3.871   0.021  0.00  0.00    +0.008 A 
ENDBRANCH  18  19
ENDBRANCH   2  18
TORSDOF 5
