REMARK  Name = ZINC36045030
REMARK  12 active torsions:
REMARK  status: ('A' for Active; 'I' for Inactive)
REMARK    1  A    between atoms: C_1  and  C_2
REMARK    2  A    between atoms: C_2  and  C_3
REMARK    3  A    between atoms: N_5  and  C_6
REMARK    4  A    between atoms: N_5  and  C_10
REMARK    5  A    between atoms: C_6  and  C_7
REMARK    6  A    between atoms: C_7  and  O_8
REMARK    7  A    between atoms: O_8  and  C_9
REMARK    8  A    between atoms: C_10  and  C_11
REMARK    9  A    between atoms: C_16  and  C_27
REMARK   10  A    between atoms: N_18  and  C_19
REMARK   11  A    between atoms: C_22  and  C_26
REMARK   12  A    between atoms: C_23  and  C_25
REMARK                            x       y       z     vdW  Elec       q    Type
REMARK                         _______ _______ _______ _____ _____    ______ ____
ROOT
ATOM      1  C   UNL     1      -0.114  -3.119   1.407  0.00  0.00    +0.237 C 
ATOM      2  O   UNL     1      -0.711  -2.621   2.337  0.00  0.00    -0.274 OA
ATOM      3  N   UNL     1       0.907  -3.968   1.639  0.00  0.00    -0.254 N 
ATOM      4  C   UNL     1       1.275  -4.271   2.943  0.00  0.00    +0.207 A 
ATOM      5  N   UNL     1       0.706  -3.802   4.026  0.00  0.00    -0.214 NA
ATOM      6  C   UNL     1       1.325  -4.313   5.112  0.00  0.00    +0.091 A 
ATOM      7  C   UNL     1       2.319  -5.132   4.683  0.00  0.00    +0.122 A 
ATOM      8  N   UNL     1       2.286  -5.111   3.309  0.00  0.00    -0.287 N 
ATOM      9  H   UNL     1       1.385  -4.367   0.895  0.00  0.00    +0.158 HD
ENDROOT
BRANCH   8  10
ATOM     10  C   UNL     1       3.134  -5.817   2.446  0.00  0.00    +0.049 A 
ATOM     11  C   UNL     1       2.600  -6.568   1.406  0.00  0.00    +0.026 A 
ATOM     12  C   UNL     1       3.438  -7.263   0.557  0.00  0.00    +0.005 A 
ATOM     13  C   UNL     1       4.808  -7.213   0.741  0.00  0.00    -0.047 A 
ATOM     14  C   UNL     1       5.343  -6.467   1.775  0.00  0.00    -0.046 A 
ATOM     15  C   UNL     1       4.510  -5.764   2.624  0.00  0.00    +0.029 A 
ATOM     16  C   UNL     1       6.836  -6.415   1.973  0.00  0.00    +0.044 C 
ATOM     17  C   UNL     1       5.720  -7.973  -0.187  0.00  0.00    +0.044 C 
ENDBRANCH   8  10
BRANCH   6  18
ATOM     18  C   UNL     1       0.981  -4.029   6.526  0.00  0.00    +0.002 A 
ATOM     19  C   UNL     1       1.709  -4.621   7.556  0.00  0.00    +0.011 A 
ATOM     20  C   UNL     1       1.384  -4.353   8.870  0.00  0.00    +0.020 A 
ATOM     21  C   UNL     1       0.337  -3.497   9.166  0.00  0.00    +0.041 A 
ATOM     22  C   UNL     1      -0.390  -2.906   8.147  0.00  0.00    +0.020 A 
ATOM     23  C   UNL     1      -0.069  -3.164   6.830  0.00  0.00    +0.011 A 
ATOM     24 CL   UNL     1      -0.067  -3.165  10.822  0.00  0.00    -0.084 Cl
ENDBRANCH   6  18
BRANCH   1  25
ATOM     25  C   UNL     1      -0.514  -2.791  -0.008  0.00  0.00    +0.203 C 
BRANCH  25  28
ATOM     26  C   UNL     1      -1.412  -0.526   0.013  0.00  0.00    +0.216 C 
ATOM     27  O   UNL     1      -2.344   0.250   0.026  0.00  0.00    -0.276 OA
ATOM     28  N   UNL     1      -1.640  -1.854   0.008  0.00  0.00    -0.290 N 
BRANCH  26  30
ATOM     29  C   UNL     1      -0.019   1.526   0.010  0.00  0.00    +0.013 C 
ATOM     30  C   UNL     1       0.002  -0.004   0.002  0.00  0.00    +0.092 C 
ENDBRANCH  26  30
BRANCH  28  31
ATOM     31  C   UNL     1      -3.014  -2.361   0.018  0.00  0.00    +0.136 C 
BRANCH  31  32
ATOM     32  C   UNL     1      -3.507  -2.530  -1.421  0.00  0.00    +0.178 C 
BRANCH  32  33
ATOM     33  O   UNL     1      -2.736  -3.541  -2.072  0.00  0.00    -0.381 OA
ATOM     34  C   UNL     1      -3.116  -3.779  -3.429  0.00  0.00    +0.194 C 
ENDBRANCH  32  33
ENDBRANCH  31  32
ENDBRANCH  28  31
ENDBRANCH  25  28
ENDBRANCH   1  25
TORSDOF 8
