REMARK  Name = ZINC02553979
REMARK  2 active torsions:
REMARK  status: ('A' for Active; 'I' for Inactive)
REMARK    1  A    between atoms: C_13  and  C_15
REMARK    2  A    between atoms: C_19  and  C_21
REMARK                            x       y       z     vdW  Elec       q    Type
REMARK                         _______ _______ _______ _____ _____    ______ ____
ROOT
ATOM      1  C   UNL     1       4.329  -3.110  -2.912  0.00  0.00    +0.126 A 
ATOM      2  C   UNL     1       4.683  -2.301  -3.993  0.00  0.00    +0.033 A 
ATOM      3  C   UNL     1       5.012  -2.892  -5.202  0.00  0.00    +0.004 A 
ATOM      4  C   UNL     1       4.977  -4.274  -5.295  0.00  0.00    +0.033 A 
ATOM      5  C   UNL     1       4.614  -5.024  -4.176  0.00  0.00    +0.126 A 
ATOM      6  N   UNL     1       4.311  -4.429  -3.033  0.00  0.00    -0.237 NA
ENDROOT
BRANCH   1  17
ATOM      7  C   UNL     1      -0.017   1.377   0.010  0.00  0.00    +0.000 A 
ATOM      8  C   UNL     1       1.172   2.082   0.002  0.00  0.00    +0.000 A 
ATOM      9  C   UNL     1       2.375   1.405  -0.012  0.00  0.00    +0.006 A 
ATOM     10  C   UNL     1       2.397   0.019  -0.019  0.00  0.00    -0.016 A 
ATOM     11  C   UNL     1       1.208  -0.685  -0.013  0.00  0.00    -0.038 A 
ATOM     12  C   UNL     1       0.002  -0.004   0.002  0.00  0.00    +0.004 A 
ATOM     13  C   UNL     1       1.492  -2.171  -0.027  0.00  0.00    +0.082 C 
ATOM     14  C   UNL     1       2.968  -2.312   0.397  0.00  0.00    +0.208 C 
ATOM     15  C   UNL     1       3.566  -0.940  -0.032  0.00  0.00    +0.180 C 
ATOM     16  N   UNL     1       3.972  -1.207  -1.424  0.00  0.00    -0.237 NA
ATOM     17  C   UNL     1       3.976  -2.487  -1.615  0.00  0.00    +0.237 C 
ATOM     18  O   UNL     1       3.622  -3.224  -0.509  0.00  0.00    -0.469 OA
ENDBRANCH   1  17
BRANCH   5  19
ATOM     19  C   UNL     1       4.573  -6.503  -4.267  0.00  0.00    +0.237 C 
ATOM     20  N   UNL     1       4.866  -7.153  -5.347  0.00  0.00    -0.237 NA
ATOM     21  C   UNL     1       4.711  -8.595  -5.086  0.00  0.00    +0.180 C 
ATOM     22  C   UNL     1       3.799  -9.204  -6.126  0.00  0.00    -0.016 A 
ATOM     23  C   UNL     1       4.091  -9.733  -7.374  0.00  0.00    +0.006 A 
ATOM     24  C   UNL     1       3.083 -10.244  -8.167  0.00  0.00    +0.000 A 
ATOM     25  C   UNL     1       1.776 -10.229  -7.716  0.00  0.00    +0.000 A 
ATOM     26  C   UNL     1       1.483  -9.703  -6.473  0.00  0.00    +0.004 A 
ATOM     27  C   UNL     1       2.493  -9.190  -5.677  0.00  0.00    -0.038 A 
ATOM     28  C   UNL     1       2.431  -8.566  -4.300  0.00  0.00    +0.082 C 
ATOM     29  C   UNL     1       3.896  -8.595  -3.759  0.00  0.00    +0.208 C 
ATOM     30  O   UNL     1       4.232  -7.294  -3.229  0.00  0.00    -0.469 OA
ENDBRANCH   5  19
TORSDOF 2
