REMARK  Name = ZINC12585318
REMARK  7 active torsions:
REMARK  status: ('A' for Active; 'I' for Inactive)
REMARK    1  A    between atoms: C_1  and  C_2
REMARK    2  A    between atoms: C_2  and  C_24
REMARK    3  A    between atoms: N_3  and  N_4
REMARK    4  A    between atoms: C_5  and  C_7
REMARK    5  A    between atoms: C_7  and  N_8
REMARK    6  A    between atoms: N_11  and  S_14
REMARK    7  A    between atoms: S_14  and  C_17
REMARK                            x       y       z     vdW  Elec       q    Type
REMARK                         _______ _______ _______ _____ _____    ______ ____
ROOT
ATOM      1  N   UNL     1       0.070  -0.859   5.923  0.00  0.00    -0.291 NA
ATOM      2  C   UNL     1      -1.169  -1.647   5.964  0.00  0.00    +0.102 C 
ATOM      3  C   UNL     1      -1.032  -2.754   7.016  0.00  0.00    +0.125 C 
ATOM      4  N   UNL     1      -0.644  -2.138   8.294  0.00  0.00    -0.174 NA
ATOM      5  C   UNL     1       0.508  -1.224   8.305  0.00  0.00    +0.125 C 
ATOM      6  C   UNL     1       0.311  -0.178   7.202  0.00  0.00    +0.102 C 
ENDROOT
BRANCH   4   7
ATOM      7  S   UNL     1      -1.483  -2.465   9.684  0.00  0.00    +0.061 S 
ATOM      8  O   UNL     1      -1.264  -1.366  10.558  0.00  0.00    -0.153 OA
ATOM      9  O   UNL     1      -2.784  -2.875   9.286  0.00  0.00    -0.153 OA
BRANCH   7  10
ATOM     10  C   UNL     1      -0.721  -3.865  10.435  0.00  0.00    +0.106 A 
ATOM     11  C   UNL     1      -1.149  -5.140  10.113  0.00  0.00    +0.029 A 
ATOM     12  C   UNL     1      -0.551  -6.238  10.702  0.00  0.00    +0.017 A 
ATOM     13  C   UNL     1       0.476  -6.062  11.612  0.00  0.00    +0.018 A 
ATOM     14  C   UNL     1       0.903  -4.787  11.933  0.00  0.00    +0.017 A 
ATOM     15  C   UNL     1       0.309  -3.689  11.340  0.00  0.00    +0.029 A 
ATOM     16 BR   UNL     1       1.294  -7.565  12.418  0.00  0.00    -0.050 Br
ENDBRANCH   7  10
ENDBRANCH   4   7
BRANCH   1  17
ATOM     17  C   UNL     1       0.046   0.101   4.812  0.00  0.00    +0.182 C 
BRANCH  17  19
ATOM     18  N   UNL     1       0.024   0.035   2.339  0.00  0.00    -0.206 N 
ATOM     19  C   UNL     1       0.044  -0.645   3.503  0.00  0.00    +0.246 C 
ATOM     20  O   UNL     1       0.060  -1.858   3.496  0.00  0.00    -0.273 OA
ATOM     21  H   UNL     1       0.011   1.005   2.345  0.00  0.00    +0.177 HD
BRANCH  18  24
ATOM     22  C   UNL     1      -0.018   1.503   0.010  0.00  0.00    +0.068 C 
ATOM     23  C   UNL     1       0.002  -0.004   0.002  0.00  0.00    +0.063 C 
ATOM     24  N   UNL     1       0.022  -0.659   1.122  0.00  0.00    -0.185 NA
BRANCH  23  25
ATOM     25  C   UNL     1      -0.000  -0.735  -1.279  0.00  0.00    -0.002 A 
ATOM     26  C   UNL     1      -0.015  -0.033  -2.487  0.00  0.00    +0.011 A 
ATOM     27  C   UNL     1      -0.017  -0.722  -3.681  0.00  0.00    +0.020 A 
ATOM     28  C   UNL     1      -0.003  -2.106  -3.685  0.00  0.00    +0.041 A 
ATOM     29  C   UNL     1       0.011  -2.808  -2.492  0.00  0.00    +0.020 A 
ATOM     30  C   UNL     1       0.019  -2.131  -1.290  0.00  0.00    +0.011 A 
ATOM     31 CL   UNL     1      -0.005  -2.966  -5.194  0.00  0.00    -0.084 Cl
ENDBRANCH  23  25
ENDBRANCH  18  24
ENDBRANCH  17  19
ENDBRANCH   1  17
TORSDOF 6
