REMARK  Name = ZINC59890214
REMARK  9 active torsions:
REMARK  status: ('A' for Active; 'I' for Inactive)
REMARK    1  A    between atoms: C_1  and  C_2
REMARK    2  A    between atoms: C_2  and  C_4
REMARK    3  A    between atoms: C_2  and  N_13
REMARK    4  A    between atoms: C_4  and  O_5
REMARK    5  A    between atoms: O_5  and  C_6
REMARK    6  A    between atoms: C_14  and  C_16
REMARK    7  A    between atoms: C_16  and  C_17
REMARK    8  A    between atoms: C_17  and  C_18
REMARK    9  A    between atoms: C_18  and  C_19
REMARK                            x       y       z     vdW  Elec       q    Type
REMARK                         _______ _______ _______ _____ _____    ______ ____
ROOT
ATOM      1  N   UNL     1       0.711  -0.489   1.189  0.00  0.00    -0.309 N 
ATOM      2  C   UNL     1       0.051  -0.633   2.355  0.00  0.00    +0.213 C 
ATOM      3  O   UNL     1      -1.129  -0.361   2.423  0.00  0.00    -0.276 OA
ATOM      4  H   UNL     1       1.654  -0.707   1.135  0.00  0.00    +0.149 HD
ENDROOT
BRANCH   1   6
ATOM      5  C   UNL     1      -0.019   1.526   0.010  0.00  0.00    +0.031 C 
ATOM      6  C   UNL     1       0.002  -0.004   0.002  0.00  0.00    +0.107 C 
BRANCH   6   7
ATOM      7  C   UNL     1       0.718  -0.497  -1.257  0.00  0.00    +0.251 C 
BRANCH   7   8
ATOM      8  O   UNL     1       2.019   0.090  -1.326  0.00  0.00    -0.490 OA
BRANCH   8   9
ATOM      9  C   UNL     1       2.792  -0.246  -2.392  0.00  0.00    +0.123 A 
ATOM     10  C   UNL     1       2.306  -1.120  -3.354  0.00  0.00    +0.046 A 
ATOM     11  C   UNL     1       3.093  -1.461  -4.437  0.00  0.00    +0.006 A 
ATOM     12  C   UNL     1       4.364  -0.933  -4.564  0.00  0.00    +0.038 A 
ATOM     13  C   UNL     1       4.852  -0.061  -3.606  0.00  0.00    +0.127 A 
ATOM     14  C   UNL     1       4.065   0.288  -2.522  0.00  0.00    +0.084 A 
ATOM     15  F   UNL     1       6.095   0.453  -3.731  0.00  0.00    -0.205 F 
ENDBRANCH   8   9
ENDBRANCH   7   8
ENDBRANCH   6   7
ENDBRANCH   1   6
BRANCH   2  16
ATOM     16  C   UNL     1       0.780  -1.133   3.576  0.00  0.00    +0.096 C 
BRANCH  16  17
ATOM     17  C   UNL     1      -0.191  -1.204   4.756  0.00  0.00    +0.014 C 
BRANCH  17  18
ATOM     18  C   UNL     1       0.549  -1.711   5.996  0.00  0.00    +0.038 C 
BRANCH  18  19
ATOM     19  C   UNL     1      -0.407  -1.781   7.159  0.00  0.00    -0.022 A 
ATOM     20  C   UNL     1      -0.601  -0.835   8.092  0.00  0.00    +0.087 A 
ATOM     21  N   UNL     1      -1.547  -1.251   8.989  0.00  0.00    -0.360 N 
ATOM     22  H   UNL     1      -1.854  -0.738   9.752  0.00  0.00    +0.165 HD
ATOM     23  C   UNL     1      -1.996  -2.507   8.646  0.00  0.00    +0.047 A 
ATOM     24  C   UNL     1      -1.307  -2.891   7.481  0.00  0.00    +0.003 A 
ATOM     25  C   UNL     1      -1.567  -4.131   6.895  0.00  0.00    +0.010 A 
ATOM     26  C   UNL     1      -2.493  -4.965   7.455  0.00  0.00    +0.001 A 
ATOM     27  C   UNL     1      -3.178  -4.590   8.602  0.00  0.00    +0.002 A 
ATOM     28  C   UNL     1      -2.931  -3.374   9.202  0.00  0.00    +0.026 A 
ENDBRANCH  18  19
ENDBRANCH  17  18
ENDBRANCH  16  17
ENDBRANCH   2  16
TORSDOF 8
