REMARK  Name = ZINC18269559
REMARK  4 active torsions:
REMARK  status: ('A' for Active; 'I' for Inactive)
REMARK    1  A    between atoms: C_2  and  C_10
REMARK    2  A    between atoms: C_10  and  O_12
REMARK    3  A    between atoms: O_12  and  C_13
REMARK    4  A    between atoms: C_13  and  C_14
REMARK                            x       y       z     vdW  Elec       q    Type
REMARK                         _______ _______ _______ _____ _____    ______ ____
ROOT
ATOM      1  C   UNL     1      -2.102   7.703  -0.452  0.00  0.00    +0.170 A 
ATOM      2  N   UNL     1      -1.768   7.333   0.768  0.00  0.00    -0.214 NA
ATOM      3  C   UNL     1      -1.271   6.136   1.073  0.00  0.00    +0.128 A 
ATOM      4  C   UNL     1      -1.109   5.235  -0.019  0.00  0.00    +0.051 A 
ATOM      5  C   UNL     1      -0.593   3.878   0.032  0.00  0.00    -0.025 A 
ATOM      6  C   UNL     1      -0.530   3.208  -1.141  0.00  0.00    -0.004 A 
ATOM      7  S   UNL     1      -1.149   4.340  -2.360  0.00  0.00    -0.073 S 
ATOM      8  C   UNL     1      -1.491   5.708  -1.300  0.00  0.00    +0.114 A 
ATOM      9  N   UNL     1      -1.977   6.915  -1.512  0.00  0.00    -0.221 NA
ATOM     10  C   UNL     1      -0.042   1.809  -1.361  0.00  0.00    +0.043 C 
ATOM     11  C   UNL     1       0.729   1.359  -0.112  0.00  0.00    +0.005 C 
ATOM     12  C   UNL     1      -0.102   1.700   1.129  0.00  0.00    +0.005 C 
ATOM     13  C   UNL     1      -0.138   3.214   1.330  0.00  0.00    +0.037 C 
ATOM     14  N   UNL     1      -0.933   5.788   2.368  0.00  0.00    -0.343 N 
ATOM     15  H   UNL     1      -1.265   6.313   3.114  0.00  0.00    +0.144 HD
ATOM     16  H   UNL     1      -0.364   5.020   2.532  0.00  0.00    +0.144 HD
ENDROOT
BRANCH   1  17
ATOM     17  C   UNL     1      -2.654   9.091  -0.653  0.00  0.00    +0.308 C 
BRANCH  17  18
ATOM     18  O   UNL     1      -4.099   9.062  -0.515  0.00  0.00    -0.453 OA
BRANCH  18  19
ATOM     19  C   UNL     1      -4.751  10.232  -0.667  0.00  0.00    +0.341 C 
ATOM     20  O   UNL     1      -4.130  11.247  -0.909  0.00  0.00    -0.245 OA
BRANCH  19  22
ATOM     21  C   UNL     1      -6.938   9.112  -0.263  0.00  0.00    +0.057 A 
ATOM     22  C   UNL     1      -6.220  10.278  -0.541  0.00  0.00    +0.080 A 
ATOM     23  C   UNL     1      -6.899  11.491  -0.693  0.00  0.00    +0.058 A 
ATOM     24  C   UNL     1      -8.275  11.528  -0.577  0.00  0.00    +0.062 A 
ATOM     25  C   UNL     1      -8.981  10.369  -0.302  0.00  0.00    +0.160 A 
ATOM     26  C   UNL     1      -8.312   9.162  -0.145  0.00  0.00    +0.159 A 
ATOM     27  F   UNL     1      -9.007   8.035   0.123  0.00  0.00    -0.202 F 
ATOM     28  F   UNL     1     -10.326  10.412  -0.185  0.00  0.00    -0.202 F 
ATOM     29 CL   UNL     1      -6.016  12.946  -1.031  0.00  0.00    -0.083 Cl
ENDBRANCH  19  22
ENDBRANCH  18  19
ENDBRANCH  17  18
ENDBRANCH   1  17
TORSDOF 4
