REMARK  Name = ZINC57416069
REMARK  13 active torsions:
REMARK  status: ('A' for Active; 'I' for Inactive)
REMARK    1  A    between atoms: C_1  and  C_2
REMARK    2  A    between atoms: C_2  and  O_3
REMARK    3  A    between atoms: O_3  and  C_4
REMARK    4  A    between atoms: C_4  and  C_6
REMARK    5  A    between atoms: C_7  and  C_19
REMARK    6  A    between atoms: C_12  and  C_14
REMARK    7  A    between atoms: C_19  and  N_20
REMARK    8  A    between atoms: C_23  and  N_26
REMARK    9  A    between atoms: C_27  and  O_29
REMARK   10  A    between atoms: O_29  and  C_30
REMARK   11  A    between atoms: C_30  and  C_31
REMARK   12  A    between atoms: C_30  and  C_32
REMARK   13  A    between atoms: C_30  and  C_33
REMARK                            x       y       z     vdW  Elec       q    Type
REMARK                         _______ _______ _______ _____ _____    ______ ____
ROOT
ATOM      1  C   UNL     1      -2.795  -2.407   0.103  0.00  0.00    +0.080 C 
ATOM      2  C   UNL     1      -2.985  -3.731  -0.085  0.00  0.00    +0.038 C 
ATOM      3  N   UNL     1      -4.241  -4.259  -0.163  0.00  0.00    -0.271 N 
ATOM      4  C   UNL     1      -5.360  -3.530  -0.064  0.00  0.00    +0.304 C 
ATOM      5  O   UNL     1      -6.436  -4.090  -0.147  0.00  0.00    -0.252 OA
ATOM      6  N   UNL     1      -5.333  -2.196   0.124  0.00  0.00    -0.288 N 
ATOM      7  C   UNL     1      -4.024  -1.530   0.229  0.00  0.00    +0.150 C 
ATOM      8  H   UNL     1      -4.329  -5.215  -0.299  0.00  0.00    +0.156 HD
ATOM      9  H   UNL     1      -6.156  -1.687   0.193  0.00  0.00    +0.151 HD
ENDROOT
BRANCH   7  10
ATOM     10  C   UNL     1      -3.960  -0.828   1.562  0.00  0.00    +0.015 A 
ATOM     11  C   UNL     1      -3.571   0.440   1.841  0.00  0.00    +0.013 A 
ATOM     12  C   UNL     1      -3.594   0.874   3.153  0.00  0.00    +0.008 A 
ATOM     13  C   UNL     1      -4.005   0.019   4.122  0.00  0.00    +0.045 A 
ATOM     14  S   UNL     1      -4.383  -1.450   3.181  0.00  0.00    -0.099 S 
ENDBRANCH   7  10
BRANCH   1  15
ATOM     15  C   UNL     1      -1.494  -1.859   0.186  0.00  0.00    +0.339 C 
ATOM     16  O   UNL     1      -1.009  -1.603   1.272  0.00  0.00    -0.245 OA
BRANCH  15  17
ATOM     17  O   UNL     1      -0.790  -1.620  -0.941  0.00  0.00    -0.462 OA
BRANCH  17  19
ATOM     18  C   UNL     1       1.156  -0.866  -2.159  0.00  0.00    +0.048 C 
ATOM     19  C   UNL     1       0.518  -1.065  -0.783  0.00  0.00    +0.229 C 
ENDBRANCH  17  19
ENDBRANCH  15  17
ENDBRANCH   1  15
BRANCH   2  20
ATOM     20  C   UNL     1      -1.789  -4.640  -0.210  0.00  0.00    +0.135 C 
BRANCH  20  21
ATOM     21  N   UNL     1      -1.770  -5.582   0.917  0.00  0.00    -0.297 NA
ATOM     22  C   UNL     1      -1.549  -4.879   2.187  0.00  0.00    +0.086 C 
ATOM     23  C   UNL     1      -1.681  -5.867   3.349  0.00  0.00    +0.038 C 
ATOM     24  C   UNL     1      -0.651  -6.987   3.178  0.00  0.00    +0.079 C 
ATOM     25  C   UNL     1      -0.872  -7.672   1.826  0.00  0.00    +0.038 C 
ATOM     26  C   UNL     1      -0.765  -6.631   0.709  0.00  0.00    +0.086 C 
BRANCH  24  27
ATOM     27  N   UNL     1      -0.810  -7.967   4.255  0.00  0.00    -0.278 N 
ATOM     28  C   UNL     1       0.233  -8.736   4.627  0.00  0.00    +0.401 C 
ATOM     29  O   UNL     1       1.305  -8.616   4.069  0.00  0.00    -0.226 OA
ATOM     30  H   UNL     1      -1.667  -8.063   4.701  0.00  0.00    +0.152 HD
BRANCH  28  31
ATOM     31  O   UNL     1       0.086  -9.636   5.617  0.00  0.00    -0.445 OA
BRANCH  31  32
ATOM     32  C   UNL     1       1.233 -10.417   5.959  0.00  0.00    +0.107 C 
ATOM     33  C   UNL     1       2.364  -9.491   6.410  0.00  0.00    +0.055 C 
ATOM     34  C   UNL     1       0.876 -11.377   7.096  0.00  0.00    +0.055 C 
ATOM     35  C   UNL     1       1.687 -11.219   4.738  0.00  0.00    +0.055 C 
ENDBRANCH  31  32
ENDBRANCH  28  31
ENDBRANCH  24  27
ENDBRANCH  20  21
ENDBRANCH   2  20
TORSDOF 9
