REMARK  Name = ZINC07883979
REMARK  8 active torsions:
REMARK  status: ('A' for Active; 'I' for Inactive)
REMARK    1  A    between atoms: C_1  and  C_2
REMARK    2  A    between atoms: C_2  and  O_3
REMARK    3  A    between atoms: O_3  and  C_4
REMARK    4  A    between atoms: C_8  and  C_11
REMARK    5  A    between atoms: C_9  and  O_10
REMARK    6  A    between atoms: N_22  and  C_23
REMARK    7  A    between atoms: C_23  and  C_24
REMARK    8  A    between atoms: C_27  and  C_30
REMARK                            x       y       z     vdW  Elec       q    Type
REMARK                         _______ _______ _______ _____ _____    ______ ____
ROOT
ATOM      1  C   UNL     1      -3.776   1.477   2.152  0.00  0.00    +0.196 C 
ATOM      2  N   UNL     1      -4.453   0.595   3.110  0.00  0.00    -0.321 N 
ATOM      3  C   UNL     1      -3.701  -0.373   3.767  0.00  0.00    +0.041 A 
ATOM      4  C   UNL     1      -4.027  -0.817   5.037  0.00  0.00    +0.024 A 
ATOM      5  C   UNL     1      -3.244  -1.780   5.646  0.00  0.00    +0.002 A 
ATOM      6  C   UNL     1      -2.137  -2.303   4.996  0.00  0.00    +0.001 A 
ATOM      7  C   UNL     1      -1.800  -1.872   3.729  0.00  0.00    +0.015 A 
ATOM      8  C   UNL     1      -2.581  -0.904   3.103  0.00  0.00    +0.058 A 
ATOM      9  C   UNL     1      -2.275  -0.417   1.746  0.00  0.00    +0.250 C 
ATOM     10  O   UNL     1      -1.484  -1.015   1.042  0.00  0.00    -0.270 OA
ATOM     11  N   UNL     1      -2.879   0.702   1.295  0.00  0.00    -0.270 N 
ATOM     12  H   UNL     1      -5.403   0.685   3.282  0.00  0.00    +0.148 HD
ENDROOT
BRANCH   1  17
ATOM     13  C   UNL     1      -2.851   4.617   4.055  0.00  0.00    +0.162 A 
ATOM     14  C   UNL     1      -1.503   4.402   4.293  0.00  0.00    +0.049 A 
ATOM     15  C   UNL     1      -0.897   3.245   3.840  0.00  0.00    +0.004 A 
ATOM     16  C   UNL     1      -1.633   2.298   3.153  0.00  0.00    +0.011 A 
ATOM     17  C   UNL     1      -2.977   2.509   2.907  0.00  0.00    +0.036 A 
ATOM     18  C   UNL     1      -3.591   3.666   3.358  0.00  0.00    +0.165 A 
BRANCH  18  19
ATOM     19  O   UNL     1      -4.915   3.872   3.122  0.00  0.00    -0.503 OA
ATOM     20  H   UNL     1      -5.496   3.529   3.814  0.00  0.00    +0.292 HD
ENDBRANCH  18  19
BRANCH  13  21
ATOM     21  O   UNL     1      -3.449   5.754   4.500  0.00  0.00    -0.489 OA
BRANCH  21  23
ATOM     22  C   UNL     1      -3.469   7.893   5.625  0.00  0.00    +0.048 C 
ATOM     23  C   UNL     1      -2.628   6.685   5.207  0.00  0.00    +0.226 C 
ENDBRANCH  21  23
ENDBRANCH  13  21
ENDBRANCH   1  17
BRANCH  11  24
ATOM     24  C   UNL     1      -2.636   1.146  -0.080  0.00  0.00    +0.145 C 
BRANCH  24  25
ATOM     25  C   UNL     1      -1.506   2.143  -0.093  0.00  0.00    -0.030 A 
ATOM     26  C   UNL     1      -0.196   1.702  -0.139  0.00  0.00    +0.005 A 
ATOM     27  C   UNL     1       0.841   2.617  -0.157  0.00  0.00    +0.003 A 
ATOM     28  C   UNL     1       0.568   3.971  -0.124  0.00  0.00    -0.050 A 
ATOM     29  C   UNL     1      -0.741   4.412  -0.074  0.00  0.00    +0.003 A 
ATOM     30  C   UNL     1      -1.778   3.498  -0.055  0.00  0.00    +0.005 A 
ATOM     31  C   UNL     1       1.698   4.968  -0.145  0.00  0.00    +0.044 C 
ENDBRANCH  24  25
ENDBRANCH  11  24
TORSDOF 6
