REMARK  Name = ZINC13977262
REMARK  6 active torsions:
REMARK  status: ('A' for Active; 'I' for Inactive)
REMARK    1  A    between atoms: C_6  and  C_7
REMARK    2  A    between atoms: C_8  and  C_9
REMARK    3  A    between atoms: N_11  and  C_12
REMARK    4  A    between atoms: C_12  and  N_14
REMARK    5  A    between atoms: N_14  and  N_15
REMARK    6  A    between atoms: C_16  and  C_18
REMARK                            x       y       z     vdW  Elec       q    Type
REMARK                         _______ _______ _______ _____ _____    ______ ____
ROOT
ATOM      1  C   UNL     1       1.169   3.408   0.009  0.00  0.00    +0.153 C 
ATOM      2  S   UNL     1       2.640   4.284  -0.000  0.00  0.00    -0.017 S 
ENDROOT
BRANCH   1   5
ATOM      3  C   UNL     1      -0.025   5.414   0.031  0.00  0.00    +0.242 C 
ATOM      4  O   UNL     1       1.020   6.036   0.025  0.00  0.00    -0.270 OA
ATOM      5  N   UNL     1      -0.007   4.066   0.024  0.00  0.00    -0.263 N 
ATOM      6  H   UNL     1      -0.840   3.570   0.029  0.00  0.00    +0.157 HD
BRANCH   3   8
ATOM      7  C   UNL     1      -1.320   7.477   0.055  0.00  0.00    +0.013 C 
ATOM      8  C   UNL     1      -1.301   6.127   0.047  0.00  0.00    +0.068 C 
BRANCH   7  14
ATOM      9  C   UNL     1      -3.807   7.482   0.073  0.00  0.00    +0.011 A 
ATOM     10  C   UNL     1      -5.006   8.161   0.092  0.00  0.00    +0.039 A 
ATOM     11  C   UNL     1      -5.021   9.548   0.100  0.00  0.00    +0.123 A 
ATOM     12  C   UNL     1      -3.832  10.260   0.093  0.00  0.00    +0.039 A 
ATOM     13  C   UNL     1      -2.626   9.594   0.079  0.00  0.00    +0.011 A 
ATOM     14  C   UNL     1      -2.603   8.195   0.071  0.00  0.00    -0.025 A 
ATOM     15  F   UNL     1      -6.200  10.207   0.114  0.00  0.00    -0.205 F 
ENDBRANCH   7  14
ENDBRANCH   3   8
ENDBRANCH   1   5
BRANCH   1  16
ATOM     16  N   UNL     1       1.187   2.061   0.002  0.00  0.00    -0.246 N 
ATOM     17  H   UNL     1       2.034   1.587  -0.009  0.00  0.00    +0.172 HD
BRANCH  16  18
ATOM     18  N   UNL     1      -0.016   1.344   0.009  0.00  0.00    -0.235 N 
ATOM     19  C   UNL     1       0.002  -0.004   0.002  0.00  0.00    +0.232 C 
ATOM     20  O   UNL     1       1.060  -0.596  -0.011  0.00  0.00    -0.274 OA
ATOM     21  H   UNL     1      -0.863   1.817   0.016  0.00  0.00    +0.173 HD
BRANCH  19  22
ATOM     22  C   UNL     1      -1.293  -0.775   0.010  0.00  0.00    +0.076 C 
ATOM     23  C   UNL     1      -2.088  -0.423   1.269  0.00  0.00    +0.013 C 
ATOM     24  C   UNL     1      -3.402  -1.206   1.277  0.00  0.00    +0.001 C 
ATOM     25  C   UNL     1      -3.102  -2.707   1.266  0.00  0.00    +0.000 C 
ATOM     26  C   UNL     1      -2.307  -3.058   0.008  0.00  0.00    +0.001 C 
ATOM     27  C   UNL     1      -0.993  -2.276  -0.001  0.00  0.00    +0.013 C 
ENDBRANCH  19  22
ENDBRANCH  16  18
ENDBRANCH   1  16
TORSDOF 6
