REMARK  Name = ZINC39992244
REMARK  9 active torsions:
REMARK  status: ('A' for Active; 'I' for Inactive)
REMARK    1  A    between atoms: C_1  and  O_2
REMARK    2  A    between atoms: O_2  and  C_3
REMARK    3  A    between atoms: C_8  and  C_9
REMARK    4  A    between atoms: C_10  and  C_11
REMARK    5  A    between atoms: C_10  and  C_13
REMARK    6  A    between atoms: N_15  and  C_16
REMARK    7  A    between atoms: C_17  and  C_25
REMARK    8  A    between atoms: N_27  and  C_28
REMARK    9  A    between atoms: C_28  and  C_29
REMARK                            x       y       z     vdW  Elec       q    Type
REMARK                         _______ _______ _______ _____ _____    ______ ____
ROOT
ATOM      1  C   UNL     1       1.156  -4.989   0.179  0.00  0.00    +0.259 C 
ATOM      2  O   UNL     1       2.235  -4.426   0.172  0.00  0.00    -0.269 OA
ATOM      3  N   UNL     1       1.098  -6.332   0.274  0.00  0.00    -0.275 N 
ATOM      4  H   UNL     1       0.238  -6.781   0.280  0.00  0.00    +0.156 HD
ENDROOT
BRANCH   3   5
ATOM      5  C   UNL     1       2.266  -7.072   0.363  0.00  0.00    +0.085 A 
ATOM      6  C   UNL     1       2.397  -8.449   0.461  0.00  0.00    +0.069 A 
ATOM      7  C   UNL     1       3.746  -8.982   0.543  0.00  0.00    -0.023 A 
ATOM      8  C   UNL     1       4.715  -8.042   0.512  0.00  0.00    -0.004 A 
ATOM      9  S   UNL     1       3.847  -6.507   0.371  0.00  0.00    -0.077 S 
ATOM     10  C   UNL     1       6.193  -8.271   0.580  0.00  0.00    +0.043 C 
ATOM     11  C   UNL     1       6.437  -9.707   1.068  0.00  0.00    +0.005 C 
ATOM     12  C   UNL     1       5.549 -10.662   0.264  0.00  0.00    +0.005 C 
ATOM     13  C   UNL     1       4.083 -10.462   0.653  0.00  0.00    +0.037 C 
BRANCH   6  14
ATOM     14  C   UNL     1       1.225  -9.329   0.482  0.00  0.00    +0.247 C 
ATOM     15  O   UNL     1       0.774  -9.766  -0.561  0.00  0.00    -0.270 OA
ATOM     16  N   UNL     1       0.647  -9.654   1.655  0.00  0.00    -0.308 N 
ATOM     17  H   UNL     1       1.007  -9.306   2.486  0.00  0.00    +0.149 HD
BRANCH  16  18
ATOM     18  C   UNL     1      -0.524 -10.534   1.676  0.00  0.00    +0.131 C 
BRANCH  18  19
ATOM     19  C   UNL     1      -0.973 -10.739   3.099  0.00  0.00    -0.016 C 
ATOM     20  C   UNL     1      -2.209 -10.470   3.442  0.00  0.00    +0.005 C 
ENDBRANCH  18  19
ENDBRANCH  16  18
ENDBRANCH   6  14
ENDBRANCH   3   5
BRANCH   1  22
ATOM     21  C   UNL     1      -0.024  -2.831  -0.013  0.00  0.00    +0.035 C 
ATOM     22  C   UNL     1      -0.084  -4.204   0.084  0.00  0.00    +0.114 C 
BRANCH  21  28
ATOM     23  C   UNL     1      -1.389  -0.771   0.287  0.00  0.00    +0.127 A 
ATOM     24  C   UNL     1      -2.547  -0.050   0.044  0.00  0.00    +0.047 A 
ATOM     25  C   UNL     1      -3.557  -0.598  -0.724  0.00  0.00    +0.019 A 
ATOM     26  C   UNL     1      -3.423  -1.871  -1.258  0.00  0.00    +0.019 A 
ATOM     27  C   UNL     1      -2.280  -2.605  -1.029  0.00  0.00    +0.026 A 
ATOM     28  C   UNL     1      -1.244  -2.061  -0.257  0.00  0.00    +0.019 A 
ATOM     29 BR   UNL     1      -4.817  -2.602  -2.306  0.00  0.00    -0.050 Br
BRANCH  23  31
ATOM     30  C   UNL     1      -0.615   1.080   1.559  0.00  0.00    +0.277 C 
ATOM     31  O   UNL     1      -0.397  -0.234   1.040  0.00  0.00    -0.495 OA
ENDBRANCH  23  31
ENDBRANCH  21  28
BRANCH  22  32
ATOM     32  C   UNL     1      -1.353  -4.867   0.093  0.00  0.00    +0.104 C 
ATOM     33  N   UNL     1      -2.360  -5.393   0.100  0.00  0.00    -0.191 NA
ENDBRANCH  22  32
ENDBRANCH   1  22
TORSDOF 8
