REMARK  Name = ZINC61699487
REMARK  6 active torsions:
REMARK  status: ('A' for Active; 'I' for Inactive)
REMARK    1  A    between atoms: C_1  and  C_2
REMARK    2  A    between atoms: C_2  and  C_4
REMARK    3  A    between atoms: C_2  and  N_21
REMARK    4  A    between atoms: C_7  and  O_11
REMARK    5  A    between atoms: O_11  and  C_12
REMARK    6  A    between atoms: C_15  and  N_18
REMARK                            x       y       z     vdW  Elec       q    Type
REMARK                         _______ _______ _______ _____ _____    ______ ____
ROOT
ATOM      1  C   UNL     1       1.171   0.299   1.419  0.00  0.00    -0.061 A 
ATOM      2  C   UNL     1       0.553   0.337   2.655  0.00  0.00    +0.005 A 
ATOM      3  C   UNL     1       1.071  -0.388   3.711  0.00  0.00    +0.048 A 
ATOM      4  C   UNL     1       2.213  -1.155   3.530  0.00  0.00    +0.147 A 
ATOM      5  C   UNL     1       2.832  -1.192   2.288  0.00  0.00    +0.083 A 
ATOM      6  C   UNL     1       2.306  -0.469   1.234  0.00  0.00    +0.025 A 
ATOM      7 CL   UNL     1       4.261  -2.150   2.057  0.00  0.00    -0.080 Cl
ENDROOT
BRANCH   1   9
ATOM      8  C   UNL     1       1.038   2.553   0.394  0.00  0.00    -0.009 C 
ATOM      9  C   UNL     1       0.603   1.092   0.270  0.00  0.00    -0.047 C 
BRANCH   9  10
ATOM     10  N   UNL     1      -0.863   1.013   0.298  0.00  0.00    +0.382 N 
ATOM     11  H   UNL     1      -1.243   1.544  -0.471  0.00  0.00    -0.089 HD
ATOM     12  H   UNL     1      -1.150   0.049   0.216  0.00  0.00    -0.089 HD
ATOM     13  H   UNL     1      -1.204   1.392   1.169  0.00  0.00    -0.089 HD
ENDBRANCH   9  10
ENDBRANCH   1   9
BRANCH   4  14
ATOM     14  O   UNL     1       2.725  -1.869   4.567  0.00  0.00    -0.455 OA
BRANCH  14  15
ATOM     15  C   UNL     1       2.082  -1.808   5.763  0.00  0.00    +0.129 A 
ATOM     16  C   UNL     1       1.079  -2.720   6.059  0.00  0.00    +0.048 A 
ATOM     17  C   UNL     1       0.427  -2.656   7.275  0.00  0.00    +0.036 A 
ATOM     18  C   UNL     1       0.773  -1.685   8.197  0.00  0.00    +0.126 A 
ATOM     19  C   UNL     1       1.772  -0.775   7.904  0.00  0.00    +0.036 A 
ATOM     20  C   UNL     1       2.431  -0.838   6.691  0.00  0.00    +0.048 A 
BRANCH  18  21
ATOM     21  N   UNL     1       0.072  -1.619   9.499  0.00  0.00    +0.056 N 
ATOM     22  O   UNL     1      -0.802  -2.413   9.756  0.00  0.00    -0.126 OA
ATOM     23  O   UNL     1       0.374  -0.770  10.305  0.00  0.00    -0.126 OA
ENDBRANCH  18  21
ENDBRANCH  14  15
ENDBRANCH   4  14
TORSDOF 5
