REMARK  Name = ZINC43239439
REMARK  6 active torsions:
REMARK  status: ('A' for Active; 'I' for Inactive)
REMARK    1  A    between atoms: C_1  and  C_2
REMARK    2  A    between atoms: C_5  and  C_7
REMARK    3  A    between atoms: C_7  and  C_9
REMARK    4  A    between atoms: C_7  and  N_13
REMARK    5  A    between atoms: C_9  and  C_11
REMARK    6  A    between atoms: C_9  and  N_12
REMARK                            x       y       z     vdW  Elec       q    Type
REMARK                         _______ _______ _______ _____ _____    ______ ____
ROOT
ATOM      1  C   UNL     1       1.074  -4.101  -0.071  0.00  0.00    +0.079 C 
ENDROOT
BRANCH   1   2
ATOM      2  N   UNL     1       2.276  -4.043   0.772  0.00  0.00    -0.294 NA
ATOM      3  C   UNL     1       3.080  -5.263   0.626  0.00  0.00    +0.104 C 
ATOM      4  C   UNL     1       4.406  -5.090   1.374  0.00  0.00    +0.122 C 
ATOM      5  N   UNL     1       4.112  -4.701   2.762  0.00  0.00    -0.307 N 
ATOM      6  C   UNL     1       3.201  -3.570   2.990  0.00  0.00    +0.122 C 
ATOM      7  C   UNL     1       1.922  -3.803   2.178  0.00  0.00    +0.104 C 
ATOM      8  C   UNL     1       4.678  -5.384   3.827  0.00  0.00    +0.161 A 
ATOM      9  N   UNL     1       5.509  -6.404   3.796  0.00  0.00    -0.233 NA
ATOM     10  C   UNL     1       5.963  -6.949   4.911  0.00  0.00    +0.120 A 
ATOM     11  C   UNL     1       5.535  -6.410   6.078  0.00  0.00    +0.068 A 
ATOM     12  S   UNL     1       4.476  -5.105   5.474  0.00  0.00    -0.061 S 
ENDBRANCH   1   2
BRANCH   1  17
ATOM     13  C   UNL     1      -1.025   1.123   0.563  0.00  0.00    +0.051 C 
ATOM     14  C   UNL     1      -0.718  -0.344   0.400  0.00  0.00    -0.013 A 
ATOM     15  C   UNL     1      -1.574  -1.393   0.335  0.00  0.00    +0.011 A 
ATOM     16  C   UNL     1      -1.062  -2.667   0.180  0.00  0.00    +0.013 A 
ATOM     17  C   UNL     1       0.281  -2.830   0.098  0.00  0.00    +0.006 A 
ATOM     18  S   UNL     1       0.866  -1.149   0.233  0.00  0.00    -0.097 S 
ENDBRANCH   1  17
BRANCH   1  19
ATOM     19  C   UNL     1       1.485  -4.255  -1.536  0.00  0.00    -0.056 C 
ATOM     20  C   UNL     1       0.234  -4.304  -2.415  0.00  0.00    -0.012 C 
BRANCH  19  21
ATOM     21  N   UNL     1       2.318  -3.112  -1.934  0.00  0.00    +0.381 N 
ATOM     22  H   UNL     1       3.143  -3.079  -1.354  0.00  0.00    -0.090 HD
ATOM     23  H   UNL     1       2.589  -3.213  -2.900  0.00  0.00    -0.090 HD
ATOM     24  H   UNL     1       1.793  -2.258  -1.820  0.00  0.00    -0.090 HD
ENDBRANCH  19  21
ENDBRANCH   1  19
TORSDOF 4
