REMARK  Name = ZINC40561059
REMARK  15 active torsions:
REMARK  status: ('A' for Active; 'I' for Inactive)
REMARK    1  A    between atoms: C_1  and  C_2
REMARK    2  A    between atoms: C_2  and  N_3
REMARK    3  A    between atoms: N_3  and  C_4
REMARK    4  A    between atoms: N_3  and  C_6
REMARK    5  A    between atoms: C_4  and  C_5
REMARK    6  A    between atoms: C_6  and  C_7
REMARK    7  A    between atoms: C_7  and  N_8
REMARK    8  A    between atoms: C_9  and  C_26
REMARK    9  A    between atoms: C_17  and  C_24
REMARK   10  A    between atoms: C_28  and  O_36
REMARK   11  A    between atoms: C_29  and  O_34
REMARK   12  A    between atoms: C_30  and  O_32
REMARK   13  A    between atoms: O_32  and  C_33
REMARK   14  A    between atoms: O_34  and  C_35
REMARK   15  A    between atoms: O_36  and  C_37
REMARK                            x       y       z     vdW  Elec       q    Type
REMARK                         _______ _______ _______ _____ _____    ______ ____
ROOT
ATOM      1  N   UNL     1       1.973  -3.367  -2.868  0.00  0.00    -0.285 N 
ATOM      2  C   UNL     1       2.967  -4.256  -2.244  0.00  0.00    +0.145 C 
ATOM      3  C   UNL     1       2.650  -5.630  -2.734  0.00  0.00    +0.072 A 
ATOM      4  C   UNL     1       3.290  -6.923  -2.469  0.00  0.00    +0.199 A 
ATOM      5  O   UNL     1       4.143  -7.082  -1.614  0.00  0.00    -0.287 OA
ATOM      6  C   UNL     1       2.801  -8.019  -3.343  0.00  0.00    +0.066 A 
ATOM      7  C   UNL     1       3.447  -9.255  -3.354  0.00  0.00    +0.035 A 
ATOM      8  C   UNL     1       2.982 -10.259  -4.175  0.00  0.00    +0.045 A 
ATOM      9  C   UNL     1       1.877 -10.038  -4.987  0.00  0.00    -0.029 A 
ATOM     10  C   UNL     1       1.231  -8.823  -4.983  0.00  0.00    +0.051 A 
ATOM     11  C   UNL     1       1.680  -7.792  -4.159  0.00  0.00    +0.140 A 
ATOM     12  O   UNL     1       1.021  -6.610  -4.167  0.00  0.00    -0.450 OA
ATOM     13  C   UNL     1       1.566  -5.538  -3.561  0.00  0.00    +0.199 A 
ATOM     14  C   UNL     1       1.158  -4.124  -3.631  0.00  0.00    +0.283 C 
ATOM     15  O   UNL     1       0.224  -3.700  -4.283  0.00  0.00    -0.267 OA
ATOM     16  C   UNL     1       1.379 -11.142  -5.884  0.00  0.00    +0.045 C 
ATOM     17 CL   UNL     1       3.779 -11.802  -4.195  0.00  0.00    -0.083 Cl
ENDROOT
BRANCH   2  18
ATOM     18  C   UNL     1       2.846  -4.197  -0.742  0.00  0.00    -0.015 A 
ATOM     19  C   UNL     1       1.597  -4.152  -0.152  0.00  0.00    +0.055 A 
ATOM     20  C   UNL     1       1.482  -4.097   1.228  0.00  0.00    +0.165 A 
ATOM     21  C   UNL     1       2.625  -4.088   2.019  0.00  0.00    +0.204 A 
ATOM     22  C   UNL     1       3.879  -4.134   1.422  0.00  0.00    +0.165 A 
ATOM     23  C   UNL     1       3.985  -4.194   0.041  0.00  0.00    +0.055 A 
BRANCH  22  24
ATOM     24  O   UNL     1       5.000  -4.125   2.192  0.00  0.00    -0.491 OA
ATOM     25  C   UNL     1       6.255  -4.175   1.510  0.00  0.00    +0.277 C 
ENDBRANCH  22  24
BRANCH  21  26
ATOM     26  O   UNL     1       2.516  -4.034   3.375  0.00  0.00    -0.488 OA
ATOM     27  C   UNL     1       2.440  -5.280   4.070  0.00  0.00    +0.277 C 
ENDBRANCH  21  26
BRANCH  20  28
ATOM     28  O   UNL     1       0.253  -4.052   1.808  0.00  0.00    -0.491 OA
ATOM     29  C   UNL     1      -0.878  -4.064   0.933  0.00  0.00    +0.277 C 
ENDBRANCH  20  28
ENDBRANCH   2  18
BRANCH   1  30
ATOM     30  C   UNL     1       1.882  -1.917  -2.687  0.00  0.00    +0.090 C 
BRANCH  30  31
ATOM     31  C   UNL     1       0.974  -1.607  -1.495  0.00  0.00    -0.060 C 
BRANCH  31  32
ATOM     32  N   UNL     1       0.773  -0.155  -1.396  0.00  0.00    +0.380 N 
ATOM     33  H   UNL     1       1.670   0.307  -1.366  0.00  0.00    -0.082 HD
BRANCH  32  35
ATOM     34  C   UNL     1      -0.083   1.842  -2.526  0.00  0.00    -0.017 C 
ATOM     35  C   UNL     1       0.019   0.316  -2.565  0.00  0.00    -0.082 C 
ENDBRANCH  32  35
BRANCH  32  36
ATOM     36  C   UNL     1       0.022   0.153  -0.172  0.00  0.00    -0.082 C 
ATOM     37  C   UNL     1       0.872  -0.201   1.050  0.00  0.00    -0.017 C 
ENDBRANCH  32  36
ENDBRANCH  31  32
ENDBRANCH  30  31
ENDBRANCH   1  30
TORSDOF 9
