REMARK  Name = ZINC24222993
REMARK  4 active torsions:
REMARK  status: ('A' for Active; 'I' for Inactive)
REMARK    1  A    between atoms: C_1  and  O_2
REMARK    2  A    between atoms: O_2  and  C_3
REMARK    3  A    between atoms: C_4  and  S_11
REMARK    4  A    between atoms: S_11  and  N_14
REMARK                            x       y       z     vdW  Elec       q    Type
REMARK                         _______ _______ _______ _____ _____    ______ ____
ROOT
ATOM      1  C   UNL     1       4.388  -0.404  -1.006  0.00  0.00    +0.160 A 
ATOM      2  C   UNL     1       3.845  -1.316  -0.114  0.00  0.00    +0.149 A 
ATOM      3  C   UNL     1       3.706  -2.641  -0.480  0.00  0.00    +0.052 A 
ATOM      4  C   UNL     1       4.112  -3.059  -1.735  0.00  0.00    +0.044 A 
ATOM      5  C   UNL     1       4.659  -2.152  -2.625  0.00  0.00    +0.039 A 
ATOM      6  C   UNL     1       4.801  -0.826  -2.262  0.00  0.00    +0.063 A 
ATOM      7 BR   UNL     1       5.547   0.413  -3.479  0.00  0.00    -0.046 Br
ATOM      8 CL   UNL     1       3.935  -4.724  -2.193  0.00  0.00    -0.083 Cl
ENDROOT
BRANCH   2   9
ATOM      9  S   UNL     1       3.327  -0.784   1.484  0.00  0.00    +0.064 S 
ATOM     10  O   UNL     1       4.394  -0.015   2.022  0.00  0.00    -0.153 OA
ATOM     11  O   UNL     1       2.806  -1.930   2.144  0.00  0.00    -0.153 OA
BRANCH   9  12
ATOM     12  N   UNL     1       2.057   0.255   1.266  0.00  0.00    -0.176 NA
ATOM     13  C   UNL     1       0.690  -0.258   1.098  0.00  0.00    +0.109 C 
ATOM     14  C   UNL     1       0.098   0.329  -0.187  0.00  0.00    +0.017 C 
ATOM     15  C   UNL     1       0.195   1.855  -0.138  0.00  0.00    +0.003 C 
ATOM     16  C   UNL     1       1.664   2.273  -0.049  0.00  0.00    +0.017 C 
ATOM     17  C   UNL     1       2.274   1.708   1.238  0.00  0.00    +0.109 C 
ENDBRANCH   9  12
ENDBRANCH   2   9
BRANCH   1  19
ATOM     18  C   UNL     1       5.796   1.311  -0.152  0.00  0.00    +0.277 C 
ATOM     19  O   UNL     1       4.521   0.901  -0.649  0.00  0.00    -0.492 OA
ENDBRANCH   1  19
TORSDOF 3
