REMARK  Name = ZINC01673362
REMARK  4 active torsions:
REMARK  status: ('A' for Active; 'I' for Inactive)
REMARK    1  A    between atoms: C_9  and  S_11
REMARK    2  A    between atoms: S_11  and  C_12
REMARK    3  A    between atoms: C_12  and  S_14
REMARK    4  A    between atoms: S_14  and  C_15
REMARK                            x       y       z     vdW  Elec       q    Type
REMARK                         _______ _______ _______ _____ _____    ______ ____
ROOT
ATOM      1  C   UNL     1      -5.349   4.251   0.188  0.00  0.00    +0.100 C 
ATOM      2  S   UNL     1      -4.022   5.332   0.162  0.00  0.00    -0.036 S 
ENDROOT
BRANCH   1   3
ATOM      3  S   UNL     1      -5.079   2.519   0.005  0.00  0.00    -0.037 S 
BRANCH   3  12
ATOM      4  C   UNL     1       1.165   1.768   0.014  0.00  0.00    +0.002 A 
ATOM      5  C   UNL     1       1.159   3.155   0.033  0.00  0.00    +0.002 A 
ATOM      6  C   UNL     1      -0.031   3.848   0.043  0.00  0.00    +0.030 A 
ATOM      7  C   UNL     1      -1.241   3.150   0.034  0.00  0.00    +0.090 A 
ATOM      8  C   UNL     1      -1.229   1.745   0.009  0.00  0.00    +0.067 A 
ATOM      9  C   UNL     1      -0.021   1.063   0.005  0.00  0.00    +0.028 A 
ATOM     10  N   UNL     1      -2.556   1.349  -0.002  0.00  0.00    -0.333 N 
ATOM     11  H   UNL     1      -2.893   0.408  -0.017  0.00  0.00    +0.168 HD
ATOM     12  C   UNL     1      -3.317   2.483   0.011  0.00  0.00    +0.173 A 
ATOM     13  N   UNL     1      -2.543   3.538   0.040  0.00  0.00    -0.222 NA
ENDBRANCH   3  12
ENDBRANCH   1   3
BRANCH   1  14
ATOM     14  S   UNL     1      -6.986   4.869   0.399  0.00  0.00    -0.037 S 
BRANCH  14  15
ATOM     15  C   UNL     1      -6.666   6.601   0.354  0.00  0.00    +0.173 A 
ATOM     16  N   UNL     1      -7.623   7.576   0.368  0.00  0.00    -0.333 N 
ATOM     17  H   UNL     1      -8.612   7.436   0.406  0.00  0.00    +0.168 HD
ATOM     18  C   UNL     1      -6.967   8.795   0.321  0.00  0.00    +0.067 A 
ATOM     19  C   UNL     1      -7.391  10.115   0.311  0.00  0.00    +0.028 A 
ATOM     20  C   UNL     1      -6.463  11.134   0.258  0.00  0.00    +0.002 A 
ATOM     21  C   UNL     1      -5.107  10.848   0.216  0.00  0.00    +0.002 A 
ATOM     22  C   UNL     1      -4.667   9.543   0.227  0.00  0.00    +0.030 A 
ATOM     23  C   UNL     1      -5.595   8.499   0.279  0.00  0.00    +0.090 A 
ATOM     24  N   UNL     1      -5.477   7.146   0.307  0.00  0.00    -0.222 NA
ENDBRANCH  14  15
ENDBRANCH   1  14
TORSDOF 4
