REMARK  Name = ZINC09050525
REMARK  10 active torsions:
REMARK  status: ('A' for Active; 'I' for Inactive)
REMARK    1  A    between atoms: C_1  and  C_2
REMARK    2  A    between atoms: C_2  and  C_3
REMARK    3  A    between atoms: C_3  and  N_57
REMARK    4  A    between atoms: C_4  and  C_5
REMARK    5  A    between atoms: C_4  and  N_57
REMARK    6  A    between atoms: C_5  and  C_6
REMARK    7  A    between atoms: C_7  and  C_8
REMARK    8  A    between atoms: C_7  and  N_57
REMARK    9  A    between atoms: C_9  and  O_30
REMARK   10  A    between atoms: C_16  and  C_17
REMARK                            x       y       z     vdW  Elec       q    Type
REMARK                         _______ _______ _______ _____ _____    ______ ____
ROOT
ATOM      1  C   UNL     1      -1.581   3.160   1.727  0.00  0.00    +0.020 A 
ATOM      2  C   UNL     1      -1.638   4.483   2.137  0.00  0.00    +0.122 A 
ATOM      3  C   UNL     1      -2.556   4.885   3.103  0.00  0.00    +0.046 A 
ATOM      4  C   UNL     1      -3.405   3.974   3.665  0.00  0.00    +0.019 A 
ATOM      5  C   UNL     1      -3.354   2.638   3.266  0.00  0.00    +0.068 A 
ATOM      6  C   UNL     1      -2.436   2.221   2.288  0.00  0.00    +0.144 A 
ATOM      7  O   UNL     1      -2.574   0.895   2.070  0.00  0.00    -0.451 OA
ATOM      8  C   UNL     1      -3.544   0.356   2.845  0.00  0.00    +0.176 C 
ATOM      9  C   UNL     1      -3.925  -0.948   2.863  0.00  0.00    +0.061 C 
ATOM     10  C   UNL     1      -4.110   1.437   3.665  0.00  0.00    +0.231 C 
ATOM     11  O   UNL     1      -5.004   1.357   4.490  0.00  0.00    -0.283 OA
ENDROOT
BRANCH   9  12
ATOM     12  C   UNL     1      -3.155  -1.947   2.114  0.00  0.00    +0.022 A 
ATOM     13  C   UNL     1      -1.857  -1.654   1.678  0.00  0.00    +0.027 A 
ATOM     14  C   UNL     1      -1.139  -2.601   0.979  0.00  0.00    +0.019 A 
ATOM     15  C   UNL     1      -1.701  -3.836   0.695  0.00  0.00    +0.024 A 
ATOM     16  C   UNL     1      -2.984  -4.136   1.113  0.00  0.00    +0.022 A 
ATOM     17  C   UNL     1      -3.718  -3.202   1.823  0.00  0.00    +0.136 A 
ATOM     18  O   UNL     1      -4.976  -3.486   2.246  0.00  0.00    -0.465 OA
ATOM     19  C   UNL     1      -5.629  -4.601   1.632  0.00  0.00    +0.395 C 
ATOM     20  O   UNL     1      -4.721  -5.710   1.617  0.00  0.00    -0.339 OA
ATOM     21  C   UNL     1      -3.577  -5.485   0.789  0.00  0.00    +0.202 C 
ATOM     22 BR   UNL     1       0.618  -2.210   0.399  0.00  0.00    -0.050 Br
ENDBRANCH   9  12
BRANCH   2  23
ATOM     23  O   UNL     1      -0.795   5.395   1.589  0.00  0.00    -0.506 OA
ATOM     24  H   UNL     1      -1.146   5.829   0.799  0.00  0.00    +0.292 HD
ENDBRANCH   2  23
BRANCH   1  25
ATOM     25  C   UNL     1      -0.586   2.740   0.675  0.00  0.00    -0.036 C 
BRANCH  25  26
ATOM     26  N   UNL     1      -1.227   2.695  -0.656  0.00  0.00    +0.383 N 
ATOM     27  H   UNL     1      -0.559   2.310  -1.335  0.00  0.00    -0.081 HD
BRANCH  26  28
ATOM     28  C   UNL     1      -2.422   1.826  -0.612  0.00  0.00    -0.079 C 
BRANCH  28  30
ATOM     29  C   UNL     1      -4.158   0.701  -2.012  0.00  0.00    +0.002 C 
ATOM     30  C   UNL     1      -2.933   1.617  -2.038  0.00  0.00    -0.022 C 
ENDBRANCH  28  30
ENDBRANCH  26  28
BRANCH  26  31
ATOM     31  C   UNL     1      -1.610   4.059  -1.079  0.00  0.00    -0.079 C 
BRANCH  31  32
ATOM     32  C   UNL     1      -0.349   4.809  -1.514  0.00  0.00    -0.022 C 
ATOM     33  C   UNL     1      -0.730   6.214  -1.987  0.00  0.00    +0.002 C 
ENDBRANCH  31  32
ENDBRANCH  26  31
ENDBRANCH  25  26
ENDBRANCH   1  25
TORSDOF 8
