REMARK  Name = ZINC63513797
REMARK  7 active torsions:
REMARK  status: ('A' for Active; 'I' for Inactive)
REMARK    1  A    between atoms: C_4  and  C_7
REMARK    2  A    between atoms: C_7  and  N_8
REMARK    3  A    between atoms: N_18  and  C_23
REMARK    4  A    between atoms: C_23  and  C_24
REMARK    5  A    between atoms: N_26  and  C_27
REMARK    6  A    between atoms: C_27  and  C_28
REMARK    7  A    between atoms: C_28  and  C_29
REMARK                            x       y       z     vdW  Elec       q    Type
REMARK                         _______ _______ _______ _____ _____    ______ ____
ROOT
ATOM      1  N   UNL     1       4.152  -0.952   1.338  0.00  0.00    -0.310 N 
ATOM      2  C   UNL     1       4.948  -0.093   2.106  0.00  0.00    +0.038 A 
ATOM      3  C   UNL     1       5.369   1.206   1.844  0.00  0.00    +0.024 A 
ATOM      4  C   UNL     1       6.146   1.888   2.759  0.00  0.00    +0.002 A 
ATOM      5  C   UNL     1       6.518   1.286   3.948  0.00  0.00    +0.001 A 
ATOM      6  C   UNL     1       6.119  -0.005   4.225  0.00  0.00    +0.010 A 
ATOM      7  C   UNL     1       5.338  -0.710   3.307  0.00  0.00    +0.003 A 
ATOM      8  C   UNL     1       4.806  -2.072   3.304  0.00  0.00    +0.006 C 
ATOM      9  C   UNL     1       5.051  -3.145   4.065  0.00  0.00    +0.094 C 
ATOM     10  N   UNL     1       4.375  -4.300   3.626  0.00  0.00    -0.268 N 
ATOM     11  N   UNL     1       4.343  -4.512   2.228  0.00  0.00    -0.212 N 
ATOM     12  C   UNL     1       4.099  -3.435   1.423  0.00  0.00    +0.257 C 
ATOM     13  O   UNL     1       4.097  -3.522   0.214  0.00  0.00    -0.272 OA
ATOM     14  C   UNL     1       3.829  -2.127   2.136  0.00  0.00    +0.194 C 
ATOM     15  H   UNL     1       3.955  -4.916   4.247  0.00  0.00    +0.170 HD
ENDROOT
BRANCH   1  16
ATOM     16  C   UNL     1       3.711  -0.707  -0.038  0.00  0.00    +0.141 C 
BRANCH  16  20
ATOM     17  C   UNL     1      -0.017   1.378   0.010  0.00  0.00    +0.000 A 
ATOM     18  C   UNL     1       1.171   2.086   0.002  0.00  0.00    +0.000 A 
ATOM     19  C   UNL     1       2.377   1.411  -0.013  0.00  0.00    +0.005 A 
ATOM     20  C   UNL     1       2.396   0.029  -0.020  0.00  0.00    -0.030 A 
ATOM     21  C   UNL     1       1.208  -0.679  -0.012  0.00  0.00    +0.005 A 
ATOM     22  C   UNL     1       0.002  -0.004   0.002  0.00  0.00    +0.000 A 
ENDBRANCH  16  20
ENDBRANCH   1  16
BRANCH  11  23
ATOM     23  C   UNL     1       4.566  -5.844   1.660  0.00  0.00    +0.226 C 
BRANCH  23  24
ATOM     24  C   UNL     1       6.037  -6.038   1.394  0.00  0.00    +0.232 C 
ATOM     25  O   UNL     1       6.822  -5.150   1.654  0.00  0.00    -0.274 OA
ATOM     26  N   UNL     1       6.480  -7.197   0.868  0.00  0.00    -0.314 N 
ATOM     27  H   UNL     1       5.852  -7.907   0.661  0.00  0.00    +0.149 HD
BRANCH  26  28
ATOM     28  C   UNL     1       7.910  -7.385   0.610  0.00  0.00    +0.108 C 
BRANCH  28  29
ATOM     29  C   UNL     1       8.142  -8.776   0.017  0.00  0.00    +0.052 C 
BRANCH  29  30
ATOM     30  C   UNL     1       9.613  -8.970  -0.249  0.00  0.00    -0.040 C 
ATOM     31  C   UNL     1      10.514  -9.567   0.564  0.00  0.00    -0.001 A 
ATOM     32  C   UNL     1      10.400 -10.190   1.888  0.00  0.00    +0.010 A 
ATOM     33  C   UNL     1      11.505 -10.715   2.463  0.00  0.00    +0.001 A 
ATOM     34  C   UNL     1      12.754 -10.679   1.829  0.00  0.00    +0.002 A 
ATOM     35  C   UNL     1      12.939 -10.124   0.612  0.00  0.00    +0.026 A 
ATOM     36  C   UNL     1      11.844  -9.542  -0.085  0.00  0.00    +0.043 A 
ATOM     37  N   UNL     1      11.768  -8.952  -1.254  0.00  0.00    -0.380 N 
ATOM     38  C   UNL     1      10.378  -8.541  -1.481  0.00  0.00    +0.144 C 
ATOM     39  H   UNL     1      12.507  -8.814  -1.867  0.00  0.00    +0.160 HD
ENDBRANCH  29  30
ENDBRANCH  28  29
ENDBRANCH  26  28
ENDBRANCH  23  24
ENDBRANCH  11  23
TORSDOF 7
