REMARK  Name = ZINC21062054
REMARK  8 active torsions:
REMARK  status: ('A' for Active; 'I' for Inactive)
REMARK    1  A    between atoms: C_1  and  C_2
REMARK    2  A    between atoms: C_5  and  N_12
REMARK    3  A    between atoms: C_7  and  S_8
REMARK    4  A    between atoms: S_8  and  N_11
REMARK    5  A    between atoms: N_12  and  C_13
REMARK    6  A    between atoms: C_16  and  C_23
REMARK    7  A    between atoms: C_19  and  C_21
REMARK    8  A    between atoms: C_19  and  C_22
REMARK                            x       y       z     vdW  Elec       q    Type
REMARK                         _______ _______ _______ _____ _____    ______ ____
ROOT
ATOM      1  C   UNL     1       1.772   2.493   1.808  0.00  0.00    +0.046 C 
ATOM      2  C   UNL     1       0.649   3.465   2.056  0.00  0.00    -0.024 A 
ATOM      3  C   UNL     1       0.560   4.122   3.271  0.00  0.00    +0.007 A 
ATOM      4  C   UNL     1      -0.468   5.013   3.502  0.00  0.00    +0.023 A 
ATOM      5  C   UNL     1      -1.415   5.251   2.513  0.00  0.00    +0.029 A 
ATOM      6  C   UNL     1      -1.320   4.595   1.293  0.00  0.00    +0.051 A 
ATOM      7  C   UNL     1      -0.292   3.700   1.070  0.00  0.00    +0.110 A 
ENDROOT
BRANCH   7   8
ATOM      8  S   UNL     1      -0.174   2.862  -0.475  0.00  0.00    +0.056 S 
ATOM      9  O   UNL     1      -1.252   3.329  -1.274  0.00  0.00    -0.153 OA
ATOM     10  O   UNL     1       0.013   1.485  -0.177  0.00  0.00    -0.153 OA
BRANCH   8  11
ATOM     11  N   UNL     1       1.217   3.380  -1.209  0.00  0.00    -0.204 NA
ATOM     12  H   UNL     1       1.328   2.878  -2.181  0.00  0.00    +0.144 HD
ATOM     13  H   UNL     1       2.080   3.138  -0.571  0.00  0.00    +0.144 HD
ENDBRANCH   8  11
ENDBRANCH   7   8
BRANCH   5  14
ATOM     14  N   UNL     1      -2.456   6.153   2.744  0.00  0.00    -0.341 N 
ATOM     15  H   UNL     1      -3.205   6.340   1.960  0.00  0.00    +0.146 HD
BRANCH  14  16
ATOM     16  C   UNL     1      -2.552   6.849   4.029  0.00  0.00    +0.071 C 
ATOM     17  C   UNL     1      -3.943   7.470   4.171  0.00  0.00    +0.025 C 
ATOM     18  C   UNL     1      -4.175   8.466   3.034  0.00  0.00    -0.012 C 
ATOM     19  C   UNL     1      -3.115   9.568   3.096  0.00  0.00    +0.009 C 
ATOM     20  C   UNL     1      -1.724   8.947   2.955  0.00  0.00    -0.033 C 
ATOM     21  C   UNL     1      -1.492   7.951   4.092  0.00  0.00    +0.028 C 
ATOM     22  C   UNL     1      -1.625   8.220   1.612  0.00  0.00    +0.011 C 
ATOM     23  C   UNL     1      -0.665  10.049   3.018  0.00  0.00    +0.011 C 
ATOM     24  C   UNL     1      -5.566   9.087   3.175  0.00  0.00    +0.007 C 
ENDBRANCH  14  16
ENDBRANCH   5  14
TORSDOF 4
