REMARK  Name = ZINC00456894
REMARK  7 active torsions:
REMARK  status: ('A' for Active; 'I' for Inactive)
REMARK    1  A    between atoms: C_1  and  C_2
REMARK    2  A    between atoms: C_5  and  N_9
REMARK    3  A    between atoms: C_6  and  O_8
REMARK    4  A    between atoms: N_9  and  C_10
REMARK    5  A    between atoms: C_10  and  N_12
REMARK    6  A    between atoms: C_13  and  C_15
REMARK    7  A    between atoms: C_16  and  C_17
REMARK                            x       y       z     vdW  Elec       q    Type
REMARK                         _______ _______ _______ _____ _____    ______ ____
ROOT
ATOM      1  C   UNL     1       1.236  -1.992   0.225  0.00  0.00    +0.141 C 
ATOM      2  S   UNL     1      -0.208  -2.845   0.567  0.00  0.00    -0.018 S 
ENDROOT
BRANCH   1   3
ATOM      3  N   UNL     1       1.236  -0.644   0.216  0.00  0.00    -0.264 N 
ATOM      4  C   UNL     1       0.099   0.032   0.476  0.00  0.00    +0.242 C 
ATOM      5  O   UNL     1      -0.927  -0.575   0.719  0.00  0.00    -0.270 OA
ATOM      6  H   UNL     1       2.054  -0.160   0.022  0.00  0.00    +0.157 HD
BRANCH   4   7
ATOM      7  C   UNL     1       0.100   1.494   0.466  0.00  0.00    +0.068 C 
ATOM      8  C   UNL     1      -1.040   2.171   0.721  0.00  0.00    +0.013 C 
BRANCH   8   9
ATOM      9  C   UNL     1      -1.040   3.642   0.711  0.00  0.00    -0.025 A 
ATOM     10  C   UNL     1       0.141   4.343   0.443  0.00  0.00    +0.009 A 
ATOM     11  C   UNL     1       0.133   5.721   0.431  0.00  0.00    +0.020 A 
ATOM     12  C   UNL     1      -1.039   6.412   0.693  0.00  0.00    +0.041 A 
ATOM     13  C   UNL     1      -2.211   5.725   0.964  0.00  0.00    +0.020 A 
ATOM     14  C   UNL     1      -2.219   4.347   0.975  0.00  0.00    +0.009 A 
ATOM     15 CL   UNL     1      -1.039   8.149   0.682  0.00  0.00    -0.084 Cl
ENDBRANCH   8   9
ENDBRANCH   4   7
ENDBRANCH   1   3
BRANCH   1  16
ATOM     16  N   UNL     1       2.373  -2.667  -0.035  0.00  0.00    -0.294 N 
ATOM     17  H   UNL     1       3.175  -2.186  -0.290  0.00  0.00    +0.154 HD
BRANCH  16  22
ATOM     18  C   UNL     1       2.459  -8.331   0.359  0.00  0.00    +0.044 C 
ATOM     19  C   UNL     1       2.438  -6.828   0.257  0.00  0.00    -0.047 A 
ATOM     20  C   UNL     1       1.413  -6.198  -0.424  0.00  0.00    +0.005 A 
ATOM     21  C   UNL     1       1.388  -4.819  -0.522  0.00  0.00    +0.027 A 
ATOM     22  C   UNL     1       2.395  -4.065   0.063  0.00  0.00    +0.075 A 
ATOM     23  C   UNL     1       3.431  -4.701   0.743  0.00  0.00    +0.138 A 
ATOM     24  C   UNL     1       3.445  -6.083   0.842  0.00  0.00    +0.050 A 
BRANCH  23  25
ATOM     25  O   UNL     1       4.424  -3.967   1.314  0.00  0.00    -0.505 OA
ATOM     26  H   UNL     1       4.246  -3.709   2.229  0.00  0.00    +0.292 HD
ENDBRANCH  23  25
ENDBRANCH  16  22
ENDBRANCH   1  16
TORSDOF 6
