REMARK  Name = ZINC14151908
REMARK  5 active torsions:
REMARK  status: ('A' for Active; 'I' for Inactive)
REMARK    1  A    between atoms: C_6  and  C_7
REMARK    2  A    between atoms: C_8  and  C_9
REMARK    3  A    between atoms: C_8  and  C_11
REMARK    4  A    between atoms: N_13  and  C_14
REMARK    5  A    between atoms: C_15  and  C_23
REMARK                            x       y       z     vdW  Elec       q    Type
REMARK                         _______ _______ _______ _____ _____    ______ ____
ROOT
ATOM      1  C   UNL     1      -2.004   7.309  -2.972  0.00  0.00    +0.259 C 
ATOM      2  O   UNL     1      -1.778   6.492  -3.844  0.00  0.00    -0.269 OA
ATOM      3  N   UNL     1      -1.680   7.037  -1.693  0.00  0.00    -0.274 N 
ATOM      4  H   UNL     1      -1.860   7.688  -0.997  0.00  0.00    +0.156 HD
ENDROOT
BRANCH   3   5
ATOM      5  C   UNL     1      -1.089   5.824  -1.371  0.00  0.00    +0.090 A 
ATOM      6  C   UNL     1      -0.687   5.365  -0.124  0.00  0.00    +0.084 A 
ATOM      7  C   UNL     1      -0.087   4.045  -0.056  0.00  0.00    -0.018 A 
ATOM      8  C   UNL     1       0.015   3.397  -1.239  0.00  0.00    -0.004 A 
ATOM      9  S   UNL     1      -0.672   4.516  -2.427  0.00  0.00    -0.077 S 
ATOM     10  C   UNL     1       0.587   2.034  -1.475  0.00  0.00    +0.043 C 
ATOM     11  C   UNL     1       1.386   1.622  -0.230  0.00  0.00    +0.005 C 
ATOM     12  C   UNL     1       0.539   1.894   1.016  0.00  0.00    +0.005 C 
ATOM     13  C   UNL     1       0.403   3.401   1.235  0.00  0.00    +0.037 C 
BRANCH   6  14
ATOM     14  C   UNL     1      -0.858   6.165   1.052  0.00  0.00    +0.102 C 
ATOM     15  N   UNL     1      -0.993   6.799   1.984  0.00  0.00    -0.191 NA
ENDBRANCH   6  14
ENDBRANCH   3   5
BRANCH   1  17
ATOM     16  C   UNL     1      -2.963   8.874  -4.620  0.00  0.00    +0.032 C 
ATOM     17  C   UNL     1      -2.632   8.596  -3.314  0.00  0.00    +0.114 C 
BRANCH  16  23
ATOM     18  C   UNL     1      -4.392  10.372  -5.996  0.00  0.00    +0.009 A 
ATOM     19  C   UNL     1      -4.831  11.634  -6.332  0.00  0.00    +0.016 A 
ATOM     20  C   UNL     1      -4.318  12.746  -5.684  0.00  0.00    +0.018 A 
ATOM     21  C   UNL     1      -3.365  12.599  -4.689  0.00  0.00    +0.016 A 
ATOM     22  C   UNL     1      -2.918  11.344  -4.337  0.00  0.00    +0.009 A 
ATOM     23  C   UNL     1      -3.432  10.214  -4.988  0.00  0.00    -0.024 A 
ATOM     24 BR   UNL     1      -4.923  14.474  -6.158  0.00  0.00    -0.050 Br
ENDBRANCH  16  23
BRANCH  17  25
ATOM     25  C   UNL     1      -2.898   9.558  -2.287  0.00  0.00    +0.104 C 
ATOM     26  N   UNL     1      -3.109  10.321  -1.472  0.00  0.00    -0.191 NA
ENDBRANCH  17  25
ENDBRANCH   1  17
TORSDOF 5
