REMARK  Name = ZINC30894337
REMARK  11 active torsions:
REMARK  status: ('A' for Active; 'I' for Inactive)
REMARK    1  A    between atoms: C_1  and  N_2
REMARK    2  A    between atoms: N_2  and  C_3
REMARK    3  A    between atoms: N_2  and  C_4
REMARK    4  A    between atoms: C_7  and  C_10
REMARK    5  A    between atoms: C_10  and  C_12
REMARK    6  A    between atoms: C_10  and  C_31
REMARK    7  A    between atoms: C_12  and  N_13
REMARK    8  A    between atoms: C_14  and  C_16
REMARK    9  A    between atoms: C_16  and  O_17
REMARK   10  A    between atoms: O_17  and  C_18
REMARK   11  A    between atoms: C_18  and  C_19
REMARK                            x       y       z     vdW  Elec       q    Type
REMARK                         _______ _______ _______ _____ _____    ______ ____
ROOT
ATOM      1  C   UNL     1       4.787  10.936   0.010  0.00  0.00    +0.068 C 
ENDROOT
BRANCH   1   2
ATOM      2  C   UNL     1       5.554  10.717   1.289  0.00  0.00    -0.013 A 
ATOM      3  C   UNL     1       5.113  10.953   2.535  0.00  0.00    +0.088 A 
ATOM      4  N   UNL     1       6.085  10.631   3.442  0.00  0.00    -0.360 N 
ATOM      5  H   UNL     1       5.894  10.755   4.519  0.00  0.00    +0.165 HD
ATOM      6  C   UNL     1       7.207  10.178   2.786  0.00  0.00    +0.047 A 
ATOM      7  C   UNL     1       6.924  10.211   1.408  0.00  0.00    +0.003 A 
ATOM      8  C   UNL     1       7.890   9.802   0.488  0.00  0.00    +0.010 A 
ATOM      9  C   UNL     1       9.109   9.370   0.931  0.00  0.00    +0.001 A 
ATOM     10  C   UNL     1       9.393   9.336   2.289  0.00  0.00    +0.002 A 
ATOM     11  C   UNL     1       8.454   9.735   3.215  0.00  0.00    +0.026 A 
ENDBRANCH   1   2
BRANCH   1  15
ATOM     12  C   UNL     1       3.697  15.056  -0.309  0.00  0.00    +0.029 A 
ATOM     13  C   UNL     1       4.496  14.470  -1.283  0.00  0.00    +0.023 A 
ATOM     14  C   UNL     1       4.847  13.139  -1.177  0.00  0.00    +0.006 A 
ATOM     15  C   UNL     1       4.403  12.389  -0.102  0.00  0.00    -0.038 A 
ATOM     16  C   UNL     1       3.603  12.968   0.866  0.00  0.00    +0.006 A 
ATOM     17  C   UNL     1       3.254  14.300   0.768  0.00  0.00    +0.023 A 
BRANCH  12  19
ATOM     18  C   UNL     1       3.809  17.198  -1.551  0.00  0.00    +0.129 C 
ATOM     19  N   UNL     1       3.341  16.403  -0.414  0.00  0.00    -0.336 N 
ATOM     20  C   UNL     1       2.498  17.019   0.614  0.00  0.00    +0.129 C 
ENDBRANCH  12  19
ENDBRANCH   1  15
BRANCH   1  21
ATOM     21  C   UNL     1       3.524  10.073   0.018  0.00  0.00    +0.117 C 
BRANCH  21  22
ATOM     22  N   UNL     1       3.899   8.657   0.007  0.00  0.00    -0.313 N 
ATOM     23  C   UNL     1       2.943   7.707   0.012  0.00  0.00    +0.239 C 
ATOM     24  O   UNL     1       1.773   8.024   0.026  0.00  0.00    -0.273 OA
ATOM     25  H   UNL     1       4.961   8.370  -0.005  0.00  0.00    +0.149 HD
BRANCH  23  26
ATOM     26  C   UNL     1       3.330   6.250   0.001  0.00  0.00    +0.256 C 
BRANCH  26  27
ATOM     27  O   UNL     1       2.149   5.444   0.009  0.00  0.00    -0.363 OA
BRANCH  27  28
ATOM     28  C   UNL     1       2.405   4.039  -0.001  0.00  0.00    +0.234 C 
BRANCH  28  29
ATOM     29  C   UNL     1       1.097   3.290   0.009  0.00  0.00    +0.136 A 
ATOM     30  N   UNL     1       1.132   1.932   0.002  0.00  0.00    -0.309 N 
ATOM     31  H   UNL     1       2.099   1.407  -0.010  0.00  0.00    +0.170 HD
ATOM     32  C   UNL     1      -0.014   1.213   0.009  0.00  0.00    +0.259 A 
ATOM     33  O   UNL     1       0.002  -0.004   0.002  0.00  0.00    -0.267 OA
ATOM     34  C   UNL     1      -1.281   1.960   0.019  0.00  0.00    +0.065 A 
ATOM     35  C   UNL     1      -2.517   1.315   0.033  0.00  0.00    +0.015 A 
ATOM     36  C   UNL     1      -3.673   2.064   0.048  0.00  0.00    +0.001 A 
ATOM     37  C   UNL     1      -3.615   3.452   0.055  0.00  0.00    +0.002 A 
ATOM     38  C   UNL     1      -2.405   4.108   0.047  0.00  0.00    +0.028 A 
ATOM     39  C   UNL     1      -1.219   3.371   0.032  0.00  0.00    +0.078 A 
ATOM     40  N   UNL     1      -0.005   3.976   0.023  0.00  0.00    -0.231 NA
ENDBRANCH  28  29
ENDBRANCH  27  28
ENDBRANCH  26  27
ENDBRANCH  23  26
ENDBRANCH  21  22
ENDBRANCH   1  21
TORSDOF 9
