REMARK  Name = ZINC34789338
REMARK  11 active torsions:
REMARK  status: ('A' for Active; 'I' for Inactive)
REMARK    1  A    between atoms: C_1  and  C_2
REMARK    2  A    between atoms: C_2  and  C_3
REMARK    3  A    between atoms: C_3  and  C_32
REMARK    4  A    between atoms: C_13  and  N_31
REMARK    5  A    between atoms: C_15  and  S_17
REMARK    6  A    between atoms: S_17  and  C_18
REMARK    7  A    between atoms: C_18  and  C_19
REMARK    8  A    between atoms: N_21  and  C_22
REMARK    9  A    between atoms: C_25  and  O_28
REMARK   10  A    between atoms: O_28  and  C_29
REMARK   11  A    between atoms: C_29  and  C_30
REMARK                            x       y       z     vdW  Elec       q    Type
REMARK                         _______ _______ _______ _____ _____    ______ ____
ROOT
ATOM      1  C   UNL     1      -1.398  -0.538   0.051  0.00  0.00    +0.071 C 
ATOM      2  C   UNL     1      -1.383  -2.068   0.026  0.00  0.00    +0.071 C 
ATOM      3  C   UNL     1      -2.807  -2.567   0.273  0.00  0.00    -0.024 C 
ATOM      4  C   UNL     1      -3.726  -1.720   0.786  0.00  0.00    +0.017 C 
ATOM      5  C   UNL     1      -3.480  -0.299   1.203  0.00  0.00    +0.203 C 
ATOM      6  O   UNL     1      -2.063  -0.079   1.232  0.00  0.00    -0.368 OA
ATOM      7  S   UNL     1      -5.270  -2.594   0.828  0.00  0.00    -0.095 S 
ATOM      8  C   UNL     1      -4.721  -4.164   0.067  0.00  0.00    +0.203 C 
ATOM      9  C   UNL     1      -3.207  -3.949   0.067  0.00  0.00    +0.027 C 
ATOM     10  C   UNL     1      -2.405  -5.035  -0.083  0.00  0.00    +0.099 C 
ATOM     11  N   UNL     1      -3.146  -6.239  -0.135  0.00  0.00    -0.177 NA
ATOM     12  C   UNL     1      -4.176  -6.348   0.796  0.00  0.00    +0.176 C 
ATOM     13  N   UNL     1      -4.998  -5.312   0.935  0.00  0.00    -0.242 NA
ATOM     14  C   UNL     1      -2.136  -0.017  -1.184  0.00  0.00    +0.042 C 
ENDROOT
BRANCH  10  15
ATOM     15  N   UNL     1      -1.011  -4.971  -0.174  0.00  0.00    -0.404 NA
ATOM     16  H   UNL     1      -0.610  -5.037   0.749  0.00  0.00    +0.122 HD
ATOM     17  H   UNL     1      -0.676  -5.734  -0.742  0.00  0.00    +0.122 HD
ATOM     18  H   UNL     1      -0.742  -4.094  -0.596  0.00  0.00    +0.122 HD
ENDBRANCH  10  15
BRANCH   1  20
ATOM     19  C   UNL     1       0.027   1.514   0.058  0.00  0.00    +0.007 C 
ATOM     20  C   UNL     1       0.041  -0.016   0.041  0.00  0.00    +0.032 C 
ENDBRANCH   1  20
BRANCH  12  21
ATOM     21  S   UNL     1      -4.395  -7.816   1.746  0.00  0.00    -0.080 S 
BRANCH  21  22
ATOM     22  C   UNL     1      -5.838  -7.455   2.784  0.00  0.00    +0.173 C 
BRANCH  22  23
ATOM     23  C   UNL     1      -6.138  -8.645   3.658  0.00  0.00    +0.227 C 
ATOM     24  O   UNL     1      -5.447  -9.639   3.588  0.00  0.00    -0.275 OA
ATOM     25  N   UNL     1      -7.176  -8.605   4.518  0.00  0.00    -0.285 N 
ATOM     26  H   UNL     1      -7.687  -7.788   4.623  0.00  0.00    +0.155 HD
BRANCH  25  27
ATOM     27  C   UNL     1      -7.514  -9.744   5.261  0.00  0.00    +0.034 A 
ATOM     28  C   UNL     1      -8.846 -10.018   5.543  0.00  0.00    +0.027 A 
ATOM     29  C   UNL     1      -9.179 -11.142   6.274  0.00  0.00    +0.047 A 
ATOM     30  C   UNL     1      -8.184 -11.995   6.727  0.00  0.00    +0.121 A 
ATOM     31  C   UNL     1      -6.853 -11.721   6.446  0.00  0.00    +0.047 A 
ATOM     32  C   UNL     1      -6.519 -10.602   5.710  0.00  0.00    +0.027 A 
BRANCH  30  33
ATOM     33  O   UNL     1      -8.512 -13.100   7.448  0.00  0.00    -0.492 OA
BRANCH  33  34
ATOM     34  C   UNL     1      -7.437 -13.935   7.883  0.00  0.00    +0.225 C 
ATOM     35  C   UNL     1      -7.998 -15.120   8.672  0.00  0.00    +0.048 C 
ENDBRANCH  33  34
ENDBRANCH  30  33
ENDBRANCH  25  27
ENDBRANCH  22  23
ENDBRANCH  21  22
ENDBRANCH  12  21
TORSDOF 8
