REMARK  Name = ZINC65217182
REMARK  5 active torsions:
REMARK  status: ('A' for Active; 'I' for Inactive)
REMARK    1  A    between atoms: C_1  and  C_2
REMARK    2  A    between atoms: C_5  and  C_19
REMARK    3  A    between atoms: C_7  and  C_13
REMARK    4  A    between atoms: C_19  and  N_20
REMARK    5  A    between atoms: C_21  and  C_23
REMARK                            x       y       z     vdW  Elec       q    Type
REMARK                         _______ _______ _______ _____ _____    ______ ____
ROOT
ATOM      1  C   UNL     1      -0.018   1.503   0.010  0.00  0.00    +0.075 C 
ATOM      2  C   UNL     1       0.002  -0.004   0.002  0.00  0.00    +0.092 C 
ATOM      3  N   UNL     1       0.009  -0.794  -1.020  0.00  0.00    -0.180 NA
ATOM      4  N   UNL     1      -0.020  -2.168  -0.916  0.00  0.00    -0.221 N 
ATOM      5  C   UNL     1      -0.321  -3.421  -1.650  0.00  0.00    +0.134 C 
ATOM      6  C   UNL     1      -0.989  -4.338  -0.600  0.00  0.00    +0.110 C 
ATOM      7  N   UNL     1      -0.924  -3.582   0.681  0.00  0.00    -0.280 NA
ATOM      8  C   UNL     1       0.222  -2.676   0.471  0.00  0.00    +0.225 C 
ATOM      9  S   UNL     1       0.030  -1.112   1.404  0.00  0.00    -0.069 S 
ATOM     10  H   UNL     1      -1.774  -3.060   0.837  0.00  0.00    +0.125 HD
ENDROOT
BRANCH   6  11
ATOM     11  C   UNL     1      -2.423  -4.606  -0.979  0.00  0.00    -0.029 A 
ATOM     12  C   UNL     1      -3.396  -3.661  -0.715  0.00  0.00    +0.005 A 
ATOM     13  C   UNL     1      -4.711  -3.907  -1.062  0.00  0.00    +0.000 A 
ATOM     14  C   UNL     1      -5.053  -5.099  -1.673  0.00  0.00    +0.000 A 
ATOM     15  C   UNL     1      -4.080  -6.044  -1.938  0.00  0.00    +0.000 A 
ATOM     16  C   UNL     1      -2.764  -5.796  -1.595  0.00  0.00    +0.005 A 
ENDBRANCH   6  11
BRANCH   5  17
ATOM     17  C   UNL     1      -1.281  -3.143  -2.808  0.00  0.00    +0.130 C 
BRANCH  17  18
ATOM     18  N   UNL     1      -0.705  -2.122  -3.686  0.00  0.00    -0.311 N 
ATOM     19  C   UNL     1      -1.380  -1.715  -4.780  0.00  0.00    +0.244 C 
ATOM     20  O   UNL     1      -2.464  -2.194  -5.037  0.00  0.00    -0.273 OA
ATOM     21  H   UNL     1       0.162  -1.738  -3.480  0.00  0.00    +0.149 HD
BRANCH  19  22
ATOM     22  C   UNL     1      -0.787  -0.664  -5.683  0.00  0.00    +0.241 C 
ATOM     23  C   UNL     1      -1.052   0.717  -5.141  0.00  0.00    -0.012 C 
ATOM     24  C   UNL     1      -1.788   1.320  -6.081  0.00  0.00    +0.065 C 
ATOM     25  C   UNL     1      -2.287   2.742  -5.949  0.00  0.00    +0.057 C 
ATOM     26  C   UNL     1      -2.192   3.158  -4.477  0.00  0.00    +0.006 C 
ATOM     27  C   UNL     1      -0.790   2.851  -3.943  0.00  0.00    +0.005 C 
ATOM     28  C   UNL     1      -0.609   1.330  -3.845  0.00  0.00    +0.035 C 
ATOM     29  N   UNL     1      -1.997   0.477  -7.116  0.00  0.00    -0.158 NA
ATOM     30  N   UNL     1      -1.480  -0.642  -6.986  0.00  0.00    -0.170 NA
ENDBRANCH  19  22
ENDBRANCH  17  18
ENDBRANCH   5  17
TORSDOF 4
