REMARK  Name = ZINC06719146
REMARK  7 active torsions:
REMARK  status: ('A' for Active; 'I' for Inactive)
REMARK    1  A    between atoms: C_1  and  C_2
REMARK    2  A    between atoms: C_6  and  N_8
REMARK    3  A    between atoms: C_9  and  N_25
REMARK    4  A    between atoms: C_10  and  C_23
REMARK    5  A    between atoms: C_17  and  C_20
REMARK    6  A    between atoms: C_20  and  C_21
REMARK    7  A    between atoms: C_20  and  C_22
REMARK                            x       y       z     vdW  Elec       q    Type
REMARK                         _______ _______ _______ _____ _____    ______ ____
ROOT
ATOM      1  N   UNL     1       4.061   1.597  -2.494  0.00  0.00    -0.291 N 
ATOM      2  C   UNL     1       3.728   0.443  -3.137  0.00  0.00    +0.120 A 
ATOM      3  C   UNL     1       2.566  -0.242  -2.777  0.00  0.00    +0.093 A 
ATOM      4  C   UNL     1       1.747   0.272  -1.744  0.00  0.00    -0.016 A 
ATOM      5  C   UNL     1       2.111   1.421  -1.117  0.00  0.00    +0.014 A 
ATOM      6  C   UNL     1       3.286   2.085  -1.511  0.00  0.00    +0.098 A 
ATOM      7  S   UNL     1       3.737   3.537  -0.725  0.00  0.00    -0.032 S 
ATOM      8  C   UNL     1       1.288   2.006   0.001  0.00  0.00    +0.198 C 
ATOM      9  O   UNL     1      -0.017   1.428   0.010  0.00  0.00    -0.371 OA
ATOM     10  C   UNL     1       0.002  -0.004   0.002  0.00  0.00    +0.126 C 
ATOM     11  C   UNL     1       0.493  -0.472  -1.369  0.00  0.00    +0.068 C 
ENDROOT
BRANCH   1  17
ATOM     12  C   UNL     1       8.562   3.215  -1.351  0.00  0.00    +0.044 C 
ATOM     13  C   UNL     1       7.422   3.082  -2.327  0.00  0.00    -0.048 A 
ATOM     14  C   UNL     1       7.526   3.638  -3.590  0.00  0.00    +0.003 A 
ATOM     15  C   UNL     1       6.482   3.518  -4.489  0.00  0.00    +0.002 A 
ATOM     16  C   UNL     1       5.334   2.837  -4.130  0.00  0.00    +0.026 A 
ATOM     17  C   UNL     1       5.225   2.283  -2.862  0.00  0.00    +0.049 A 
ATOM     18  C   UNL     1       6.275   2.405  -1.961  0.00  0.00    +0.029 A 
ENDBRANCH   1  17
BRANCH  10  19
ATOM     19  C   UNL     1      -1.409  -0.540   0.255  0.00  0.00    +0.012 C 
ATOM     20  C   UNL     1      -1.905  -0.047   1.616  0.00  0.00    +0.010 C 
ATOM     21  C   UNL     1      -2.349  -0.039  -0.843  0.00  0.00    +0.010 C 
ENDBRANCH  10  19
BRANCH   2  22
ATOM     22  N   UNL     1       4.530  -0.043  -4.133  0.00  0.00    -0.343 N 
ATOM     23  H   UNL     1       5.337   0.435  -4.383  0.00  0.00    +0.144 HD
ATOM     24  H   UNL     1       4.292  -0.864  -4.590  0.00  0.00    +0.144 HD
ENDBRANCH   2  22
BRANCH   3  25
ATOM     25  C   UNL     1       2.207  -1.456  -3.447  0.00  0.00    +0.103 C 
ATOM     26  N   UNL     1       1.922  -2.418  -3.978  0.00  0.00    -0.191 NA
ENDBRANCH   3  25
TORSDOF 4
