REMARK  Name = ZINC09861215
REMARK  5 active torsions:
REMARK  status: ('A' for Active; 'I' for Inactive)
REMARK    1  A    between atoms: C_1  and  C_2
REMARK    2  A    between atoms: C_3  and  C_25
REMARK    3  A    between atoms: C_4  and  C_16
REMARK    4  A    between atoms: C_10  and  C_14
REMARK    5  A    between atoms: C_10  and  C_15
REMARK                            x       y       z     vdW  Elec       q    Type
REMARK                         _______ _______ _______ _____ _____    ______ ____
ROOT
ATOM      1  C   UNL     1       2.125   0.834   0.052  0.00  0.00    +0.061 C 
ATOM      2  C   UNL     1       0.988   1.822   0.003  0.00  0.00    +0.014 C 
ATOM      3  C   UNL     1      -0.279   1.379  -0.051  0.00  0.00    +0.043 C 
ATOM      4  C   UNL     1      -1.436   2.333  -0.101  0.00  0.00    +0.090 C 
ATOM      5  C   UNL     1      -0.984   3.714  -0.498  0.00  0.00    +0.024 C 
ATOM      6  C   UNL     1       0.318   4.064  -0.419  0.00  0.00    +0.016 C 
ATOM      7  N   UNL     1       1.254   3.163   0.013  0.00  0.00    -0.321 N 
ATOM      8  C   UNL     1       0.774   5.451  -0.799  0.00  0.00    +0.058 C 
ATOM      9  C   UNL     1      -0.133   6.006  -1.899  0.00  0.00    -0.023 C 
ATOM     10  C   UNL     1      -1.575   6.016  -1.381  0.00  0.00    +0.086 C 
ATOM     11  C   UNL     1      -1.953   4.624  -0.955  0.00  0.00    +0.162 C 
ATOM     12  O   UNL     1      -3.117   4.280  -1.006  0.00  0.00    -0.292 OA
ATOM     13  C   UNL     1      -0.039   5.117  -3.140  0.00  0.00    +0.011 C 
ATOM     14  C   UNL     1       0.296   7.431  -2.254  0.00  0.00    +0.011 C 
ATOM     15  H   UNL     1       2.228   3.528   0.372  0.00  0.00    +0.152 HD
ENDROOT
BRANCH   3  16
ATOM     16  C   UNL     1      -0.527  -0.015  -0.068  0.00  0.00    +0.248 C 
ATOM     17  O   UNL     1      -0.855  -0.563  -1.105  0.00  0.00    -0.270 OA
ATOM     18  N   UNL     1      -0.401  -0.736   1.063  0.00  0.00    -0.267 N 
ATOM     19  C   UNL     1      -0.537  -2.122   1.026  0.00  0.00    +0.125 A 
ATOM     20  C   UNL     1      -0.514  -2.849   2.211  0.00  0.00    +0.045 A 
ATOM     21  C   UNL     1      -0.651  -4.225   2.159  0.00  0.00    +0.020 A 
ATOM     22  C   UNL     1      -0.808  -4.829   0.918  0.00  0.00    +0.036 A 
ATOM     23  C   UNL     1      -0.821  -4.045  -0.219  0.00  0.00    +0.128 A 
ATOM     24  N   UNL     1      -0.693  -2.734  -0.138  0.00  0.00    -0.239 NA
ATOM     25 BR   UNL     1      -1.000  -6.706   0.787  0.00  0.00    -0.049 Br
ATOM     26  H   UNL     1      -0.189  -0.230   2.017  0.00  0.00    +0.157 HD
ENDBRANCH   3  16
BRANCH   4  27
ATOM     27  C   UNL     1      -2.080   2.401   1.260  0.00  0.00    -0.032 A 
ATOM     28  C   UNL     1      -1.340   2.813   2.353  0.00  0.00    +0.008 A 
ATOM     29  C   UNL     1      -1.928   2.882   3.603  0.00  0.00    +0.050 A 
ATOM     30  C   UNL     1      -3.257   2.527   3.764  0.00  0.00    +0.166 A 
ATOM     31  C   UNL     1      -4.000   2.107   2.664  0.00  0.00    +0.167 A 
ATOM     32  C   UNL     1      -3.407   2.046   1.414  0.00  0.00    +0.054 A 
ATOM     33  O   UNL     1      -5.268   1.817   3.080  0.00  0.00    -0.453 OA
ATOM     34  C   UNL     1      -5.181   1.673   4.510  0.00  0.00    +0.466 C 
ATOM     35  O   UNL     1      -4.059   2.500   4.869  0.00  0.00    -0.453 OA
ENDBRANCH   4  27
TORSDOF 2
