REMARK  Name = ZINC58994689
REMARK  9 active torsions:
REMARK  status: ('A' for Active; 'I' for Inactive)
REMARK    1  A    between atoms: C_4  and  O_7
REMARK    2  A    between atoms: O_7  and  C_8
REMARK    3  A    between atoms: C_12  and  C_14
REMARK    4  A    between atoms: N_15  and  N_16
REMARK    5  A    between atoms: C_19  and  S_22
REMARK    6  A    between atoms: S_22  and  C_23
REMARK    7  A    between atoms: C_23  and  C_24
REMARK    8  A    between atoms: N_26  and  C_27
REMARK    9  A    between atoms: C_28  and  C_35
REMARK                            x       y       z     vdW  Elec       q    Type
REMARK                         _______ _______ _______ _____ _____    ______ ____
ROOT
ATOM      1  N   UNL     1       6.657  -7.146  -0.076  0.00  0.00    -0.205 N 
ATOM      2  C   UNL     1       6.520  -8.521  -0.117  0.00  0.00    +0.232 A 
ATOM      3  N   UNL     1       5.385  -9.184  -0.187  0.00  0.00    -0.186 NA
ATOM      4  C   UNL     1       5.632 -10.498  -0.209  0.00  0.00    +0.211 A 
ATOM      5  N   UNL     1       6.928 -10.689  -0.152  0.00  0.00    -0.144 NA
ATOM      6  N   UNL     1       7.527  -9.420  -0.098  0.00  0.00    -0.245 N 
ATOM      7  H   UNL     1       7.540  -6.747  -0.029  0.00  0.00    +0.177 HD
ATOM      8  H   UNL     1       8.476  -9.227  -0.054  0.00  0.00    +0.192 HD
ENDROOT
BRANCH   1  10
ATOM      9  C   UNL     1       5.648  -5.036  -0.064  0.00  0.00    +0.138 C 
ATOM     10  N   UNL     1       5.520  -6.327  -0.102  0.00  0.00    -0.188 NA
BRANCH   9  15
ATOM     11  C   UNL     1       3.459  -1.984  -0.077  0.00  0.00    +0.129 A 
ATOM     12  C   UNL     1       2.197  -2.561  -0.144  0.00  0.00    +0.046 A 
ATOM     13  C   UNL     1       2.061  -3.936  -0.185  0.00  0.00    +0.004 A 
ATOM     14  C   UNL     1       3.178  -4.746  -0.160  0.00  0.00    +0.010 A 
ATOM     15  C   UNL     1       4.452  -4.175  -0.092  0.00  0.00    -0.002 A 
ATOM     16  C   UNL     1       4.587  -2.786  -0.056  0.00  0.00    +0.055 A 
BRANCH  11  17
ATOM     17  O   UNL     1       3.586  -0.632  -0.037  0.00  0.00    -0.456 OA
BRANCH  17  21
ATOM     18  C   UNL     1       3.913   1.389  -3.619  0.00  0.00    +0.000 A 
ATOM     19  C   UNL     1       3.772   0.013  -3.613  0.00  0.00    +0.004 A 
ATOM     20  C   UNL     1       3.663  -0.666  -2.415  0.00  0.00    +0.046 A 
ATOM     21  C   UNL     1       3.694   0.034  -1.217  0.00  0.00    +0.128 A 
ATOM     22  C   UNL     1       3.835   1.414  -1.226  0.00  0.00    +0.046 A 
ATOM     23  C   UNL     1       3.944   2.088  -2.426  0.00  0.00    +0.004 A 
ENDBRANCH  17  21
ENDBRANCH  11  17
ENDBRANCH   9  15
ENDBRANCH   1  10
BRANCH   4  24
ATOM     24  S   UNL     1       4.413 -11.768  -0.298  0.00  0.00    -0.075 S 
BRANCH  24  25
ATOM     25  C   UNL     1       5.378 -13.304  -0.291  0.00  0.00    +0.173 C 
BRANCH  25  26
ATOM     26  C   UNL     1       4.444 -14.484  -0.364  0.00  0.00    +0.228 C 
ATOM     27  O   UNL     1       3.245 -14.307  -0.416  0.00  0.00    -0.275 OA
ATOM     28  N   UNL     1       4.941 -15.737  -0.373  0.00  0.00    -0.278 N 
ATOM     29  H   UNL     1       5.899 -15.879  -0.331  0.00  0.00    +0.155 HD
BRANCH  28  30
ATOM     30  C   UNL     1       4.081 -16.824  -0.440  0.00  0.00    +0.090 A 
ATOM     31  C   UNL     1       4.407 -18.167  -0.453  0.00  0.00    +0.084 A 
ATOM     32  C   UNL     1       3.306 -19.124  -0.530  0.00  0.00    -0.018 A 
ATOM     33  C   UNL     1       2.087 -18.555  -0.581  0.00  0.00    -0.004 A 
ATOM     34  S   UNL     1       2.405 -16.811  -0.518  0.00  0.00    -0.077 S 
ATOM     35  C   UNL     1       0.992 -19.584  -0.664  0.00  0.00    +0.043 C 
ATOM     36  C   UNL     1       1.708 -20.884  -1.091  0.00  0.00    +0.010 C 
ATOM     37  C   UNL     1       3.139 -20.642  -0.568  0.00  0.00    +0.037 C 
BRANCH  31  38
ATOM     38  C   UNL     1       5.770 -18.602  -0.394  0.00  0.00    +0.102 C 
ATOM     39  N   UNL     1       6.851 -18.948  -0.347  0.00  0.00    -0.191 NA
ENDBRANCH  31  38
ENDBRANCH  28  30
ENDBRANCH  25  26
ENDBRANCH  24  25
ENDBRANCH   4  24
TORSDOF 9
