REMARK  Name = ZINC56723099
REMARK  9 active torsions:
REMARK  status: ('A' for Active; 'I' for Inactive)
REMARK    1  A    between atoms: C_1  and  C_2
REMARK    2  A    between atoms: C_2  and  C_4
REMARK    3  A    between atoms: C_2  and  N_14
REMARK    4  A    between atoms: C_8  and  S_10
REMARK    5  A    between atoms: S_10  and  N_13
REMARK    6  A    between atoms: N_17  and  C_18
REMARK    7  A    between atoms: C_21  and  N_25
REMARK    8  A    between atoms: N_25  and  C_26
REMARK    9  A    between atoms: N_25  and  C_27
REMARK                            x       y       z     vdW  Elec       q    Type
REMARK                         _______ _______ _______ _____ _____    ______ ____
ROOT
ATOM      1  N   UNL     1      -1.426  -0.357   0.016  0.00  0.00    -0.293 N 
ATOM      2  C   UNL     1      -2.097  -0.501   1.176  0.00  0.00    +0.304 C 
ATOM      3  O   UNL     1      -1.623  -0.070   2.210  0.00  0.00    -0.252 OA
ATOM      4  N   UNL     1      -3.293  -1.122   1.190  0.00  0.00    -0.269 N 
ATOM      5  H   UNL     1      -1.804  -0.700  -0.809  0.00  0.00    +0.151 HD
ATOM      6  H   UNL     1      -3.707  -1.396   0.357  0.00  0.00    +0.156 HD
ENDROOT
BRANCH   4   7
ATOM      7  C   UNL     1      -3.939  -1.371   2.409  0.00  0.00    +0.040 A 
ATOM      8  C   UNL     1      -5.325  -1.347   2.477  0.00  0.00    +0.063 A 
ATOM      9  C   UNL     1      -5.963  -1.593   3.679  0.00  0.00    +0.149 A 
ATOM     10  C   UNL     1      -5.216  -1.864   4.819  0.00  0.00    +0.101 A 
ATOM     11  C   UNL     1      -3.829  -1.888   4.750  0.00  0.00    +0.149 A 
ATOM     12  C   UNL     1      -3.192  -1.647   3.546  0.00  0.00    +0.063 A 
ATOM     13  F   UNL     1      -3.102  -2.152   5.858  0.00  0.00    -0.203 F 
ATOM     14  F   UNL     1      -7.313  -1.569   3.745  0.00  0.00    -0.203 F 
BRANCH  10  15
ATOM     15  N   UNL     1      -5.863  -2.114   6.039  0.00  0.00    -0.332 N 
ATOM     16  C   UNL     1      -6.236  -3.482   6.404  0.00  0.00    +0.129 C 
ATOM     17  C   UNL     1      -6.165  -1.005   6.948  0.00  0.00    +0.129 C 
ENDBRANCH  10  15
ENDBRANCH   4   7
BRANCH   1  19
ATOM     18  C   UNL     1      -0.338   1.830  -0.104  0.00  0.00    +0.033 C 
ATOM     19  C   UNL     1      -0.126   0.318   0.001  0.00  0.00    +0.102 C 
BRANCH  19  20
ATOM     20  C   UNL     1       0.674  -0.160  -1.183  0.00  0.00    -0.026 A 
ATOM     21  C   UNL     1       0.053  -0.360  -2.402  0.00  0.00    +0.005 A 
ATOM     22  C   UNL     1       0.787  -0.799  -3.488  0.00  0.00    +0.002 A 
ATOM     23  C   UNL     1       2.142  -1.037  -3.356  0.00  0.00    +0.028 A 
ATOM     24  C   UNL     1       2.764  -0.835  -2.138  0.00  0.00    +0.105 A 
ATOM     25  C   UNL     1       2.030  -0.393  -1.053  0.00  0.00    +0.034 A 
BRANCH  24  26
ATOM     26  S   UNL     1       4.491  -1.139  -1.969  0.00  0.00    +0.056 S 
ATOM     27  O   UNL     1       4.725  -1.398  -0.592  0.00  0.00    -0.153 OA
ATOM     28  O   UNL     1       4.842  -2.064  -2.989  0.00  0.00    -0.153 OA
BRANCH  26  29
ATOM     29  N   UNL     1       5.274   0.276  -2.324  0.00  0.00    -0.204 NA
ATOM     30  H   UNL     1       6.124   0.479  -1.903  0.00  0.00    +0.144 HD
ATOM     31  H   UNL     1       4.883   0.902  -2.954  0.00  0.00    +0.144 HD
ENDBRANCH  26  29
ENDBRANCH  24  26
ENDBRANCH  19  20
ENDBRANCH   1  19
TORSDOF 6
