REMARK  Name = ZINC02358871
REMARK  9 active torsions:
REMARK  status: ('A' for Active; 'I' for Inactive)
REMARK    1  A    between atoms: C_1  and  C_2
REMARK    2  A    between atoms: C_2  and  C_4
REMARK    3  A    between atoms: C_2  and  N_10
REMARK    4  A    between atoms: C_11  and  N_29
REMARK    5  A    between atoms: C_12  and  C_23
REMARK    6  A    between atoms: C_23  and  O_25
REMARK    7  A    between atoms: O_25  and  C_26
REMARK    8  A    between atoms: C_26  and  C_27
REMARK    9  A    between atoms: C_26  and  C_28
REMARK                            x       y       z     vdW  Elec       q    Type
REMARK                         _______ _______ _______ _____ _____    ______ ____
ROOT
ATOM      1  N   UNL     1      -1.403  -0.301  -0.273  0.00  0.00    -0.305 N 
ATOM      2  C   UNL     1      -2.040  -0.022  -1.443  0.00  0.00    +0.115 A 
ATOM      3  C   UNL     1      -3.369  -0.431  -1.382  0.00  0.00    +0.126 A 
ATOM      4  C   UNL     1      -3.563  -1.017  -0.045  0.00  0.00    +0.124 A 
ATOM      5  C   UNL     1      -2.261  -0.910   0.619  0.00  0.00    +0.163 A 
ATOM      6  N   UNL     1      -2.122  -1.363   1.846  0.00  0.00    -0.226 NA
ATOM      7  C   UNL     1      -3.165  -1.920   2.474  0.00  0.00    +0.092 A 
ATOM      8  C   UNL     1      -3.025  -2.407   3.787  0.00  0.00    +0.030 A 
ATOM      9  C   UNL     1      -4.091  -2.971   4.418  0.00  0.00    +0.002 A 
ATOM     10  C   UNL     1      -5.327  -3.075   3.782  0.00  0.00    +0.002 A 
ATOM     11  C   UNL     1      -5.501  -2.615   2.514  0.00  0.00    +0.030 A 
ATOM     12  C   UNL     1      -4.423  -2.026   1.829  0.00  0.00    +0.090 A 
ATOM     13  N   UNL     1      -4.585  -1.563   0.583  0.00  0.00    -0.241 NA
ENDROOT
BRANCH   2  14
ATOM     14  N   UNL     1      -1.456   0.578  -2.527  0.00  0.00    -0.344 N 
ATOM     15  H   UNL     1      -0.505   0.769  -2.522  0.00  0.00    +0.144 HD
ATOM     16  H   UNL     1      -1.993   0.810  -3.300  0.00  0.00    +0.144 HD
ENDBRANCH   2  14
BRANCH   1  18
ATOM     17  C   UNL     1       0.717  -1.273   0.462  0.00  0.00    +0.036 C 
ATOM     18  C   UNL     1       0.005  -0.001  -0.001  0.00  0.00    +0.117 C 
BRANCH  18  19
ATOM     19  C   UNL     1       0.096   1.047   1.079  0.00  0.00    -0.025 A 
ATOM     20  C   UNL     1      -0.255   0.732   2.378  0.00  0.00    +0.005 A 
ATOM     21  C   UNL     1      -0.172   1.693   3.369  0.00  0.00    +0.000 A 
ATOM     22  C   UNL     1       0.262   2.969   3.059  0.00  0.00    +0.000 A 
ATOM     23  C   UNL     1       0.613   3.283   1.760  0.00  0.00    +0.000 A 
ATOM     24  C   UNL     1       0.534   2.321   0.770  0.00  0.00    +0.005 A 
ENDBRANCH  18  19
ENDBRANCH   1  18
BRANCH   3  25
ATOM     25  C   UNL     1      -4.341  -0.308  -2.404  0.00  0.00    +0.345 C 
ATOM     26  O   UNL     1      -4.485  -1.201  -3.218  0.00  0.00    -0.245 OA
BRANCH  25  27
ATOM     27  O   UNL     1      -5.109   0.800  -2.474  0.00  0.00    -0.458 OA
BRANCH  27  28
ATOM     28  C   UNL     1      -6.070   0.857  -3.530  0.00  0.00    +0.171 C 
ATOM     29  C   UNL     1      -7.391   0.254  -3.051  0.00  0.00    +0.052 C 
ATOM     30  C   UNL     1      -6.293   2.314  -3.939  0.00  0.00    +0.052 C 
ENDBRANCH  27  28
ENDBRANCH  25  27
ENDBRANCH   3  25
TORSDOF 6
