REMARK  Name = ZINC02863656
REMARK  6 active torsions:
REMARK  status: ('A' for Active; 'I' for Inactive)
REMARK    1  A    between atoms: C_1  and  C_2
REMARK    2  A    between atoms: C_5  and  N_9
REMARK    3  A    between atoms: C_7  and  C_8
REMARK    4  A    between atoms: C_18  and  C_22
REMARK    5  A    between atoms: C_18  and  N_26
REMARK    6  A    between atoms: C_28  and  C_30
REMARK                            x       y       z     vdW  Elec       q    Type
REMARK                         _______ _______ _______ _____ _____    ______ ____
ROOT
ATOM      1  N   UNL     1       1.471   4.497   0.012  0.00  0.00    -0.249 N 
ATOM      2  C   UNL     1       0.698   3.468  -0.489  0.00  0.00    +0.125 A 
ATOM      3  C   UNL     1      -0.658   3.605  -0.462  0.00  0.00    +0.097 A 
ATOM      4  C   UNL     1      -1.239   4.765   0.065  0.00  0.00    +0.262 A 
ATOM      5  O   UNL     1      -2.451   4.890   0.091  0.00  0.00    -0.267 OA
ATOM      6  N   UNL     1      -0.443   5.744   0.545  0.00  0.00    -0.274 N 
ATOM      7  H   UNL     1      -0.848   6.576   0.923  0.00  0.00    +0.173 HD
ATOM      8  C   UNL     1       0.895   5.602   0.515  0.00  0.00    +0.335 A 
ATOM      9  O   UNL     1       1.598   6.493   0.951  0.00  0.00    -0.246 OA
ATOM     10  C   UNL     1      -1.231   2.348  -1.072  0.00  0.00    +0.240 C 
ATOM     11  C   UNL     1      -0.003   1.528  -1.415  0.00  0.00    +0.256 C 
ATOM     12  O   UNL     1       0.018   0.430  -1.927  0.00  0.00    -0.272 OA
ATOM     13  N   UNL     1       1.060   2.264  -1.042  0.00  0.00    -0.269 N 
ATOM     14  H   UNL     1       1.980   1.976  -1.152  0.00  0.00    +0.156 HD
ENDROOT
BRANCH   1  19
ATOM     15  C   UNL     1       7.128   4.050  -0.042  0.00  0.00    +0.044 C 
ATOM     16  C   UNL     1       5.626   4.168  -0.028  0.00  0.00    -0.047 A 
ATOM     17  C   UNL     1       4.968   4.733  -1.105  0.00  0.00    +0.005 A 
ATOM     18  C   UNL     1       3.591   4.838  -1.097  0.00  0.00    +0.026 A 
ATOM     19  C   UNL     1       2.868   4.386  -0.001  0.00  0.00    +0.053 A 
ATOM     20  C   UNL     1       3.531   3.820   1.079  0.00  0.00    +0.030 A 
ATOM     21  C   UNL     1       4.908   3.712   1.062  0.00  0.00    -0.046 A 
ATOM     22  C   UNL     1       5.629   3.097   2.234  0.00  0.00    +0.044 C 
ENDBRANCH   1  19
BRANCH  10  23
ATOM     23  C   UNL     1      -2.030   2.674  -2.335  0.00  0.00    +0.424 C 
ATOM     24  F   UNL     1      -2.464   1.486  -2.933  0.00  0.00    -0.167 F 
ATOM     25  F   UNL     1      -3.138   3.458  -1.997  0.00  0.00    -0.167 F 
ATOM     26  F   UNL     1      -1.218   3.378  -3.232  0.00  0.00    -0.167 F 
ENDBRANCH  10  23
BRANCH  10  27
ATOM     27  N   UNL     1      -2.068   1.641  -0.100  0.00  0.00    -0.287 N 
ATOM     28  H   UNL     1      -2.237   2.034   0.771  0.00  0.00    +0.151 HD
ATOM     29  C   UNL     1      -2.603   0.444  -0.414  0.00  0.00    +0.245 C 
ATOM     30  O   UNL     1      -2.390  -0.049  -1.505  0.00  0.00    -0.270 OA
BRANCH  29  31
ATOM     31  C   UNL     1      -3.447  -0.269   0.567  0.00  0.00    +0.037 A 
ATOM     32  C   UNL     1      -3.688   0.291   1.823  0.00  0.00    +0.014 A 
ATOM     33  C   UNL     1      -4.481  -0.376   2.732  0.00  0.00    +0.021 A 
ATOM     34  C   UNL     1      -5.029  -1.605   2.406  0.00  0.00    +0.041 A 
ATOM     35  C   UNL     1      -4.789  -2.170   1.164  0.00  0.00    +0.021 A 
ATOM     36  C   UNL     1      -4.002  -1.509   0.244  0.00  0.00    +0.014 A 
ATOM     37 CL   UNL     1      -6.022  -2.443   3.558  0.00  0.00    -0.084 Cl
ENDBRANCH  29  31
ENDBRANCH  10  27
TORSDOF 4
