REMARK  Name = ZINC01389454
REMARK  3 active torsions:
REMARK  status: ('A' for Active; 'I' for Inactive)
REMARK    1  A    between atoms: C_4  and  N_7
REMARK    2  A    between atoms: N_15  and  C_18
REMARK    3  A    between atoms: C_21  and  C_23
REMARK                            x       y       z     vdW  Elec       q    Type
REMARK                         _______ _______ _______ _____ _____    ______ ____
ROOT
ATOM      1  N   UNL     1      -0.070  -2.455   1.934  0.00  0.00    -0.187 N 
ATOM      2  C   UNL     1      -0.480  -1.420   2.682  0.00  0.00    +0.322 C 
ATOM      3  O   UNL     1      -1.074  -1.532   3.736  0.00  0.00    -0.251 OA
ATOM      4  N   UNL     1      -0.150  -0.241   2.120  0.00  0.00    -0.278 N 
ATOM      5  C   UNL     1       0.551  -0.552   0.869  0.00  0.00    +0.106 C 
ATOM      6  N   UNL     1       0.570  -2.022   0.807  0.00  0.00    -0.209 NA
ATOM      7  C   UNL     1      -0.208   0.022  -0.324  0.00  0.00    +0.062 C 
ATOM      8  C   UNL     1      -0.187   1.552  -0.250  0.00  0.00    +0.110 C 
ATOM      9  N   UNL     1       1.205   2.022  -0.240  0.00  0.00    -0.315 N 
ATOM     10  C   UNL     1       1.926   1.528   0.940  0.00  0.00    +0.110 C 
ATOM     11  C   UNL     1       1.974  -0.002   0.906  0.00  0.00    +0.062 C 
ATOM     12  H   UNL     1      -0.340   0.642   2.474  0.00  0.00    +0.152 HD
ATOM     13  H   UNL     1       0.104  -2.355  -0.024  0.00  0.00    +0.147 HD
ENDROOT
BRANCH   9  14
ATOM     14  C   UNL     1       1.262   3.409  -0.315  0.00  0.00    +0.118 A 
ATOM     15  C   UNL     1       2.282   4.019  -1.041  0.00  0.00    +0.079 A 
ATOM     16  C   UNL     1       2.323   5.401  -1.112  0.00  0.00    +0.037 A 
ATOM     17  C   UNL     1       1.347   6.128  -0.442  0.00  0.00    +0.072 A 
ATOM     18  C   UNL     1       0.369   5.457   0.263  0.00  0.00    +0.096 A 
ATOM     19 CL   UNL     1       3.480   3.060  -1.852  0.00  0.00    -0.080 Cl
ATOM     20  N   UNL     1       0.294   4.102   0.350  0.00  0.00    -0.348 N 
ATOM     21  H   UNL     1      -0.446   3.630   0.883  0.00  0.00    +0.167 HD
BRANCH  17  22
ATOM     22  C   UNL     1       1.356   7.634  -0.487  0.00  0.00    +0.419 C 
ATOM     23  F   UNL     1       0.281   8.129   0.258  0.00  0.00    -0.166 F 
ATOM     24  F   UNL     1       2.556   8.110   0.054  0.00  0.00    -0.166 F 
ATOM     25  F   UNL     1       1.241   8.062  -1.813  0.00  0.00    -0.166 F 
ENDBRANCH  17  22
ENDBRANCH   9  14
BRANCH   1  29
ATOM     26  C   UNL     1      -0.670  -6.458   2.918  0.00  0.00    +0.000 A 
ATOM     27  C   UNL     1      -1.719  -5.561   3.006  0.00  0.00    +0.002 A 
ATOM     28  C   UNL     1      -1.524  -4.234   2.681  0.00  0.00    +0.025 A 
ATOM     29  C   UNL     1      -0.272  -3.799   2.265  0.00  0.00    +0.054 A 
ATOM     30  C   UNL     1       0.778  -4.704   2.172  0.00  0.00    +0.025 A 
ATOM     31  C   UNL     1       0.577  -6.029   2.505  0.00  0.00    +0.002 A 
ENDBRANCH   1  29
TORSDOF 3
