REMARK  Name = ZINC20696136
REMARK  5 active torsions:
REMARK  status: ('A' for Active; 'I' for Inactive)
REMARK    1  A    between atoms: C_5  and  C_7
REMARK    2  A    between atoms: N_9  and  C_10
REMARK    3  A    between atoms: C_10  and  C_11
REMARK    4  A    between atoms: C_18  and  C_27
REMARK    5  A    between atoms: C_32  and  O_33
REMARK                            x       y       z     vdW  Elec       q    Type
REMARK                         _______ _______ _______ _____ _____    ______ ____
ROOT
ATOM      1  C   UNL     1      -5.857  -0.323  -1.020  0.00  0.00    +0.001 A 
ATOM      2  C   UNL     1      -6.782  -0.029  -2.008  0.00  0.00    +0.006 A 
ATOM      3  C   UNL     1      -6.447   0.780  -3.071  0.00  0.00    -0.019 A 
ATOM      4  C   UNL     1      -5.159   1.313  -3.180  0.00  0.00    +0.044 A 
ATOM      5  C   UNL     1      -4.225   1.013  -2.167  0.00  0.00    +0.058 A 
ATOM      6  C   UNL     1      -4.582   0.193  -1.098  0.00  0.00    +0.015 A 
ATOM      7  N   UNL     1      -4.729   2.102  -4.234  0.00  0.00    -0.336 N 
ATOM      8  C   UNL     1      -5.737   2.475  -5.239  0.00  0.00    +0.108 C 
ATOM      9  C   UNL     1      -6.621   1.265  -5.456  0.00  0.00    +0.029 C 
ATOM     10  C   UNL     1      -7.425   1.123  -4.126  0.00  0.00    +0.049 C 
ATOM     11  C   UNL     1      -8.545   0.227  -4.505  0.00  0.00    -0.023 C 
ATOM     12  C   UNL     1      -8.801   0.395  -5.798  0.00  0.00    -0.030 C 
ATOM     13  C   UNL     1      -7.823   1.410  -6.396  0.00  0.00    +0.033 C 
ATOM     14  H   UNL     1      -3.691   2.447  -4.342  0.00  0.00    +0.147 HD
ENDROOT
BRANCH   8  15
ATOM     15  C   UNL     1      -6.563   3.630  -4.734  0.00  0.00    +0.015 A 
ATOM     16  C   UNL     1      -6.689   3.847  -3.375  0.00  0.00    +0.024 A 
ATOM     17  C   UNL     1      -7.447   4.907  -2.911  0.00  0.00    +0.018 A 
ATOM     18  C   UNL     1      -8.080   5.752  -3.805  0.00  0.00    +0.019 A 
ATOM     19  C   UNL     1      -7.956   5.538  -5.164  0.00  0.00    +0.047 A 
ATOM     20  C   UNL     1      -7.192   4.479  -5.632  0.00  0.00    +0.122 A 
ATOM     21 BR   UNL     1      -7.617   5.202  -1.051  0.00  0.00    -0.050 Br
BRANCH  20  22
ATOM     22  O   UNL     1      -7.064   4.271  -6.969  0.00  0.00    -0.506 OA
ATOM     23  H   UNL     1      -7.564   4.945  -7.681  0.00  0.00    +0.292 HD
ENDBRANCH  20  22
ENDBRANCH   8  15
BRANCH   5  24
ATOM     24  C   UNL     1      -2.861   1.567  -2.241  0.00  0.00    +0.246 C 
ATOM     25  O   UNL     1      -2.543   2.279  -3.174  0.00  0.00    -0.270 OA
ATOM     26  N   UNL     1      -1.965   1.283  -1.275  0.00  0.00    -0.309 N 
ATOM     27  H   UNL     1      -2.252   0.639  -0.431  0.00  0.00    +0.149 HD
BRANCH  26  28
ATOM     28  C   UNL     1      -0.609   1.833  -1.349  0.00  0.00    +0.136 C 
BRANCH  28  29
ATOM     29  C   UNL     1       0.199   1.362  -0.138  0.00  0.00    +0.135 C 
ATOM     30  C   UNL     1       1.626   1.941  -0.203  0.00  0.00    +0.035 C 
ATOM     31  C   UNL     1       1.768   2.745   1.113  0.00  0.00    +0.031 C 
ATOM     32  C   UNL     1       0.670   2.109   2.002  0.00  0.00    +0.160 C 
ATOM     33  O   UNL     1      -0.404   1.844   1.074  0.00  0.00    -0.375 OA
ENDBRANCH  28  29
ENDBRANCH  26  28
ENDBRANCH   5  24
TORSDOF 5
