REMARK  Name = ZINC39435966
REMARK  5 active torsions:
REMARK  status: ('A' for Active; 'I' for Inactive)
REMARK    1  A    between atoms: C_9  and  O_24
REMARK    2  A    between atoms: C_10  and  C_11
REMARK    3  A    between atoms: C_12  and  C_13
REMARK    4  A    between atoms: C_12  and  C_15
REMARK    5  A    between atoms: O_24  and  C_25
REMARK                            x       y       z     vdW  Elec       q    Type
REMARK                         _______ _______ _______ _____ _____    ______ ____
ROOT
ATOM      1  C   UNL     1       0.024   1.405   0.040  0.00  0.00    +0.001 A 
ATOM      2  C   UNL     1       1.215   2.126   0.060  0.00  0.00    +0.001 A 
ATOM      3  C   UNL     1       2.420   1.488   0.045  0.00  0.00    +0.009 A 
ATOM      4  C   UNL     1       2.462   0.090   0.009  0.00  0.00    -0.007 A 
ATOM      5  C   UNL     1       1.253  -0.647  -0.011  0.00  0.00    -0.017 A 
ATOM      6  C   UNL     1       0.029   0.044   0.004  0.00  0.00    +0.008 A 
ATOM      7  C   UNL     1       1.297  -2.052  -0.047  0.00  0.00    +0.012 A 
ATOM      8  C   UNL     1       2.485  -2.712  -0.061  0.00  0.00    +0.047 A 
ATOM      9  C   UNL     1       3.703  -2.033  -0.041  0.00  0.00    +0.138 A 
ATOM     10  C   UNL     1       3.732  -0.636  -0.007  0.00  0.00    +0.026 A 
ENDROOT
BRANCH  10  11
ATOM     11  C   UNL     1       5.007   0.086   0.013  0.00  0.00    +0.030 C 
ATOM     12  C   UNL     1       5.966  -0.259   0.903  0.00  0.00    +0.072 C 
BRANCH  12  13
ATOM     13  C   UNL     1       7.277   0.483   0.924  0.00  0.00    +0.216 C 
ATOM     14  N   UNL     1       8.390  -0.455   0.735  0.00  0.00    -0.359 N 
ATOM     15  C   UNL     1       9.143  -0.387   1.794  0.00  0.00    +0.060 A 
ATOM     16  C   UNL     1      10.382  -1.074   2.186  0.00  0.00    +0.027 A 
ATOM     17  C   UNL     1      10.951  -0.792   3.375  0.00  0.00    +0.002 A 
ATOM     18  C   UNL     1      10.407   0.143   4.274  0.00  0.00    +0.002 A 
ATOM     19  C   UNL     1       9.276   0.828   4.013  0.00  0.00    +0.027 A 
ATOM     20  C   UNL     1       8.568   0.604   2.745  0.00  0.00    +0.060 A 
ATOM     21  N   UNL     1       7.481   1.109   2.236  0.00  0.00    -0.359 N 
ATOM     22  H   UNL     1       8.538  -1.023  -0.038  0.00  0.00    +0.162 HD
ATOM     23  H   UNL     1       6.912   1.777   2.649  0.00  0.00    +0.162 HD
ENDBRANCH  12  13
BRANCH  12  24
ATOM     24  C   UNL     1       5.734  -1.329   1.826  0.00  0.00    +0.099 C 
ATOM     25  N   UNL     1       5.550  -2.178   2.559  0.00  0.00    -0.191 NA
ENDBRANCH  12  24
ENDBRANCH  10  11
BRANCH   9  26
ATOM     26  O   UNL     1       4.865  -2.733  -0.056  0.00  0.00    -0.435 OA
BRANCH  26  27
ATOM     27  C   UNL     1       5.455  -2.960  -1.254  0.00  0.00    +0.261 A 
ATOM     28  C   UNL     1       6.600  -3.755  -1.341  0.00  0.00    +0.203 A 
ATOM     29  C   UNL     1       7.166  -3.958  -2.587  0.00  0.00    +0.157 A 
ATOM     30  N   UNL     1       6.607  -3.396  -3.650  0.00  0.00    -0.223 NA
ATOM     31  C   UNL     1       5.526  -2.650  -3.533  0.00  0.00    +0.226 A 
ATOM     32  N   UNL     1       4.952  -2.435  -2.365  0.00  0.00    -0.180 NA
ATOM     33 CL   UNL     1       4.835  -1.937  -4.957  0.00  0.00    -0.041 Cl
ATOM     34  F   UNL     1       7.142  -4.312  -0.236  0.00  0.00    -0.198 F 
ENDBRANCH  26  27
ENDBRANCH   9  26
TORSDOF 5
