REMARK  Name = ZINC35747291
REMARK  15 active torsions:
REMARK  status: ('A' for Active; 'I' for Inactive)
REMARK    1  A    between atoms: C_1  and  O_2
REMARK    2  A    between atoms: O_2  and  C_3
REMARK    3  A    between atoms: C_3  and  C_4
REMARK    4  A    between atoms: C_4  and  C_6
REMARK    5  A    between atoms: C_4  and  O_36
REMARK    6  A    between atoms: C_6  and  N_7
REMARK    7  A    between atoms: N_7  and  C_8
REMARK    8  A    between atoms: N_7  and  C_14
REMARK    9  A    between atoms: C_8  and  C_9
REMARK   10  A    between atoms: C_14  and  C_15
REMARK   11  A    between atoms: C_21  and  C_26
REMARK   12  A    between atoms: C_29  and  O_34
REMARK   13  A    between atoms: C_30  and  O_32
REMARK   14  A    between atoms: O_32  and  C_33
REMARK   15  A    between atoms: O_34  and  C_35
REMARK                            x       y       z     vdW  Elec       q    Type
REMARK                         _______ _______ _______ _____ _____    ______ ____
ROOT
ATOM      1  C   UNL     1      -2.899  -6.680   0.674  0.00  0.00    +0.094 A 
ATOM      2  N   UNL     1      -3.846  -7.631   0.884  0.00  0.00    -0.312 N 
ATOM      3  H   UNL     1      -4.771  -7.363   1.001  0.00  0.00    +0.170 HD
ATOM      4  C   UNL     1      -3.526  -8.937   0.934  0.00  0.00    +0.260 A 
ATOM      5  O   UNL     1      -4.387  -9.779   1.123  0.00  0.00    -0.267 OA
ATOM      6  C   UNL     1      -2.158  -9.323   0.760  0.00  0.00    +0.080 A 
ATOM      7  C   UNL     1      -1.567 -10.656   0.771  0.00  0.00    +0.004 A 
ATOM      8  C   UNL     1      -0.232 -10.778   0.583  0.00  0.00    +0.056 A 
ATOM      9  S   UNL     1       0.312  -9.093   0.378  0.00  0.00    -0.076 S 
ATOM     10  C   UNL     1      -1.251  -8.272   0.549  0.00  0.00    +0.116 A 
ATOM     11  N   UNL     1      -1.644  -7.002   0.508  0.00  0.00    -0.229 NA
ENDROOT
BRANCH   7  12
ATOM     12  C   UNL     1      -2.413 -11.855   0.985  0.00  0.00    -0.013 A 
ATOM     13  C   UNL     1      -3.307 -11.898   2.054  0.00  0.00    +0.012 A 
ATOM     14  C   UNL     1      -4.094 -13.014   2.252  0.00  0.00    +0.050 A 
ATOM     15  C   UNL     1      -3.997 -14.096   1.390  0.00  0.00    +0.162 A 
ATOM     16  C   UNL     1      -3.106 -14.059   0.321  0.00  0.00    +0.162 A 
ATOM     17  C   UNL     1      -2.319 -12.940   0.115  0.00  0.00    +0.058 A 
BRANCH  16  18
ATOM     18  O   UNL     1      -3.013 -15.121  -0.523  0.00  0.00    -0.491 OA
ATOM     19  C   UNL     1      -2.078 -15.015  -1.599  0.00  0.00    +0.277 C 
ENDBRANCH  16  18
BRANCH  15  20
ATOM     20  O   UNL     1      -4.773 -15.195   1.590  0.00  0.00    -0.491 OA
ATOM     21  C   UNL     1      -5.665 -15.165   2.706  0.00  0.00    +0.277 C 
ENDBRANCH  15  20
ENDBRANCH   7  12
BRANCH   1  22
ATOM     22  C   UNL     1      -3.305  -5.229   0.626  0.00  0.00    -0.003 C 
BRANCH  22  23
ATOM     23  N   UNL     1      -2.119  -4.397   0.383  0.00  0.00    +0.391 N 
ATOM     24  H   UNL     1      -1.419  -4.597   1.082  0.00  0.00    -0.080 HD
BRANCH  23  25
ATOM     25  C   UNL     1      -2.493  -2.979   0.455  0.00  0.00    -0.044 C 
BRANCH  25  26
ATOM     26  C   UNL     1      -2.921  -2.636   1.883  0.00  0.00    +0.124 C 
BRANCH  26  27
ATOM     27  O   UNL     1      -1.826  -2.854   2.775  0.00  0.00    -0.391 OA
ATOM     28  H   UNL     1      -1.070  -2.272   2.618  0.00  0.00    +0.210 HD
ENDBRANCH  26  27
BRANCH  26  29
ATOM     29  C   UNL     1      -3.349  -1.169   1.950  0.00  0.00    +0.188 C 
BRANCH  29  31
ATOM     30  C   UNL     1      -4.287   0.473   3.422  0.00  0.00    +0.194 C 
ATOM     31  O   UNL     1      -3.858  -0.879   3.253  0.00  0.00    -0.381 OA
ENDBRANCH  29  31
ENDBRANCH  26  29
ENDBRANCH  25  26
ENDBRANCH  23  25
BRANCH  23  32
ATOM     32  C   UNL     1      -1.577  -4.694  -0.950  0.00  0.00    -0.002 C 
BRANCH  32  33
ATOM     33  C   UNL     1      -0.282  -3.949  -1.143  0.00  0.00    +0.089 A 
ATOM     34  C   UNL     1       0.932  -4.363  -0.737  0.00  0.00    +0.042 A 
ATOM     35  C   UNL     1       1.855  -3.364  -1.122  0.00  0.00    +0.041 A 
ATOM     36  C   UNL     1       1.150  -2.399  -1.740  0.00  0.00    +0.195 A 
ATOM     37  O   UNL     1      -0.143  -2.761  -1.755  0.00  0.00    -0.470 OA
ENDBRANCH  32  33
ENDBRANCH  23  32
ENDBRANCH  22  23
ENDBRANCH   1  22
TORSDOF 12
