REMARK  Name = ZINC09410469
REMARK  10 active torsions:
REMARK  status: ('A' for Active; 'I' for Inactive)
REMARK    1  A    between atoms: C_1  and  C_2
REMARK    2  A    between atoms: C_2  and  O_3
REMARK    3  A    between atoms: O_3  and  C_4
REMARK    4  A    between atoms: C_4  and  C_6
REMARK    5  A    between atoms: C_10  and  N_11
REMARK    6  A    between atoms: N_14  and  N_15
REMARK    7  A    between atoms: C_16  and  C_18
REMARK    8  A    between atoms: C_22  and  O_24
REMARK    9  A    between atoms: C_27  and  C_29
REMARK   10  A    between atoms: C_27  and  C_30
REMARK                            x       y       z     vdW  Elec       q    Type
REMARK                         _______ _______ _______ _____ _____    ______ ____
ROOT
ATOM      1  N   UNL     1       7.466   4.441  -2.541  0.00  0.00    -0.262 N 
ATOM      2  C   UNL     1       6.848   4.168  -3.708  0.00  0.00    +0.321 C 
ATOM      3  O   UNL     1       7.395   4.431  -4.761  0.00  0.00    -0.251 OA
ATOM      4  N   UNL     1       5.625   3.603  -3.706  0.00  0.00    -0.218 N 
ATOM      5  H   UNL     1       7.029   4.231  -1.701  0.00  0.00    +0.157 HD
ATOM      6  H   UNL     1       5.181   3.406  -4.546  0.00  0.00    +0.174 HD
ENDROOT
BRANCH   1  11
ATOM      7  C   UNL     1       9.511   5.381  -1.454  0.00  0.00    +0.091 A 
ATOM      8  C   UNL     1      10.804   5.976  -1.733  0.00  0.00    -0.016 A 
ATOM      9  C   UNL     1      11.100   6.127  -3.044  0.00  0.00    +0.021 A 
ATOM     10  S   UNL     1       9.695   5.485  -3.902  0.00  0.00    -0.075 S 
ATOM     11  C   UNL     1       8.724   5.023  -2.542  0.00  0.00    +0.088 A 
ATOM     12  C   UNL     1      12.358   6.717  -3.601  0.00  0.00    +0.203 C 
ATOM     13  O   UNL     1      13.047   7.381  -2.529  0.00  0.00    -0.368 OA
ATOM     14  C   UNL     1      13.170   6.584  -1.347  0.00  0.00    +0.068 C 
ATOM     15  C   UNL     1      11.803   6.426  -0.673  0.00  0.00    +0.071 C 
ATOM     16  C   UNL     1      14.138   7.263  -0.377  0.00  0.00    +0.041 C 
ATOM     17  C   UNL     1      13.713   5.204  -1.724  0.00  0.00    +0.041 C 
BRANCH   7  18
ATOM     18  C   UNL     1       9.053   5.164  -0.080  0.00  0.00    +0.342 C 
ATOM     19  O   UNL     1       9.305   4.118   0.486  0.00  0.00    -0.245 OA
BRANCH  18  20
ATOM     20  O   UNL     1       8.352   6.125   0.557  0.00  0.00    -0.461 OA
BRANCH  20  22
ATOM     21  C   UNL     1       7.155   7.037   2.471  0.00  0.00    +0.048 C 
ATOM     22  C   UNL     1       7.931   5.840   1.917  0.00  0.00    +0.229 C 
ENDBRANCH  20  22
ENDBRANCH  18  20
ENDBRANCH   7  18
ENDBRANCH   1  11
BRANCH   4  23
ATOM     23  N   UNL     1       4.995   3.299  -2.492  0.00  0.00    -0.229 N 
ATOM     24  C   UNL     1       3.771   2.734  -2.491  0.00  0.00    +0.260 C 
ATOM     25  O   UNL     1       3.215   2.487  -3.543  0.00  0.00    -0.269 OA
ATOM     26  H   UNL     1       5.439   3.496  -1.653  0.00  0.00    +0.173 HD
BRANCH  24  27
ATOM     27  C   UNL     1       3.106   2.414  -1.210  0.00  0.00    +0.042 A 
ATOM     28  C   UNL     1       3.743   2.697   0.000  0.00  0.00    +0.013 A 
ATOM     29  C   UNL     1       3.119   2.397   1.194  0.00  0.00    +0.004 A 
ATOM     30  C   UNL     1       1.862   1.822   1.196  0.00  0.00    +0.045 A 
ATOM     31  C   UNL     1       1.223   1.532  -0.001  0.00  0.00    +0.118 A 
ATOM     32  C   UNL     1       1.840   1.829  -1.205  0.00  0.00    +0.058 A 
BRANCH  31  33
ATOM     33  O   UNL     1      -0.011   0.963   0.007  0.00  0.00    -0.507 OA
ATOM     34  H   UNL     1       0.002  -0.004   0.002  0.00  0.00    +0.292 HD
ENDBRANCH  31  33
ENDBRANCH  24  27
ENDBRANCH   4  23
TORSDOF 7
