REMARK  Name = ZINC40288429
REMARK  7 active torsions:
REMARK  status: ('A' for Active; 'I' for Inactive)
REMARK    1  A    between atoms: C_1  and  O_2
REMARK    2  A    between atoms: O_2  and  C_3
REMARK    3  A    between atoms: C_6  and  O_25
REMARK    4  A    between atoms: C_7  and  N_9
REMARK    5  A    between atoms: C_15  and  O_24
REMARK    6  A    between atoms: C_17  and  C_19
REMARK    7  A    between atoms: O_25  and  C_26
REMARK                            x       y       z     vdW  Elec       q    Type
REMARK                         _______ _______ _______ _____ _____    ______ ____
ROOT
ATOM      1  N   UNL     1       1.324  -4.005  -2.285  0.00  0.00    -0.280 N 
ATOM      2  C   UNL     1       0.262  -4.853  -2.424  0.00  0.00    +0.206 A 
ATOM      3  N   UNL     1       0.704  -6.087  -2.455  0.00  0.00    -0.237 NA
ATOM      4  C   UNL     1       2.026  -6.085  -2.341  0.00  0.00    +0.094 A 
ATOM      5  C   UNL     1       2.445  -4.782  -2.241  0.00  0.00    +0.165 A 
ATOM      6  N   UNL     1       3.764  -4.455  -2.127  0.00  0.00    -0.197 NA
ATOM      7  C   UNL     1       4.615  -5.380  -1.792  0.00  0.00    +0.190 C 
ATOM      8  C   UNL     1       4.216  -6.794  -1.486  0.00  0.00    +0.110 C 
ATOM      9  C   UNL     1       3.006  -7.231  -2.312  0.00  0.00    +0.081 C 
ENDROOT
BRANCH   1  14
ATOM     10  C   UNL     1       0.606  -0.608  -1.056  0.00  0.00    +0.122 A 
ATOM     11  C   UNL     1       1.173   0.162  -2.062  0.00  0.00    +0.049 A 
ATOM     12  C   UNL     1       1.788  -0.448  -3.139  0.00  0.00    +0.051 A 
ATOM     13  C   UNL     1       1.840  -1.831  -3.217  0.00  0.00    +0.144 A 
ATOM     14  C   UNL     1       1.272  -2.605  -2.209  0.00  0.00    +0.094 A 
ATOM     15  C   UNL     1       0.660  -1.991  -1.127  0.00  0.00    +0.075 A 
BRANCH  10  17
ATOM     16  C   UNL     1      -0.017   1.425   0.010  0.00  0.00    +0.277 C 
ATOM     17  O   UNL     1       0.002  -0.004   0.002  0.00  0.00    -0.495 OA
ENDBRANCH  10  17
BRANCH  13  18
ATOM     18  O   UNL     1       2.445  -2.430  -4.277  0.00  0.00    -0.493 OA
ATOM     19  C   UNL     1       3.006  -1.573  -5.274  0.00  0.00    +0.277 C 
ENDBRANCH  13  18
ENDBRANCH   1  14
BRANCH   9  20
ATOM     20  C   UNL     1       3.453  -7.555  -3.714  0.00  0.00    -0.031 A 
ATOM     21  C   UNL     1       3.225  -8.808  -4.251  0.00  0.00    +0.012 A 
ATOM     22  C   UNL     1       3.639  -9.067  -5.516  0.00  0.00    +0.045 A 
ATOM     23  S   UNL     1       4.378  -7.512  -5.988  0.00  0.00    -0.105 S 
ATOM     24  C   UNL     1       4.080  -6.620  -4.470  0.00  0.00    +0.049 A 
ENDBRANCH   9  20
BRANCH   7  25
ATOM     25  O   UNL     1       5.922  -5.051  -1.717  0.00  0.00    -0.495 OA
ATOM     26  H   UNL     1       6.107  -4.126  -1.927  0.00  0.00    +0.293 HD
ENDBRANCH   7  25
TORSDOF 5
