REMARK  Name = ZINC08141494
REMARK  8 active torsions:
REMARK  status: ('A' for Active; 'I' for Inactive)
REMARK    1  A    between atoms: C_1  and  C_2
REMARK    2  A    between atoms: C_2  and  C_4
REMARK    3  A    between atoms: C_2  and  N_19
REMARK    4  A    between atoms: N_6  and  C_7
REMARK    5  A    between atoms: C_8  and  C_17
REMARK    6  A    between atoms: N_19  and  C_20
REMARK    7  A    between atoms: C_25  and  O_26
REMARK    8  A    between atoms: O_26  and  C_27
REMARK                            x       y       z     vdW  Elec       q    Type
REMARK                         _______ _______ _______ _____ _____    ______ ____
ROOT
ATOM      1  C   UNL     1       0.081   5.570   0.630  0.00  0.00    +0.238 C 
ATOM      2  O   UNL     1       1.181   5.911   1.011  0.00  0.00    -0.273 OA
ATOM      3  N   UNL     1      -0.964   6.413   0.748  0.00  0.00    -0.277 N 
ATOM      4  H   UNL     1      -1.844   6.141   0.444  0.00  0.00    +0.155 HD
ENDROOT
BRANCH   3   5
ATOM      5  C   UNL     1      -0.781   7.671   1.306  0.00  0.00    +0.090 A 
ATOM      6  C   UNL     1      -1.722   8.668   1.510  0.00  0.00    +0.084 A 
ATOM      7  C   UNL     1      -1.272   9.910   2.123  0.00  0.00    -0.018 A 
ATOM      8  C   UNL     1       0.045   9.953   2.421  0.00  0.00    -0.004 A 
ATOM      9  S   UNL     1       0.676   8.374   1.923  0.00  0.00    -0.077 S 
ATOM     10  C   UNL     1       0.808  11.084   3.037  0.00  0.00    +0.043 C 
ATOM     11  C   UNL     1       0.054  11.585   4.276  0.00  0.00    +0.005 C 
ATOM     12  C   UNL     1      -0.922  12.673   3.841  0.00  0.00    +0.001 C 
ATOM     13  C   UNL     1      -1.445  12.380   2.437  0.00  0.00    +0.005 C 
ATOM     14  C   UNL     1      -2.219  11.066   2.419  0.00  0.00    +0.037 C 
BRANCH   6  15
ATOM     15  C   UNL     1      -3.091   8.482   1.132  0.00  0.00    +0.102 C 
ATOM     16  N   UNL     1      -4.176   8.335   0.832  0.00  0.00    -0.191 NA
ENDBRANCH   6  15
ENDBRANCH   3   5
BRANCH   1  18
ATOM     17  C   UNL     1      -0.638   4.352  -1.407  0.00  0.00    +0.038 C 
ATOM     18  C   UNL     1      -0.118   4.205   0.025  0.00  0.00    +0.154 C 
BRANCH  18  19
ATOM     19  N   UNL     1       1.159   3.487   0.009  0.00  0.00    -0.330 N 
ATOM     20  H   UNL     1       1.993   3.982   0.004  0.00  0.00    +0.147 HD
BRANCH  19  21
ATOM     21  C   UNL     1       1.175   2.087   0.002  0.00  0.00    +0.070 A 
ATOM     22  C   UNL     1      -0.017   1.378   0.010  0.00  0.00    +0.026 A 
ATOM     23  C   UNL     1       0.002  -0.004   0.002  0.00  0.00    +0.002 A 
ATOM     24  C   UNL     1       1.207  -0.682  -0.014  0.00  0.00    +0.004 A 
ATOM     25  C   UNL     1       2.399   0.018  -0.021  0.00  0.00    +0.047 A 
ATOM     26  C   UNL     1       2.389   1.403  -0.013  0.00  0.00    +0.141 A 
BRANCH  26  27
ATOM     27  O   UNL     1       3.561   2.094  -0.021  0.00  0.00    -0.493 OA
ATOM     28  C   UNL     1       4.766   1.326  -0.038  0.00  0.00    +0.277 C 
ENDBRANCH  26  27
ENDBRANCH  19  21
ENDBRANCH  18  19
ENDBRANCH   1  18
TORSDOF 6
