REMARK  Name = ZINC09761114
REMARK  4 active torsions:
REMARK  status: ('A' for Active; 'I' for Inactive)
REMARK    1  A    between atoms: C_11  and  C_27
REMARK    2  A    between atoms: C_11  and  C_29
REMARK    3  A    between atoms: C_12  and  C_19
REMARK    4  A    between atoms: C_14  and  C_16
REMARK                            x       y       z     vdW  Elec       q    Type
REMARK                         _______ _______ _______ _____ _____    ______ ____
ROOT
ATOM      1  C   UNL     1       3.805   2.981  -0.708  0.00  0.00    +0.001 A 
ATOM      2  C   UNL     1       3.337   2.740   0.572  0.00  0.00    +0.000 A 
ATOM      3  C   UNL     1       2.095   2.158   0.763  0.00  0.00    +0.006 A 
ATOM      4  C   UNL     1       1.322   1.815  -0.322  0.00  0.00    -0.019 A 
ATOM      5  C   UNL     1       1.788   2.051  -1.622  0.00  0.00    -0.019 A 
ATOM      6  C   UNL     1       3.040   2.641  -1.804  0.00  0.00    +0.008 A 
ATOM      7  C   UNL     1       0.966   1.673  -2.790  0.00  0.00    +0.022 C 
ATOM      8  C   UNL     1      -0.353   1.445  -2.623  0.00  0.00    +0.054 C 
ATOM      9  C   UNL     1      -0.034   1.184  -0.147  0.00  0.00    +0.122 C 
ATOM     10  C   UNL     1      -0.754   1.745   1.091  0.00  0.00    +0.172 C 
ATOM     11  C   UNL     1      -2.257   1.713   0.604  0.00  0.00    +0.083 C 
ATOM     12  C   UNL     1      -2.121   2.110  -0.888  0.00  0.00    +0.153 C 
ATOM     13  N   UNL     1      -0.959   1.237  -1.252  0.00  0.00    -0.382 NA
ATOM     14  H   UNL     1      -1.351   0.289  -1.304  0.00  0.00    +0.127 HD
ENDROOT
BRANCH  11  15
ATOM     15  C   UNL     1      -3.085   2.722   1.356  0.00  0.00    -0.038 A 
ATOM     16  C   UNL     1      -4.032   2.296   2.269  0.00  0.00    +0.007 A 
ATOM     17  C   UNL     1      -4.792   3.220   2.961  0.00  0.00    +0.040 A 
ATOM     18  C   UNL     1      -4.605   4.574   2.739  0.00  0.00    +0.137 A 
ATOM     19  C   UNL     1      -3.656   5.001   1.824  0.00  0.00    +0.053 A 
ATOM     20  C   UNL     1      -2.893   4.074   1.138  0.00  0.00    +0.022 A 
ATOM     21 BR   UNL     1      -3.399   6.849   1.519  0.00  0.00    -0.047 Br
ATOM     22  F   UNL     1      -5.348   5.479   3.414  0.00  0.00    -0.204 F 
ENDBRANCH  11  15
BRANCH  12  23
ATOM     23  C   UNL     1      -3.244   1.506  -1.691  0.00  0.00    +0.230 C 
ATOM     24  O   UNL     1      -3.064   0.476  -2.305  0.00  0.00    -0.274 OA
ATOM     25  N   UNL     1      -4.448   2.110  -1.727  0.00  0.00    -0.328 N 
ATOM     26  H   UNL     1      -4.592   2.934  -1.235  0.00  0.00    +0.145 HD
ATOM     27  H   UNL     1      -5.171   1.722  -2.244  0.00  0.00    +0.145 HD
ENDBRANCH  12  23
BRANCH  10  28
ATOM     28  C   UNL     1      -0.541   0.877   2.261  0.00  0.00    +0.087 C 
ATOM     29  N   UNL     1      -0.377   0.208   3.163  0.00  0.00    -0.195 NA
ENDBRANCH  10  28
BRANCH  10  30
ATOM     30  C   UNL     1      -0.317   3.122   1.374  0.00  0.00    +0.087 C 
ATOM     31  N   UNL     1       0.020   4.184   1.593  0.00  0.00    -0.195 NA
ENDBRANCH  10  30
TORSDOF 4
