REMARK  Name = ZINC32727189
REMARK  7 active torsions:
REMARK  status: ('A' for Active; 'I' for Inactive)
REMARK    1  A    between atoms: C_1  and  C_2
REMARK    2  A    between atoms: C_3  and  C_34
REMARK    3  A    between atoms: C_7  and  N_11
REMARK    4  A    between atoms: C_14  and  C_17
REMARK    5  A    between atoms: N_19  and  C_20
REMARK    6  A    between atoms: C_21  and  C_31
REMARK    7  A    between atoms: C_26  and  C_30
REMARK                            x       y       z     vdW  Elec       q    Type
REMARK                         _______ _______ _______ _____ _____    ______ ____
ROOT
ATOM      1  C   UNL     1       2.115   4.794   2.833  0.00  0.00    +0.221 C 
ATOM      2  O   UNL     1       2.732   4.991   1.807  0.00  0.00    -0.275 OA
ATOM      3  N   UNL     1       2.410   5.499   3.942  0.00  0.00    -0.279 N 
ATOM      4  H   UNL     1       1.917   5.341   4.763  0.00  0.00    +0.155 HD
ENDROOT
BRANCH   3   5
ATOM      5  C   UNL     1       3.417   6.451   3.912  0.00  0.00    +0.084 A 
ATOM      6  C   UNL     1       3.857   7.260   4.948  0.00  0.00    +0.068 A 
ATOM      7  C   UNL     1       4.939   8.184   4.656  0.00  0.00    -0.023 A 
ATOM      8  C   UNL     1       5.382   8.130   3.381  0.00  0.00    -0.004 A 
ATOM      9  S   UNL     1       4.390   6.884   2.613  0.00  0.00    -0.077 S 
ATOM     10  C   UNL     1       6.480   8.949   2.775  0.00  0.00    +0.046 C 
ATOM     11  C   UNL     1       7.283   9.596   3.913  0.00  0.00    -0.009 C 
ATOM     12  C   UNL     1       6.309  10.236   4.907  0.00  0.00    +0.008 C 
ATOM     13  C   UNL     1       5.548   9.146   5.665  0.00  0.00    +0.037 C 
ATOM     14  C   UNL     1       8.212  10.668   3.340  0.00  0.00    +0.008 C 
BRANCH   6  15
ATOM     15  C   UNL     1       3.256   7.185   6.283  0.00  0.00    +0.244 C 
ATOM     16  O   UNL     1       3.709   6.419   7.113  0.00  0.00    -0.270 OA
ATOM     17  N   UNL     1       2.201   7.965   6.591  0.00  0.00    -0.325 N 
ATOM     18  H   UNL     1       1.840   8.576   5.930  0.00  0.00    +0.145 HD
ATOM     19  H   UNL     1       1.803   7.916   7.475  0.00  0.00    +0.145 HD
ENDBRANCH   6  15
ENDBRANCH   3   5
BRANCH   1  23
ATOM     20  N   UNL     1       0.001   1.133   2.608  0.00  0.00    -0.315 N 
ATOM     21  C   UNL     1      -0.246   2.082   1.514  0.00  0.00    +0.107 C 
ATOM     22  C   UNL     1       0.891   3.109   1.486  0.00  0.00    +0.032 C 
ATOM     23  C   UNL     1       1.020   3.759   2.866  0.00  0.00    +0.078 C 
ATOM     24  C   UNL     1       1.360   2.689   3.906  0.00  0.00    +0.032 C 
ATOM     25  C   UNL     1       0.223   1.658   3.962  0.00  0.00    +0.107 C 
BRANCH  20  32
ATOM     26  C   UNL     1      -2.857   0.931   2.812  0.00  0.00    +0.045 C 
ATOM     27  C   UNL     1      -2.564  -0.521   2.533  0.00  0.00    -0.028 A 
ATOM     28  C   UNL     1      -3.563  -1.412   2.455  0.00  0.00    -0.008 A 
ATOM     29  S   UNL     1      -2.725  -2.949   2.119  0.00  0.00    -0.074 S 
ATOM     30  C   UNL     1      -1.055  -2.353   2.092  0.00  0.00    +0.114 A 
ATOM     31  C   UNL     1      -1.196  -0.970   2.340  0.00  0.00    +0.051 A 
ATOM     32  C   UNL     1       0.018  -0.229   2.369  0.00  0.00    +0.133 A 
ATOM     33  N   UNL     1       1.163  -0.859   2.163  0.00  0.00    -0.220 NA
ATOM     34  C   UNL     1       1.220  -2.158   1.931  0.00  0.00    +0.224 A 
ATOM     35  N   UNL     1       0.129  -2.900   1.903  0.00  0.00    -0.228 NA
ATOM     36  C   UNL     1      -5.042  -1.171   2.615  0.00  0.00    +0.052 C 
ENDBRANCH  20  32
ENDBRANCH   1  23
TORSDOF 4
