REMARK  Name = ZINC58323273
REMARK  9 active torsions:
REMARK  status: ('A' for Active; 'I' for Inactive)
REMARK    1  A    between atoms: C_1  and  C_2
REMARK    2  A    between atoms: C_2  and  C_4
REMARK    3  A    between atoms: C_2  and  N_16
REMARK    4  A    between atoms: C_17  and  C_19
REMARK    5  A    between atoms: C_19  and  C_21
REMARK    6  A    between atoms: C_19  and  N_24
REMARK    7  A    between atoms: C_21  and  C_22
REMARK    8  A    between atoms: C_21  and  C_23
REMARK    9  A    between atoms: C_25  and  C_27
REMARK                            x       y       z     vdW  Elec       q    Type
REMARK                         _______ _______ _______ _____ _____    ______ ____
ROOT
ATOM      1  N   UNL     1      -1.372  -0.511   0.012  0.00  0.00    -0.307 N 
ATOM      2  C   UNL     1      -2.051  -0.643  -1.145  0.00  0.00    +0.234 C 
ATOM      3  O   UNL     1      -1.524  -0.341  -2.194  0.00  0.00    -0.274 OA
ATOM      4  H   UNL     1      -1.794  -0.752   0.852  0.00  0.00    +0.149 HD
ENDROOT
BRANCH   1   6
ATOM      5  C   UNL     1      -0.019   1.526   0.010  0.00  0.00    +0.033 C 
ATOM      6  C   UNL     1       0.002  -0.004   0.002  0.00  0.00    +0.100 C 
BRANCH   6   7
ATOM      7  C   UNL     1       0.731  -0.503   1.223  0.00  0.00    -0.025 A 
ATOM      8  C   UNL     1       0.077  -0.557   2.442  0.00  0.00    +0.007 A 
ATOM      9  C   UNL     1       0.737  -1.013   3.566  0.00  0.00    +0.028 A 
ATOM     10  C   UNL     1       2.059  -1.419   3.474  0.00  0.00    +0.067 A 
ATOM     11  C   UNL     1       2.719  -1.364   2.244  0.00  0.00    +0.067 A 
ATOM     12  C   UNL     1       2.047  -0.910   1.120  0.00  0.00    +0.033 A 
ATOM     13  N   UNL     1       4.014  -1.829   2.461  0.00  0.00    -0.306 N 
ATOM     14  H   UNL     1       4.709  -1.906   1.789  0.00  0.00    +0.170 HD
ATOM     15  C   UNL     1       4.137  -2.151   3.763  0.00  0.00    +0.325 A 
ATOM     16  O   UNL     1       5.145  -2.589   4.284  0.00  0.00    -0.247 OA
ATOM     17  N   UNL     1       2.974  -1.915   4.400  0.00  0.00    -0.306 N 
ATOM     18  H   UNL     1       2.803  -2.064   5.343  0.00  0.00    +0.170 HD
ENDBRANCH   6   7
ENDBRANCH   1   6
BRANCH   2  19
ATOM     19  C   UNL     1      -3.465  -1.164  -1.134  0.00  0.00    +0.162 C 
BRANCH  19  20
ATOM     20  N   UNL     1      -3.978  -1.213  -2.505  0.00  0.00    -0.297 N 
ATOM     21  C   UNL     1      -5.305  -1.151  -2.731  0.00  0.00    +0.280 C 
ATOM     22  O   UNL     1      -6.077  -1.054  -1.796  0.00  0.00    -0.267 OA
ATOM     23  H   UNL     1      -3.362  -1.290  -3.251  0.00  0.00    +0.150 HD
BRANCH  21  24
ATOM     24  C   UNL     1      -5.818  -1.199  -4.104  0.00  0.00    +0.189 A 
ATOM     25  C   UNL     1      -7.132  -1.140  -4.472  0.00  0.00    +0.054 A 
ATOM     26  C   UNL     1      -7.163  -1.219  -5.873  0.00  0.00    +0.042 A 
ATOM     27  C   UNL     1      -5.883  -1.322  -6.293  0.00  0.00    +0.196 A 
ATOM     28  O   UNL     1      -5.075  -1.305  -5.225  0.00  0.00    -0.458 OA
ENDBRANCH  21  24
ENDBRANCH  19  20
BRANCH  19  29
ATOM     29  C   UNL     1      -3.485  -2.571  -0.532  0.00  0.00    +0.012 C 
ATOM     30  C   UNL     1      -4.920  -3.100  -0.521  0.00  0.00    +0.009 C 
ATOM     31  C   UNL     1      -2.605  -3.498  -1.372  0.00  0.00    +0.009 C 
ENDBRANCH  19  29
ENDBRANCH   2  19
TORSDOF 6
