REMARK  Name = ZINC61786742
REMARK  6 active torsions:
REMARK  status: ('A' for Active; 'I' for Inactive)
REMARK    1  A    between atoms: C_1  and  C_2
REMARK    2  A    between atoms: C_2  and  S_3
REMARK    3  A    between atoms: S_3  and  C_4
REMARK    4  A    between atoms: C_7  and  N_10
REMARK    5  A    between atoms: C_17  and  C_18
REMARK    6  A    between atoms: C_23  and  C_27
REMARK                            x       y       z     vdW  Elec       q    Type
REMARK                         _______ _______ _______ _____ _____    ______ ____
ROOT
ATOM      1  N   UNL     1      -0.967  -6.475  -0.023  0.00  0.00    -0.268 N 
ATOM      2  C   UNL     1       0.283  -6.965  -0.133  0.00  0.00    +0.307 C 
ATOM      3  O   UNL     1       1.235  -6.209  -0.134  0.00  0.00    -0.252 OA
ATOM      4  N   UNL     1       0.478  -8.294  -0.243  0.00  0.00    -0.275 N 
ATOM      5  C   UNL     1      -0.581  -9.319  -0.262  0.00  0.00    +0.110 C 
ATOM      6  C   UNL     1       0.049 -10.526  -1.002  0.00  0.00    +0.021 C 
ATOM      7  C   UNL     1       1.513 -10.476  -0.491  0.00  0.00    +0.032 C 
ATOM      8  C   UNL     1       1.782  -8.961  -0.370  0.00  0.00    +0.143 C 
ATOM      9  H   UNL     1      -1.721  -7.080   0.056  0.00  0.00    +0.156 HD
ENDROOT
BRANCH   8  10
ATOM     10  C   UNL     1       2.619  -8.688   0.854  0.00  0.00    +0.129 A 
ATOM     11  N   UNL     1       2.325  -9.077   2.060  0.00  0.00    -0.231 NA
ATOM     12  C   UNL     1       3.289  -8.664   2.921  0.00  0.00    +0.089 A 
ATOM     13  C   UNL     1       3.474  -8.802   4.299  0.00  0.00    +0.030 A 
ATOM     14  C   UNL     1       4.577  -8.259   4.896  0.00  0.00    +0.005 A 
ATOM     15  C   UNL     1       5.520  -7.569   4.146  0.00  0.00    -0.048 A 
ATOM     16  C   UNL     1       5.358  -7.421   2.785  0.00  0.00    +0.031 A 
ATOM     17  C   UNL     1       4.244  -7.966   2.162  0.00  0.00    +0.067 A 
ATOM     18  N   UNL     1       3.795  -8.004   0.857  0.00  0.00    -0.340 N 
ATOM     19  C   UNL     1       6.728  -6.978   4.825  0.00  0.00    +0.044 C 
ATOM     20  H   UNL     1       4.234  -7.612   0.086  0.00  0.00    +0.167 HD
ENDBRANCH   8  10
BRANCH   1  24
ATOM     21  C   UNL     1      -1.655  -2.406   0.033  0.00  0.00    +0.097 A 
ATOM     22  C   UNL     1      -0.595  -2.887  -0.730  0.00  0.00    +0.036 A 
ATOM     23  C   UNL     1      -0.350  -4.247  -0.760  0.00  0.00    +0.027 A 
ATOM     24  C   UNL     1      -1.179  -5.088  -0.021  0.00  0.00    +0.053 A 
ATOM     25  C   UNL     1      -2.216  -4.538   0.717  0.00  0.00    +0.135 A 
ATOM     26  N   UNL     1      -2.419  -3.235   0.728  0.00  0.00    -0.247 NA
BRANCH  21  27
ATOM     27  S   UNL     1      -1.979  -0.675   0.081  0.00  0.00    -0.106 S 
BRANCH  27  29
ATOM     28  C   UNL     1      -3.805   0.946   1.315  0.00  0.00    +0.015 C 
ATOM     29  C   UNL     1      -3.412  -0.527   1.183  0.00  0.00    +0.072 C 
ENDBRANCH  27  29
ENDBRANCH  21  27
ENDBRANCH   1  24
TORSDOF 4
