REMARK  Name = ZINC22019374
REMARK  6 active torsions:
REMARK  status: ('A' for Active; 'I' for Inactive)
REMARK    1  A    between atoms: C_6  and  N_7
REMARK    2  A    between atoms: C_10  and  C_15
REMARK    3  A    between atoms: C_15  and  S_16
REMARK    4  A    between atoms: S_16  and  C_17
REMARK    5  A    between atoms: C_20  and  S_23
REMARK    6  A    between atoms: S_23  and  N_26
REMARK                            x       y       z     vdW  Elec       q    Type
REMARK                         _______ _______ _______ _____ _____    ______ ____
ROOT
ATOM      1  N   UNL     1       3.244  -1.342 -11.652  0.00  0.00    -0.284 N 
ATOM      2  C   UNL     1       3.796  -0.887 -10.470  0.00  0.00    +0.224 A 
ATOM      3  N   UNL     1       3.057  -0.845  -9.363  0.00  0.00    -0.198 NA
ATOM      4  C   UNL     1       3.584  -0.410  -8.232  0.00  0.00    +0.146 A 
ATOM      5  N   UNL     1       4.843  -0.011  -8.196  0.00  0.00    -0.199 NA
ATOM      6  C   UNL     1       5.589  -0.054  -9.297  0.00  0.00    +0.217 A 
ATOM      7  N   UNL     1       5.063  -0.491 -10.437  0.00  0.00    -0.181 NA
ATOM      8  N   UNL     1       6.905   0.358  -9.257  0.00  0.00    -0.327 N 
ATOM      9  H   UNL     1       2.225  -1.755 -11.661  0.00  0.00    +0.155 HD
ATOM     10  H   UNL     1       7.521   0.321 -10.168  0.00  0.00    +0.145 HD
ATOM     11  H   UNL     1       7.339   0.723  -8.314  0.00  0.00    +0.145 HD
ENDROOT
BRANCH   1  17
ATOM     12  C   UNL     1       4.875  -0.235 -13.047  0.00  0.00    +0.025 A 
ATOM     13  C   UNL     1       5.608  -0.178 -14.217  0.00  0.00    +0.022 A 
ATOM     14  C   UNL     1       5.445  -1.154 -15.185  0.00  0.00    +0.041 A 
ATOM     15  C   UNL     1       4.552  -2.191 -14.982  0.00  0.00    +0.022 A 
ATOM     16  C   UNL     1       3.821  -2.256 -13.812  0.00  0.00    +0.025 A 
ATOM     17  C   UNL     1       3.983  -1.279 -12.839  0.00  0.00    +0.034 A 
ATOM     18 CL   UNL     1       6.362  -1.076 -16.657  0.00  0.00    -0.084 Cl
ENDBRANCH   1  17
BRANCH   4  19
ATOM     19  C   UNL     1       2.744  -0.363  -6.982  0.00  0.00    +0.152 C 
BRANCH  19  20
ATOM     20  S   UNL     1       2.894  -1.938  -6.094  0.00  0.00    -0.098 S 
BRANCH  20  21
ATOM     21  C   UNL     1       1.869  -1.727  -4.676  0.00  0.00    +0.097 A 
ATOM     22  C   UNL     1       1.746  -2.762  -3.754  0.00  0.00    +0.037 A 
ATOM     23  C   UNL     1       0.938  -2.583  -2.646  0.00  0.00    +0.032 A 
ATOM     24  C   UNL     1       0.277  -1.370  -2.496  0.00  0.00    +0.124 A 
ATOM     25  C   UNL     1       0.440  -0.389  -3.453  0.00  0.00    +0.140 A 
ATOM     26  N   UNL     1       1.222  -0.585  -4.498  0.00  0.00    -0.247 NA
BRANCH  24  27
ATOM     27  S   UNL     1      -0.764  -1.090  -1.102  0.00  0.00    +0.062 S 
ATOM     28  O   UNL     1      -1.178  -2.369  -0.641  0.00  0.00    -0.153 OA
ATOM     29  O   UNL     1      -1.689  -0.081  -1.483  0.00  0.00    -0.153 OA
BRANCH  27  30
ATOM     30  N   UNL     1       0.181  -0.440   0.092  0.00  0.00    -0.177 NA
ATOM     31  C   UNL     1       0.349   1.015   0.205  0.00  0.00    +0.109 C 
ATOM     32  C   UNL     1       1.846   1.339   0.219  0.00  0.00    +0.017 C 
ATOM     33  C   UNL     1       2.526   0.540   1.333  0.00  0.00    +0.003 C 
ATOM     34  C   UNL     1       2.359  -0.957   1.064  0.00  0.00    +0.017 C 
ATOM     35  C   UNL     1       0.867  -1.307   1.059  0.00  0.00    +0.109 C 
ENDBRANCH  27  30
ENDBRANCH  24  27
ENDBRANCH  20  21
ENDBRANCH  19  20
ENDBRANCH   4  19
TORSDOF 6
