REMARK  Name = ZINC63608941
REMARK  6 active torsions:
REMARK  status: ('A' for Active; 'I' for Inactive)
REMARK    1  A    between atoms: C_8  and  C_30
REMARK    2  A    between atoms: N_10  and  C_16
REMARK    3  A    between atoms: C_16  and  N_18
REMARK    4  A    between atoms: N_18  and  C_19
REMARK    5  A    between atoms: C_24  and  O_25
REMARK    6  A    between atoms: O_25  and  C_26
REMARK                            x       y       z     vdW  Elec       q    Type
REMARK                         _______ _______ _______ _____ _____    ______ ____
ROOT
ATOM      1  C   UNL     1      -0.142   1.409   0.272  0.00  0.00    +0.001 A 
ATOM      2  C   UNL     1       1.044   2.106   0.003  0.00  0.00    +0.002 A 
ATOM      3  C   UNL     1       2.205   1.482  -0.287  0.00  0.00    +0.026 A 
ATOM      4  C   UNL     1       2.269   0.063  -0.330  0.00  0.00    +0.043 A 
ATOM      5  N   UNL     1       3.267  -0.759  -0.564  0.00  0.00    -0.375 N 
ATOM      6  C   UNL     1       2.754  -2.126  -0.559  0.00  0.00    +0.135 C 
ATOM      7  C   UNL     1       3.478  -3.005   0.468  0.00  0.00    +0.206 C 
ATOM      8  N   UNL     1       2.657  -4.204   0.695  0.00  0.00    -0.299 N 
ATOM      9  C   UNL     1       1.286  -4.085   1.202  0.00  0.00    +0.112 C 
ATOM     10  C   UNL     1       0.460  -3.212   0.239  0.00  0.00    +0.052 C 
ATOM     11  C   UNL     1       1.303  -2.010  -0.122  0.00  0.00    -0.035 C 
ATOM     12  C   UNL     1       1.030  -0.700  -0.042  0.00  0.00    -0.001 A 
ATOM     13  C   UNL     1      -0.191   0.058   0.261  0.00  0.00    +0.010 A 
ATOM     14  H   UNL     1       4.190  -0.501  -0.715  0.00  0.00    +0.160 HD
ENDROOT
BRANCH   7  15
ATOM     15  C   UNL     1       4.850  -3.411  -0.074  0.00  0.00    +0.410 C 
ATOM     16  F   UNL     1       5.456  -2.307  -0.684  0.00  0.00    -0.169 F 
ATOM     17  F   UNL     1       5.653  -3.861   0.979  0.00  0.00    -0.169 F 
ATOM     18  F   UNL     1       4.696  -4.436  -1.014  0.00  0.00    -0.169 F 
ENDBRANCH   7  15
BRANCH   8  19
ATOM     19  C   UNL     1       3.169  -5.423   0.434  0.00  0.00    +0.138 C 
ATOM     20  S   UNL     1       4.861  -5.675   0.508  0.00  0.00    -0.018 S 
BRANCH  19  21
ATOM     21  N   UNL     1       2.349  -6.445   0.116  0.00  0.00    -0.294 N 
ATOM     22  H   UNL     1       2.306  -6.765  -0.798  0.00  0.00    +0.154 HD
BRANCH  21  23
ATOM     23  C   UNL     1       1.558  -7.043   1.106  0.00  0.00    +0.075 A 
ATOM     24  C   UNL     1       1.702  -6.666   2.433  0.00  0.00    +0.027 A 
ATOM     25  C   UNL     1       0.920  -7.257   3.407  0.00  0.00    +0.002 A 
ATOM     26  C   UNL     1      -0.006  -8.225   3.063  0.00  0.00    +0.004 A 
ATOM     27  C   UNL     1      -0.155  -8.605   1.742  0.00  0.00    +0.048 A 
ATOM     28  C   UNL     1       0.621  -8.014   0.759  0.00  0.00    +0.151 A 
BRANCH  28  29
ATOM     29  O   UNL     1       0.472  -8.383  -0.541  0.00  0.00    -0.404 OA
BRANCH  29  30
ATOM     30  C   UNL     1      -0.508  -9.385  -0.823  0.00  0.00    +0.575 C 
ATOM     31  F   UNL     1      -1.767  -8.933  -0.413  0.00  0.00    -0.133 F 
ATOM     32  F   UNL     1      -0.529  -9.643  -2.197  0.00  0.00    -0.133 F 
ATOM     33  F   UNL     1      -0.186 -10.559  -0.133  0.00  0.00    -0.133 F 
ENDBRANCH  29  30
ENDBRANCH  28  29
ENDBRANCH  21  23
ENDBRANCH  19  21
ENDBRANCH   8  19
TORSDOF 6
