REMARK  Name = ZINC06929005
REMARK  4 active torsions:
REMARK  status: ('A' for Active; 'I' for Inactive)
REMARK    1  A    between atoms: C_1  and  C_2
REMARK    2  A    between atoms: C_7  and  S_15
REMARK    3  A    between atoms: C_12  and  C_14
REMARK    4  A    between atoms: S_15  and  N_18
REMARK                            x       y       z     vdW  Elec       q    Type
REMARK                         _______ _______ _______ _____ _____    ______ ____
ROOT
ATOM      1  C   UNL     1      -0.014   7.075  -1.933  0.00  0.00    +0.029 C 
ATOM      2  C   UNL     1      -0.059   6.216  -0.668  0.00  0.00    +0.083 C 
ATOM      3  C   UNL     1       0.875   5.004  -0.813  0.00  0.00    +0.059 C 
ATOM      4  C   UNL     1      -0.038   3.804  -0.696  0.00  0.00    -0.022 A 
ATOM      5  C   UNL     1       0.233   2.450  -0.750  0.00  0.00    +0.034 A 
ATOM      6  C   UNL     1      -0.790   1.531  -0.615  0.00  0.00    +0.106 A 
ATOM      7  C   UNL     1      -2.089   1.970  -0.432  0.00  0.00    +0.030 A 
ATOM      8  C   UNL     1      -2.364   3.319  -0.373  0.00  0.00    +0.026 A 
ATOM      9  C   UNL     1      -1.335   4.254  -0.508  0.00  0.00    +0.040 A 
ATOM     10  N   UNL     1      -1.398   5.651  -0.485  0.00  0.00    -0.268 N 
ATOM     11  C   UNL     1      -2.525   6.371  -0.318  0.00  0.00    +0.217 C 
ATOM     12  O   UNL     1      -3.579   5.808  -0.113  0.00  0.00    -0.276 OA
ATOM     13  C   UNL     1      -2.475   7.875  -0.387  0.00  0.00    +0.109 C 
ENDROOT
BRANCH   6  14
ATOM     14  S   UNL     1      -0.443  -0.195  -0.683  0.00  0.00    +0.061 S 
ATOM     15  O   UNL     1      -1.682  -0.850  -0.917  0.00  0.00    -0.153 OA
ATOM     16  O   UNL     1       0.676  -0.350  -1.545  0.00  0.00    -0.153 OA
BRANCH  14  17
ATOM     17  N   UNL     1       0.057  -0.654   0.828  0.00  0.00    -0.173 NA
ATOM     18  C   UNL     1       1.488  -0.788   1.142  0.00  0.00    +0.110 C 
ATOM     19  C   UNL     1       1.743  -2.179   1.729  0.00  0.00    +0.017 C 
ATOM     20  C   UNL     1       0.807  -2.418   2.918  0.00  0.00    +0.006 C 
ATOM     21  C   UNL     1      -0.642  -2.341   2.439  0.00  0.00    +0.008 C 
ATOM     22  C   UNL     1      -0.915  -0.931   1.891  0.00  0.00    +0.083 C 
ATOM     23  C   UNL     1      -2.340  -0.884   1.341  0.00  0.00    +0.021 C 
ATOM     24  C   UNL     1      -3.324  -1.177   2.477  0.00  0.00    +0.002 C 
ATOM     25  C   UNL     1      -3.043  -2.562   3.063  0.00  0.00    +0.000 C 
ATOM     26  C   UNL     1      -1.607  -2.623   3.590  0.00  0.00    +0.005 C 
ENDBRANCH  14  17
ENDBRANCH   6  14
TORSDOF 2
