REMARK  Name = ZINC03984118
REMARK  6 active torsions:
REMARK  status: ('A' for Active; 'I' for Inactive)
REMARK    1  A    between atoms: C_1  and  C_2
REMARK    2  A    between atoms: C_2  and  C_23
REMARK    3  A    between atoms: C_4  and  O_5
REMARK    4  A    between atoms: C_6  and  C_10
REMARK    5  A    between atoms: C_19  and  C_21
REMARK    6  A    between atoms: C_19  and  C_22
REMARK                            x       y       z     vdW  Elec       q    Type
REMARK                         _______ _______ _______ _____ _____    ______ ____
ROOT
ATOM      1  C   UNL     1       1.453   3.673  -0.020  0.00  0.00    +0.100 C 
ATOM      2  C   UNL     1       2.991   3.783  -0.026  0.00  0.00    +0.241 C 
ATOM      3  O   UNL     1       3.450   2.402  -0.005  0.00  0.00    -0.495 OA
ATOM      4  C   UNL     1       2.415   1.556   0.013  0.00  0.00    +0.105 C 
ATOM      5  C   UNL     1       1.215   2.187   0.002  0.00  0.00    +0.043 C 
ATOM      6  C   UNL     1      -0.018   1.508   0.010  0.00  0.00    +0.164 C 
ATOM      7  O   UNL     1      -1.068   2.119   0.019  0.00  0.00    -0.292 OA
ATOM      8  C   UNL     1       0.002  -0.004   0.002  0.00  0.00    +0.086 C 
ATOM      9  C   UNL     1       1.253  -0.505   0.726  0.00  0.00    -0.021 C 
ATOM     10  C   UNL     1       2.511   0.040   0.043  0.00  0.00    +0.081 C 
ATOM     11  C   UNL     1       1.220  -0.034   2.181  0.00  0.00    +0.012 C 
ATOM     12  C   UNL     1       1.282  -2.035   0.689  0.00  0.00    +0.012 C 
ENDROOT
BRANCH   1  17
ATOM     13  C   UNL     1       0.473   6.561   3.952  0.00  0.00    +0.012 C 
ATOM     14  C   UNL     1      -0.607   6.375   2.884  0.00  0.00    -0.021 C 
ATOM     15  C   UNL     1       0.306   6.658   0.216  0.00  0.00    +0.080 C 
ATOM     16  C   UNL     1       1.114   5.827   1.188  0.00  0.00    +0.102 C 
ATOM     17  C   UNL     1       0.865   4.333   1.229  0.00  0.00    +0.043 C 
ATOM     18  C   UNL     1       0.114   4.034   2.510  0.00  0.00    +0.164 C 
ATOM     19  O   UNL     1       0.446   3.119   3.226  0.00  0.00    -0.292 OA
ATOM     20  C   UNL     1      -1.063   4.914   2.868  0.00  0.00    +0.086 C 
ATOM     21  C   UNL     1      -1.800   7.277   3.204  0.00  0.00    +0.012 C 
BRANCH  16  22
ATOM     22  O   UNL     1       1.935   6.340   1.909  0.00  0.00    -0.511 OA
ATOM     23  H   UNL     1       2.365   5.637   2.477  0.00  0.00    +0.292 HD
ENDBRANCH  16  22
ENDBRANCH   1  17
TORSDOF 2
