REMARK  Name = ZINC08738237
REMARK  5 active torsions:
REMARK  status: ('A' for Active; 'I' for Inactive)
REMARK    1  A    between atoms: C_1  and  C_2
REMARK    2  A    between atoms: N_17  and  C_20
REMARK    3  A    between atoms: C_20  and  C_21
REMARK    4  A    between atoms: C_28  and  C_29
REMARK    5  A    between atoms: C_28  and  C_30
REMARK                            x       y       z     vdW  Elec       q    Type
REMARK                         _______ _______ _______ _____ _____    ______ ____
ROOT
ATOM      1  C   UNL     1      -5.868  -0.004   0.620  0.00  0.00    +0.007 C 
ATOM      2  C   UNL     1      -5.029   0.729   1.668  0.00  0.00    -0.013 C 
ATOM      3  C   UNL     1      -5.949   1.515   2.606  0.00  0.00    +0.004 C 
ATOM      4  C   UNL     1      -5.112   2.270   3.642  0.00  0.00    +0.008 C 
ATOM      5  C   UNL     1      -4.281   1.278   4.461  0.00  0.00    +0.040 C 
ATOM      6  C   UNL     1      -3.404   0.423   3.548  0.00  0.00    +0.037 C 
ATOM      7  C   UNL     1      -4.233  -0.287   2.489  0.00  0.00    +0.012 C 
ATOM      8  C   UNL     1      -2.330   1.268   2.925  0.00  0.00    +0.080 A 
ATOM      9  C   UNL     1      -1.972   2.465   3.461  0.00  0.00    +0.206 A 
ATOM     10  N   UNL     1      -0.968   3.194   2.866  0.00  0.00    -0.278 N 
ATOM     11  H   UNL     1      -0.666   4.163   3.290  0.00  0.00    +0.173 HD
ATOM     12  C   UNL     1      -0.347   2.734   1.766  0.00  0.00    +0.332 A 
ATOM     13  O   UNL     1       0.542   3.392   1.260  0.00  0.00    -0.246 OA
ATOM     14  N   UNL     1      -0.698   1.558   1.213  0.00  0.00    -0.256 N 
ATOM     15  C   UNL     1      -1.674   0.811   1.766  0.00  0.00    +0.264 A 
ATOM     16  O   UNL     1      -1.987  -0.255   1.265  0.00  0.00    -0.267 OA
ATOM     17  O   UNL     1      -2.575   2.968   4.557  0.00  0.00    -0.471 OA
ATOM     18  C   UNL     1      -3.342   2.085   5.377  0.00  0.00    +0.110 C 
ATOM     19  C   UNL     1      -2.408   1.133   6.127  0.00  0.00    +0.056 C 
ATOM     20  C   UNL     1      -4.168   2.895   6.378  0.00  0.00    +0.056 C 
ENDROOT
BRANCH  14  21
ATOM     21  C   UNL     1      -0.013   1.086   0.008  0.00  0.00    +0.165 C 
BRANCH  21  22
ATOM     22  C   UNL     1      -0.742   1.585  -1.213  0.00  0.00    -0.028 A 
ATOM     23  C   UNL     1      -1.750   0.825  -1.775  0.00  0.00    +0.005 A 
ATOM     24  C   UNL     1      -2.422   1.285  -2.892  0.00  0.00    +0.000 A 
ATOM     25  C   UNL     1      -2.078   2.501  -3.453  0.00  0.00    +0.000 A 
ATOM     26  C   UNL     1      -1.066   3.259  -2.894  0.00  0.00    +0.000 A 
ATOM     27  C   UNL     1      -0.398   2.801  -1.774  0.00  0.00    +0.005 A 
ENDBRANCH  21  22
ENDBRANCH  14  21
TORSDOF 2
