REMARK  Name = ZINC13031134
REMARK  12 active torsions:
REMARK  status: ('A' for Active; 'I' for Inactive)
REMARK    1  A    between atoms: C_1  and  C_2
REMARK    2  A    between atoms: C_2  and  N_3
REMARK    3  A    between atoms: N_3  and  C_4
REMARK    4  A    between atoms: N_3  and  S_6
REMARK    5  A    between atoms: C_4  and  C_5
REMARK    6  A    between atoms: S_6  and  C_9
REMARK    7  A    between atoms: C_13  and  C_15
REMARK    8  A    between atoms: C_18  and  S_20
REMARK    9  A    between atoms: S_20  and  C_21
REMARK   10  A    between atoms: C_21  and  C_22
REMARK   11  A    between atoms: C_30  and  O_34
REMARK   12  A    between atoms: C_31  and  O_33
REMARK                            x       y       z     vdW  Elec       q    Type
REMARK                         _______ _______ _______ _____ _____    ______ ____
ROOT
ATOM      1  C   UNL     1      -1.296   4.896  -3.655  0.00  0.00    +0.249 A 
ATOM      2  N   UNL     1      -0.454   5.810  -3.238  0.00  0.00    -0.106 NA
ATOM      3  N   UNL     1      -0.543   6.849  -3.990  0.00  0.00    -0.101 NA
ATOM      4  C   UNL     1      -1.448   6.640  -4.918  0.00  0.00    +0.278 A 
ATOM      5  O   UNL     1      -1.940   5.401  -4.731  0.00  0.00    -0.411 OA
ENDROOT
BRANCH   1  10
ATOM      6  C   UNL     1      -0.954   1.915  -1.397  0.00  0.00    +0.106 A 
ATOM      7  C   UNL     1      -1.880   1.050  -1.952  0.00  0.00    +0.028 A 
ATOM      8  C   UNL     1      -2.623   1.435  -3.053  0.00  0.00    +0.003 A 
ATOM      9  C   UNL     1      -2.437   2.683  -3.612  0.00  0.00    +0.013 A 
ATOM     10  C   UNL     1      -1.501   3.559  -3.061  0.00  0.00    +0.040 A 
ATOM     11  C   UNL     1      -0.758   3.166  -1.946  0.00  0.00    +0.041 A 
BRANCH   6  12
ATOM     12  S   UNL     1      -0.017   1.417   0.010  0.00  0.00    +0.061 S 
ATOM     13  O   UNL     1       0.002  -0.004   0.002  0.00  0.00    -0.153 OA
ATOM     14  O   UNL     1       1.172   2.195   0.003  0.00  0.00    -0.153 OA
BRANCH  12  15
ATOM     15  N   UNL     1      -0.872   1.871   1.353  0.00  0.00    -0.177 NA
BRANCH  15  17
ATOM     16  C   UNL     1      -1.183   0.170   3.083  0.00  0.00    +0.022 C 
ATOM     17  C   UNL     1      -1.846   0.952   1.947  0.00  0.00    +0.106 C 
ENDBRANCH  15  17
BRANCH  15  18
ATOM     18  C   UNL     1      -0.654   3.192   1.948  0.00  0.00    +0.106 C 
ATOM     19  C   UNL     1      -1.693   4.174   1.403  0.00  0.00    +0.022 C 
ENDBRANCH  15  18
ENDBRANCH  12  15
ENDBRANCH   6  12
ENDBRANCH   1  10
BRANCH   4  20
ATOM     20  S   UNL     1      -1.926   7.771  -6.182  0.00  0.00    -0.061 S 
BRANCH  20  21
ATOM     21  C   UNL     1      -0.843   9.165  -5.782  0.00  0.00    +0.115 C 
BRANCH  21  22
ATOM     22  C   UNL     1      -1.084  10.286  -6.761  0.00  0.00    -0.020 A 
ATOM     23  C   UNL     1      -0.370  10.370  -7.914  0.00  0.00    +0.097 A 
ATOM     24  C   UNL     1      -0.617  11.425  -8.816  0.00  0.00    +0.338 A 
ATOM     25  O   UNL     1       0.028  11.487  -9.848  0.00  0.00    -0.245 OA
ATOM     26  O   UNL     1      -1.540  12.366  -8.565  0.00  0.00    -0.422 OA
ATOM     27  C   UNL     1      -2.281  12.343  -7.435  0.00  0.00    +0.143 A 
ATOM     28  C   UNL     1      -2.090  11.315  -6.494  0.00  0.00    +0.025 A 
ATOM     29  C   UNL     1      -2.854  11.287  -5.321  0.00  0.00    +0.061 A 
ATOM     30  C   UNL     1      -3.793  12.270  -5.095  0.00  0.00    +0.159 A 
ATOM     31  C   UNL     1      -3.982  13.290  -6.032  0.00  0.00    +0.162 A 
ATOM     32  C   UNL     1      -3.231  13.325  -7.194  0.00  0.00    +0.096 A 
BRANCH  31  33
ATOM     33  O   UNL     1      -4.911  14.254  -5.801  0.00  0.00    -0.503 OA
ATOM     34  H   UNL     1      -4.569  15.023  -5.324  0.00  0.00    +0.292 HD
ENDBRANCH  31  33
BRANCH  30  35
ATOM     35  O   UNL     1      -4.538  12.248  -3.957  0.00  0.00    -0.503 OA
ATOM     36  H   UNL     1      -4.143  12.730  -3.219  0.00  0.00    +0.292 HD
ENDBRANCH  30  35
ENDBRANCH  21  22
ENDBRANCH  20  21
ENDBRANCH   4  20
TORSDOF 10
