REMARK  Name = ZINC14551830
REMARK  7 active torsions:
REMARK  status: ('A' for Active; 'I' for Inactive)
REMARK    1  A    between atoms: C_1  and  C_2
REMARK    2  A    between atoms: C_2  and  O_3
REMARK    3  A    between atoms: O_3  and  C_4
REMARK    4  A    between atoms: C_4  and  C_6
REMARK    5  A    between atoms: C_19  and  C_22
REMARK    6  A    between atoms: C_25  and  S_28
REMARK    7  A    between atoms: S_28  and  C_29
REMARK                            x       y       z     vdW  Elec       q    Type
REMARK                         _______ _______ _______ _____ _____    ______ ____
ROOT
ATOM      1  C   UNL     1       1.738  -0.777  -0.175  0.00  0.00    +0.059 A 
ATOM      2  C   UNL     1       0.456  -0.221  -0.121  0.00  0.00    +0.017 A 
ATOM      3  C   UNL     1       0.298   1.133  -0.064  0.00  0.00    +0.024 A 
ATOM      4  C   UNL     1       1.405   1.978  -0.062  0.00  0.00    +0.031 A 
ATOM      5  C   UNL     1       2.694   1.425  -0.104  0.00  0.00    -0.019 A 
ATOM      6  C   UNL     1       2.857   0.063  -0.164  0.00  0.00    +0.021 A 
ATOM      7  C   UNL     1       3.840   2.359  -0.069  0.00  0.00    +0.049 C 
ATOM      8  C   UNL     1       5.158   2.006  -0.656  0.00  0.00    -0.023 C 
ATOM      9  C   UNL     1       5.735   3.116  -1.102  0.00  0.00    -0.030 C 
ATOM     10  C   UNL     1       4.811   4.314  -0.872  0.00  0.00    +0.033 C 
ATOM     11  C   UNL     1       3.432   3.641  -0.856  0.00  0.00    +0.029 C 
ATOM     12  C   UNL     1       2.347   4.299  -0.023  0.00  0.00    +0.105 C 
ATOM     13  N   UNL     1       1.206   3.358  -0.038  0.00  0.00    -0.336 N 
ATOM     14  H   UNL     1       0.301   3.707  -0.033  0.00  0.00    +0.147 HD
ENDROOT
BRANCH  12  15
ATOM     15  C   UNL     1       2.830   4.507   1.389  0.00  0.00    -0.027 A 
ATOM     16  C   UNL     1       2.601   3.537   2.348  0.00  0.00    +0.006 A 
ATOM     17  C   UNL     1       3.046   3.722   3.641  0.00  0.00    +0.015 A 
ATOM     18  C   UNL     1       3.716   4.891   3.983  0.00  0.00    +0.008 A 
ATOM     19  C   UNL     1       3.940   5.867   3.019  0.00  0.00    +0.015 A 
ATOM     20  C   UNL     1       3.496   5.672   1.726  0.00  0.00    +0.006 A 
BRANCH  18  21
ATOM     21  S   UNL     1       4.279   5.136   5.634  0.00  0.00    -0.129 S 
ATOM     22  C   UNL     1       3.766   3.627   6.501  0.00  0.00    +0.090 C 
ENDBRANCH  18  21
ENDBRANCH  12  15
BRANCH   1  23
ATOM     23  C   UNL     1       1.910  -2.239  -0.243  0.00  0.00    +0.339 C 
ATOM     24  O   UNL     1       3.025  -2.718  -0.289  0.00  0.00    -0.245 OA
BRANCH  23  25
ATOM     25  O   UNL     1       0.829  -3.045  -0.253  0.00  0.00    -0.461 OA
BRANCH  25  27
ATOM     26  C   UNL     1      -0.262  -5.220  -0.322  0.00  0.00    +0.048 C 
ATOM     27  C   UNL     1       1.074  -4.474  -0.321  0.00  0.00    +0.229 C 
ENDBRANCH  25  27
ENDBRANCH  23  25
ENDBRANCH   1  23
TORSDOF 5
