REMARK  Name = ZINC53234700
REMARK  6 active torsions:
REMARK  status: ('A' for Active; 'I' for Inactive)
REMARK    1  A    between atoms: C_3  and  N_20
REMARK    2  A    between atoms: C_6  and  N_7
REMARK    3  A    between atoms: C_8  and  C_10
REMARK    4  A    between atoms: C_10  and  C_11
REMARK    5  A    between atoms: C_11  and  S_12
REMARK    6  A    between atoms: S_12  and  C_13
REMARK                            x       y       z     vdW  Elec       q    Type
REMARK                         _______ _______ _______ _____ _____    ______ ____
ROOT
ATOM      1  N   UNL     1      -1.199  -0.757   0.020  0.00  0.00    -0.285 N 
ATOM      2  C   UNL     1      -1.248  -2.064   0.345  0.00  0.00    +0.218 C 
ATOM      3  O   UNL     1      -0.246  -2.633   0.725  0.00  0.00    -0.275 OA
ATOM      4  H   UNL     1      -2.013  -0.284  -0.211  0.00  0.00    +0.155 HD
ENDROOT
BRANCH   1  10
ATOM      5  C   UNL     1       1.190  -0.755  -0.338  0.00  0.00    +0.025 A 
ATOM      6  C   UNL     1       2.400  -0.090  -0.343  0.00  0.00    +0.025 A 
ATOM      7  C   UNL     1       2.455   1.253   0.007  0.00  0.00    +0.035 A 
ATOM      8  C   UNL     1       1.293   1.926   0.361  0.00  0.00    +0.025 A 
ATOM      9  C   UNL     1       0.084   1.260   0.366  0.00  0.00    +0.025 A 
ATOM     10  C   UNL     1       0.029  -0.082   0.016  0.00  0.00    +0.033 A 
BRANCH   7  11
ATOM     11  N   UNL     1       3.682   1.928   0.003  0.00  0.00    -0.270 N 
ATOM     12  C   UNL     1       4.608   1.638  -0.932  0.00  0.00    +0.301 C 
ATOM     13  O   UNL     1       4.413   0.733  -1.721  0.00  0.00    -0.253 OA
ATOM     14  N   UNL     1       5.750   2.351  -0.994  0.00  0.00    -0.313 N 
ATOM     15  H   UNL     1       3.866   2.605   0.674  0.00  0.00    +0.156 HD
ATOM     16  H   UNL     1       5.906   3.073  -0.366  0.00  0.00    +0.146 HD
ATOM     17  H   UNL     1       6.416   2.142  -1.668  0.00  0.00    +0.146 HD
ENDBRANCH   7  11
ENDBRANCH   1  10
BRANCH   2  18
ATOM     18  C   UNL     1      -2.547  -2.820   0.237  0.00  0.00    +0.107 C 
BRANCH  18  19
ATOM     19  C   UNL     1      -2.329  -4.273   0.662  0.00  0.00    +0.083 C 
BRANCH  19  20
ATOM     20  S   UNL     1      -3.894  -5.182   0.531  0.00  0.00    -0.125 S 
BRANCH  20  21
ATOM     21  C   UNL     1      -3.482  -6.816   1.048  0.00  0.00    +0.008 A 
ATOM     22  C   UNL     1      -2.182  -7.117   1.434  0.00  0.00    +0.016 A 
ATOM     23  C   UNL     1      -1.862  -8.398   1.839  0.00  0.00    +0.016 A 
ATOM     24  C   UNL     1      -2.835  -9.381   1.860  0.00  0.00    +0.018 A 
ATOM     25  C   UNL     1      -4.131  -9.085   1.476  0.00  0.00    +0.016 A 
ATOM     26  C   UNL     1      -4.458  -7.804   1.075  0.00  0.00    +0.016 A 
ATOM     27 BR   UNL     1      -2.393 -11.134   2.414  0.00  0.00    -0.050 Br
ENDBRANCH  20  21
ENDBRANCH  19  20
ENDBRANCH  18  19
ENDBRANCH   2  18
TORSDOF 6
