REMARK  Name = ZINC23424957
REMARK  6 active torsions:
REMARK  status: ('A' for Active; 'I' for Inactive)
REMARK    1  A    between atoms: C_1  and  C_2
REMARK    2  A    between atoms: C_2  and  C_32
REMARK    3  A    between atoms: C_3  and  C_4
REMARK    4  A    between atoms: C_12  and  O_30
REMARK    5  A    between atoms: C_19  and  C_21
REMARK    6  A    between atoms: O_30  and  C_31
REMARK                            x       y       z     vdW  Elec       q    Type
REMARK                         _______ _______ _______ _____ _____    ______ ____
ROOT
ATOM      1  C   UNL     1      -4.544   3.628   1.587  0.00  0.00    +0.240 C 
ATOM      2  O   UNL     1      -4.304   4.601   2.276  0.00  0.00    -0.271 OA
ATOM      3  N   UNL     1      -4.122   3.588   0.307  0.00  0.00    -0.285 N 
ATOM      4  C   UNL     1      -4.504   2.478  -0.579  0.00  0.00    +0.114 C 
ATOM      5  C   UNL     1      -5.372   3.027  -1.717  0.00  0.00    +0.056 C 
ATOM      6  C   UNL     1      -4.739   4.285  -2.254  0.00  0.00    -0.015 A 
ATOM      7  C   UNL     1      -4.989   4.946  -3.520  0.00  0.00    +0.007 A 
ATOM      8  C   UNL     1      -5.841   4.651  -4.589  0.00  0.00    +0.056 A 
ATOM      9  C   UNL     1      -5.819   5.528  -5.664  0.00  0.00    +0.121 A 
ATOM     10  C   UNL     1      -4.991   6.644  -5.682  0.00  0.00    +0.047 A 
ATOM     11  C   UNL     1      -4.142   6.950  -4.634  0.00  0.00    +0.030 A 
ATOM     12  C   UNL     1      -4.146   6.086  -3.541  0.00  0.00    +0.047 A 
ATOM     13  N   UNL     1      -3.446   6.095  -2.366  0.00  0.00    -0.356 N 
ATOM     14  H   UNL     1      -2.723   6.899  -2.163  0.00  0.00    +0.166 HD
ATOM     15  C   UNL     1      -3.805   5.017  -1.605  0.00  0.00    +0.046 A 
ATOM     16  C   UNL     1      -3.266   4.655  -0.239  0.00  0.00    +0.156 C 
ENDROOT
BRANCH  16  17
ATOM     17  C   UNL     1      -1.848   4.160  -0.364  0.00  0.00    +0.017 A 
ATOM     18  C   UNL     1      -1.345   3.810  -1.603  0.00  0.00    +0.050 A 
ATOM     19  C   UNL     1      -0.045   3.350  -1.718  0.00  0.00    +0.159 A 
ATOM     20  C   UNL     1       0.757   3.252  -0.591  0.00  0.00    +0.161 A 
ATOM     21  C   UNL     1       0.255   3.609   0.648  0.00  0.00    +0.080 A 
ATOM     22  C   UNL     1      -1.048   4.063   0.761  0.00  0.00    +0.132 A 
ATOM     23  F   UNL     1      -1.538   4.412   1.971  0.00  0.00    -0.205 F 
ATOM     24  F   UNL     1       2.029   2.808  -0.702  0.00  0.00    -0.202 F 
ATOM     25  F   UNL     1       0.444   3.001  -2.928  0.00  0.00    -0.202 F 
ENDBRANCH  16  17
BRANCH   1  28
ATOM     26  C   UNL     1      -5.275   3.659   4.314  0.00  0.00    +0.039 C 
ATOM     27  C   UNL     1      -5.712   2.535   3.411  0.00  0.00    -0.071 C 
ATOM     28  C   UNL     1      -5.294   2.494   2.149  0.00  0.00    +0.066 C 
ATOM     29  C   UNL     1      -6.623   1.456   3.938  0.00  0.00    +0.039 C 
ENDBRANCH   1  28
BRANCH   9  30
ATOM     30  O   UNL     1      -6.628   5.287  -6.730  0.00  0.00    -0.495 OA
ATOM     31  C   UNL     1      -6.569   6.218  -7.813  0.00  0.00    +0.277 C 
ENDBRANCH   9  30
TORSDOF 3
