REMARK  Name = ZINC60110272
REMARK  8 active torsions:
REMARK  status: ('A' for Active; 'I' for Inactive)
REMARK    1  A    between atoms: C_1  and  C_2
REMARK    2  A    between atoms: C_2  and  C_3
REMARK    3  A    between atoms: C_2  and  C_4
REMARK    4  A    between atoms: C_2  and  N_5
REMARK    5  A    between atoms: N_14  and  C_15
REMARK    6  A    between atoms: C_15  and  C_17
REMARK    7  A    between atoms: C_21  and  S_23
REMARK    8  A    between atoms: S_23  and  N_26
REMARK                            x       y       z     vdW  Elec       q    Type
REMARK                         _______ _______ _______ _____ _____    ______ ____
ROOT
ATOM      1  C   UNL     1       1.867   2.305  -3.141  0.00  0.00    +0.270 C 
ATOM      2  O   UNL     1       2.392   1.698  -4.058  0.00  0.00    -0.268 OA
ENDROOT
BRANCH   1  12
ATOM      3  N   UNL     1       0.701  -0.476  -1.195  0.00  0.00    -0.306 N 
ATOM      4  C   UNL     1       0.908  -1.806  -1.546  0.00  0.00    +0.068 A 
ATOM      5  C   UNL     1       0.579  -3.009  -0.936  0.00  0.00    +0.028 A 
ATOM      6  C   UNL     1       0.926  -4.202  -1.537  0.00  0.00    +0.002 A 
ATOM      7  C   UNL     1       1.601  -4.205  -2.746  0.00  0.00    +0.002 A 
ATOM      8  C   UNL     1       1.934  -3.014  -3.361  0.00  0.00    +0.028 A 
ATOM      9  C   UNL     1       1.589  -1.809  -2.765  0.00  0.00    +0.066 A 
ATOM     10  N   UNL     1       1.781  -0.481  -3.131  0.00  0.00    -0.326 N 
ATOM     11  C   UNL     1       1.231   0.310  -2.171  0.00  0.00    +0.202 A 
ATOM     12  N   UNL     1       1.217   1.638  -2.182  0.00  0.00    -0.142 NA
ATOM     13  H   UNL     1       2.228  -0.171  -3.935  0.00  0.00    +0.169 HD
BRANCH   3  15
ATOM     14  C   UNL     1      -0.004   1.527   0.019  0.00  0.00    +0.034 C 
ATOM     15  C   UNL     1       0.021  -0.003   0.013  0.00  0.00    +0.040 C 
ATOM     16  C   UNL     1       0.771  -0.505   1.249  0.00  0.00    +0.034 C 
ATOM     17  C   UNL     1      -1.413  -0.537   0.035  0.00  0.00    +0.034 C 
ENDBRANCH   3  15
ENDBRANCH   1  12
BRANCH   1  18
ATOM     18  C   UNL     1       1.949   3.783  -3.089  0.00  0.00    +0.041 A 
ATOM     19  C   UNL     1       1.354   4.481  -2.038  0.00  0.00    +0.013 A 
ATOM     20  C   UNL     1       1.435   5.858  -1.995  0.00  0.00    +0.003 A 
ATOM     21  C   UNL     1       2.104   6.546  -2.991  0.00  0.00    +0.028 A 
ATOM     22  C   UNL     1       2.696   5.860  -4.036  0.00  0.00    +0.106 A 
ATOM     23  C   UNL     1       2.627   4.482  -4.088  0.00  0.00    +0.041 A 
BRANCH  22  24
ATOM     24  S   UNL     1       3.545   6.745  -5.301  0.00  0.00    +0.061 S 
ATOM     25  O   UNL     1       3.542   5.912  -6.452  0.00  0.00    -0.153 OA
ATOM     26  O   UNL     1       3.004   8.059  -5.310  0.00  0.00    -0.153 OA
BRANCH  24  27
ATOM     27  N   UNL     1       5.124   6.887  -4.823  0.00  0.00    -0.177 NA
ATOM     28  C   UNL     1       5.564   8.038  -4.022  0.00  0.00    +0.109 C 
ATOM     29  C   UNL     1       6.269   7.522  -2.764  0.00  0.00    +0.017 C 
ATOM     30  C   UNL     1       7.397   6.571  -3.169  0.00  0.00    +0.003 C 
ATOM     31  C   UNL     1       6.812   5.373  -3.920  0.00  0.00    +0.017 C 
ATOM     32  C   UNL     1       6.112   5.861  -5.186  0.00  0.00    +0.109 C 
ENDBRANCH  24  27
ENDBRANCH  22  24
ENDBRANCH   1  18
TORSDOF 5
