REMARK  Name = ZINC35531720
REMARK  10 active torsions:
REMARK  status: ('A' for Active; 'I' for Inactive)
REMARK    1  A    between atoms: C_1  and  C_2
REMARK    2  A    between atoms: C_7  and  N_8
REMARK    3  A    between atoms: C_9  and  C_11
REMARK    4  A    between atoms: C_11  and  S_12
REMARK    5  A    between atoms: S_12  and  C_13
REMARK    6  A    between atoms: N_25  and  C_26
REMARK    7  A    between atoms: C_26  and  C_27
REMARK    8  A    between atoms: C_27  and  C_28
REMARK    9  A    between atoms: C_28  and  C_29
REMARK   10  A    between atoms: C_28  and  C_30
REMARK                            x       y       z     vdW  Elec       q    Type
REMARK                         _______ _______ _______ _____ _____    ______ ____
ROOT
ATOM      1  C   UNL     1      -0.384  -0.116   7.687  0.00  0.00    +0.198 A 
ATOM      2  N   UNL     1      -0.408   1.195   7.705  0.00  0.00    -0.120 NA
ATOM      3  N   UNL     1      -0.516   1.609   9.038  0.00  0.00    -0.109 NA
ATOM      4  C   UNL     1      -0.554   0.535   9.796  0.00  0.00    +0.240 A 
ATOM      5  N   UNL     1      -0.479  -0.555   8.978  0.00  0.00    -0.255 N 
ATOM      6  C   UNL     1      -0.502  -1.857   9.510  0.00  0.00    +0.071 A 
ATOM      7  C   UNL     1      -0.434  -3.084   8.856  0.00  0.00    +0.035 A 
ATOM      8  C   UNL     1      -0.473  -4.228   9.573  0.00  0.00    +0.048 A 
ATOM      9  S   UNL     1      -0.605  -3.716  11.168  0.00  0.00    -0.090 S 
ATOM     10  C   UNL     1      -0.609  -1.964  10.897  0.00  0.00    +0.101 A 
ATOM     11  C   UNL     1      -0.689  -0.836  11.723  0.00  0.00    +0.270 A 
ATOM     12  O   UNL     1      -0.781  -0.966  12.931  0.00  0.00    -0.266 OA
ATOM     13  N   UNL     1      -0.655   0.397  11.172  0.00  0.00    -0.276 N 
ENDROOT
BRANCH   1  14
ATOM     14  S   UNL     1      -0.259  -1.131   6.252  0.00  0.00    -0.076 S 
BRANCH  14  15
ATOM     15  C   UNL     1      -0.168   0.054   4.882  0.00  0.00    +0.173 C 
BRANCH  15  17
ATOM     16  N   UNL     1       0.025  -0.014   2.417  0.00  0.00    -0.285 N 
ATOM     17  C   UNL     1      -0.056  -0.693   3.578  0.00  0.00    +0.227 C 
ATOM     18  O   UNL     1      -0.040  -1.906   3.574  0.00  0.00    -0.275 OA
ATOM     19  H   UNL     1       0.078   0.955   2.424  0.00  0.00    +0.155 HD
BRANCH  16  26
ATOM     20  C   UNL     1      -1.265   1.183   0.181  0.00  0.00    +0.045 C 
ATOM     21  C   UNL     1      -0.584  -0.158   0.084  0.00  0.00    -0.029 A 
ATOM     22  C   UNL     1      -0.569  -0.840  -1.117  0.00  0.00    +0.006 A 
ATOM     23  C   UNL     1       0.054  -2.070  -1.207  0.00  0.00    +0.020 A 
ATOM     24  C   UNL     1       0.667  -2.622  -0.095  0.00  0.00    +0.043 A 
ATOM     25  C   UNL     1       0.655  -1.944   1.109  0.00  0.00    +0.043 A 
ATOM     26  C   UNL     1       0.034  -0.706   1.201  0.00  0.00    +0.038 A 
ATOM     27 CL   UNL     1       1.449  -4.168  -0.213  0.00  0.00    -0.083 Cl
ENDBRANCH  16  26
ENDBRANCH  15  17
ENDBRANCH  14  15
ENDBRANCH   1  14
BRANCH  13  28
ATOM     28  C   UNL     1      -0.740   1.585  12.025  0.00  0.00    +0.128 C 
BRANCH  28  29
ATOM     29  C   UNL     1      -2.208   1.973  12.214  0.00  0.00    +0.025 C 
BRANCH  29  30
ATOM     30  C   UNL     1      -2.296   3.214  13.105  0.00  0.00    -0.016 C 
ATOM     31  C   UNL     1      -3.752   3.676  13.192  0.00  0.00    +0.007 C 
ATOM     32  C   UNL     1      -1.784   2.873  14.506  0.00  0.00    +0.007 C 
ENDBRANCH  29  30
ENDBRANCH  28  29
ENDBRANCH  13  28
TORSDOF 7
