REMARK  Name = ZINC14183394
REMARK  8 active torsions:
REMARK  status: ('A' for Active; 'I' for Inactive)
REMARK    1  A    between atoms: C_1  and  C_2
REMARK    2  A    between atoms: C_2  and  O_3
REMARK    3  A    between atoms: O_3  and  C_4
REMARK    4  A    between atoms: C_9  and  N_10
REMARK    5  A    between atoms: C_11  and  C_13
REMARK    6  A    between atoms: N_16  and  S_19
REMARK    7  A    between atoms: S_19  and  C_22
REMARK    8  A    between atoms: C_33  and  C_36
REMARK                            x       y       z     vdW  Elec       q    Type
REMARK                         _______ _______ _______ _____ _____    ______ ____
ROOT
ATOM      1  C   UNL     1      -3.662  -0.838   0.245  0.00  0.00    +0.078 C 
ATOM      2  C   UNL     1      -3.848  -1.716  -0.995  0.00  0.00    +0.030 C 
ATOM      3  C   UNL     1      -5.140  -2.527  -0.853  0.00  0.00    +0.110 C 
ATOM      4  N   UNL     1      -6.252  -1.603  -0.595  0.00  0.00    -0.177 NA
ATOM      5  C   UNL     1      -6.138  -0.653   0.520  0.00  0.00    +0.110 C 
ATOM      6  C   UNL     1      -4.835   0.138   0.363  0.00  0.00    +0.030 C 
ENDROOT
BRANCH   1   8
ATOM      7  N   UNL     1      -1.203  -0.719   0.009  0.00  0.00    -0.282 N 
ATOM      8  C   UNL     1      -2.375  -0.064   0.125  0.00  0.00    +0.220 C 
ATOM      9  O   UNL     1      -2.393   1.149   0.132  0.00  0.00    -0.275 OA
ATOM     10  H   UNL     1      -1.194  -1.685  -0.077  0.00  0.00    +0.155 HD
BRANCH   7  16
ATOM     11  C   UNL     1       1.131  -0.543  -0.601  0.00  0.00    +0.142 A 
ATOM     12  C   UNL     1       2.321   0.168  -0.589  0.00  0.00    +0.055 A 
ATOM     13  C   UNL     1       2.383   1.400   0.026  0.00  0.00    +0.001 A 
ATOM     14  C   UNL     1       1.262   1.951   0.635  0.00  0.00    +0.126 A 
ATOM     15  C   UNL     1       0.069   1.235   0.627  0.00  0.00    +0.073 A 
ATOM     16  C   UNL     1       0.003  -0.005   0.013  0.00  0.00    +0.079 A 
ATOM     17  O   UNL     1       1.539   3.178   1.158  0.00  0.00    -0.488 OA
ATOM     18  C   UNL     1       2.962   3.315   1.314  0.00  0.00    +0.175 C 
ATOM     19  C   UNL     1       3.519   2.388   0.209  0.00  0.00    +0.083 C 
ATOM     20  C   UNL     1       3.395   4.763   1.076  0.00  0.00    +0.052 C 
BRANCH  11  21
ATOM     21  O   UNL     1       1.066  -1.758  -1.209  0.00  0.00    -0.490 OA
BRANCH  21  23
ATOM     22  C   UNL     1       1.997  -3.615  -2.445  0.00  0.00    +0.048 C 
ATOM     23  C   UNL     1       2.264  -2.245  -1.817  0.00  0.00    +0.226 C 
ENDBRANCH  21  23
ENDBRANCH  11  21
ENDBRANCH   7  16
ENDBRANCH   1   8
BRANCH   4  24
ATOM     24  S   UNL     1      -7.610  -1.632  -1.542  0.00  0.00    +0.061 S 
ATOM     25  O   UNL     1      -7.680  -2.931  -2.113  0.00  0.00    -0.153 OA
ATOM     26  O   UNL     1      -8.663  -1.086  -0.760  0.00  0.00    -0.153 OA
BRANCH  24  27
ATOM     27  C   UNL     1      -7.340  -0.511  -2.875  0.00  0.00    +0.106 A 
ATOM     28  C   UNL     1      -7.711   0.815  -2.752  0.00  0.00    +0.029 A 
ATOM     29  C   UNL     1      -7.492   1.687  -3.798  0.00  0.00    +0.006 A 
ATOM     30  C   UNL     1      -6.913   1.242  -4.980  0.00  0.00    -0.044 A 
ATOM     31  C   UNL     1      -6.546  -0.080  -5.103  0.00  0.00    -0.042 A 
ATOM     32  C   UNL     1      -6.762  -0.955  -4.046  0.00  0.00    +0.032 A 
ATOM     33  C   UNL     1      -5.905  -0.630  -6.350  0.00  0.00    +0.035 C 
ATOM     34  C   UNL     1      -6.130   0.312  -7.530  0.00  0.00    +0.005 C 
ATOM     35  C   UNL     1      -5.708   1.725  -7.109  0.00  0.00    +0.005 C 
ATOM     36  C   UNL     1      -6.717   2.244  -6.087  0.00  0.00    +0.035 C 
ENDBRANCH  24  27
ENDBRANCH   4  24
TORSDOF 6
