REMARK  Name = ZINC43919175
REMARK  13 active torsions:
REMARK  status: ('A' for Active; 'I' for Inactive)
REMARK    1  A    between atoms: C_1  and  C_2
REMARK    2  A    between atoms: C_2  and  C_4
REMARK    3  A    between atoms: C_2  and  C_10
REMARK    4  A    between atoms: C_4  and  C_5
REMARK    5  A    between atoms: C_5  and  C_6
REMARK    6  A    between atoms: C_6  and  C_7
REMARK    7  A    between atoms: C_7  and  C_8
REMARK    8  A    between atoms: C_7  and  C_9
REMARK    9  A    between atoms: C_16  and  C_37
REMARK   10  A    between atoms: C_24  and  O_36
REMARK   11  A    between atoms: C_26  and  O_35
REMARK   12  A    between atoms: C_27  and  C_34
REMARK   13  A    between atoms: C_30  and  O_33
REMARK                            x       y       z     vdW  Elec       q    Type
REMARK                         _______ _______ _______ _____ _____    ______ ____
ROOT
ATOM      1  C   UNL     1       0.918  -0.578  -1.081  0.00  0.00    -0.002 C 
ATOM      2  C   UNL     1       0.926  -2.125  -1.013  0.00  0.00    +0.004 C 
ATOM      3  C   UNL     1       0.300  -2.625  -2.343  0.00  0.00    +0.004 C 
ATOM      4  C   UNL     1      -0.557  -1.435  -2.787  0.00  0.00    -0.001 C 
ATOM      5  C   UNL     1       0.379  -0.235  -2.466  0.00  0.00    -0.026 C 
ATOM      6  C   UNL     1      -0.448   1.031  -2.576  0.00  0.00    +0.007 C 
ATOM      7  C   UNL     1      -0.889   1.163  -4.044  0.00  0.00    +0.005 C 
ATOM      8  C   UNL     1      -1.671  -0.064  -4.501  0.00  0.00    +0.001 C 
ATOM      9  C   UNL     1      -0.892  -1.375  -4.266  0.00  0.00    -0.001 C 
ATOM     10  C   UNL     1      -1.756  -2.572  -4.665  0.00  0.00    +0.038 C 
ATOM     11  C   UNL     1      -2.125  -2.463  -6.146  0.00  0.00    +0.147 C 
ATOM     12  C   UNL     1      -2.909  -1.170  -6.383  0.00  0.00    +0.100 C 
ATOM     13  C   UNL     1      -2.017   0.058  -5.986  0.00  0.00    +0.002 C 
ATOM     14  C   UNL     1      -2.803   1.349  -6.221  0.00  0.00    +0.012 C 
ATOM     15  C   UNL     1      -3.155   1.470  -7.705  0.00  0.00    +0.032 C 
ATOM     16  C   UNL     1      -4.007   0.271  -8.126  0.00  0.00    +0.117 C 
ATOM     17  C   UNL     1      -3.278  -1.061  -7.863  0.00  0.00    +0.069 C 
ATOM     18  C   UNL     1      -0.728   0.086  -6.809  0.00  0.00    +0.014 C 
ATOM     19  C   UNL     1       1.529  -0.192  -3.473  0.00  0.00    +0.012 C 
ENDROOT
BRANCH   1  21
ATOM     20  C   UNL     1       0.611  -0.271   1.380  0.00  0.00    +0.008 C 
ATOM     21  C   UNL     1       0.002  -0.004   0.002  0.00  0.00    -0.010 C 
BRANCH  21  22
ATOM     22  C   UNL     1      -1.372  -0.672  -0.086  0.00  0.00    +0.003 C 
BRANCH  22  23
ATOM     23  C   UNL     1      -2.274  -0.132   1.025  0.00  0.00    +0.001 C 
BRANCH  23  24
ATOM     24  C   UNL     1      -3.647  -0.799   0.937  0.00  0.00    +0.003 C 
BRANCH  24  25
ATOM     25  C   UNL     1      -4.549  -0.259   2.049  0.00  0.00    -0.017 C 
ATOM     26  C   UNL     1      -4.808   1.231   1.817  0.00  0.00    +0.007 C 
ATOM     27  C   UNL     1      -5.880  -1.015   2.038  0.00  0.00    +0.007 C 
ENDBRANCH  24  25
ENDBRANCH  23  24
ENDBRANCH  22  23
ENDBRANCH  21  22
ENDBRANCH   1  21
BRANCH  16  28
ATOM     28  O   UNL     1      -5.208   0.244  -7.351  0.00  0.00    -0.392 OA
ATOM     29  H   UNL     1      -5.758   1.033  -7.450  0.00  0.00    +0.210 HD
ENDBRANCH  16  28
BRANCH  12  30
ATOM     30  O   UNL     1      -4.101  -1.186  -5.595  0.00  0.00    -0.385 OA
ATOM     31  H   UNL     1      -4.696  -1.921  -5.796  0.00  0.00    +0.210 HD
ENDBRANCH  12  30
BRANCH  11  32
ATOM     32  O   UNL     1      -2.930  -3.583  -6.519  0.00  0.00    -0.389 OA
ATOM     33  H   UNL     1      -2.496  -4.438  -6.396  0.00  0.00    +0.210 HD
ENDBRANCH  11  32
TORSDOF 8
