REMARK  Name = ZINC59018516
REMARK  6 active torsions:
REMARK  status: ('A' for Active; 'I' for Inactive)
REMARK    1  A    between atoms: C_3  and  C_8
REMARK    2  A    between atoms: C_8  and  S_9
REMARK    3  A    between atoms: S_9  and  C_10
REMARK    4  A    between atoms: N_16  and  N_17
REMARK    5  A    between atoms: C_18  and  C_19
REMARK    6  A    between atoms: C_24  and  O_25
REMARK                            x       y       z     vdW  Elec       q    Type
REMARK                         _______ _______ _______ _____ _____    ______ ____
ROOT
ATOM      1  C   UNL     1       5.713   3.383   1.506  0.00  0.00    +0.191 A 
ATOM      2  N   UNL     1       6.503   3.837   2.525  0.00  0.00    -0.303 N 
ATOM      3  H   UNL     1       6.334   3.720   3.473  0.00  0.00    +0.171 HD
ATOM      4  C   UNL     1       7.574   4.483   1.973  0.00  0.00    +0.235 A 
ATOM      5  N   UNL     1       7.450   4.431   0.669  0.00  0.00    -0.111 NA
ATOM      6  N   UNL     1       6.274   3.730   0.373  0.00  0.00    -0.121 NA
ATOM      7  N   UNL     1       8.609   5.088   2.671  0.00  0.00    -0.205 N 
ATOM      8  H   UNL     1       8.613   5.075   3.641  0.00  0.00    +0.177 HD
ENDROOT
BRANCH   7   9
ATOM      9  N   UNL     1       9.649   5.718   1.974  0.00  0.00    -0.187 NA
ATOM     10  C   UNL     1      10.617   6.285   2.628  0.00  0.00    +0.142 C 
BRANCH  10  11
ATOM     11  C   UNL     1      11.711   6.948   1.896  0.00  0.00    +0.037 A 
ATOM     12  C   UNL     1      12.758   7.553   2.594  0.00  0.00    +0.033 A 
ATOM     13  C   UNL     1      13.780   8.172   1.902  0.00  0.00    +0.042 A 
ATOM     14  C   UNL     1      13.770   8.195   0.517  0.00  0.00    +0.023 A 
ATOM     15  C   UNL     1      12.739   7.599  -0.185  0.00  0.00    +0.047 A 
ATOM     16  C   UNL     1      11.709   6.969   0.494  0.00  0.00    +0.126 A 
ATOM     17 CL   UNL     1      15.081   8.924   2.771  0.00  0.00    -0.084 Cl
BRANCH  16  18
ATOM     18  O   UNL     1      10.699   6.378  -0.195  0.00  0.00    -0.506 OA
ATOM     19  H   UNL     1       9.954   6.966  -0.383  0.00  0.00    +0.292 HD
ENDBRANCH  16  18
ENDBRANCH  10  11
ENDBRANCH   7   9
BRANCH   1  20
ATOM     20  S   UNL     1       4.208   2.484   1.684  0.00  0.00    -0.081 S 
BRANCH  20  21
ATOM     21  C   UNL     1       3.672   2.183  -0.022  0.00  0.00    +0.112 C 
BRANCH  21  24
ATOM     22  C   UNL     1      -0.017   1.378   0.010  0.00  0.00    +0.001 A 
ATOM     23  C   UNL     1       1.171   2.086   0.002  0.00  0.00    +0.004 A 
ATOM     24  C   UNL     1       2.378   1.411  -0.013  0.00  0.00    -0.036 A 
ATOM     25  C   UNL     1       2.397   0.029  -0.022  0.00  0.00    +0.019 A 
ATOM     26  C   UNL     1       1.210  -0.679  -0.014  0.00  0.00    +0.018 A 
ATOM     27  C   UNL     1       0.002  -0.004   0.002  0.00  0.00    +0.015 A 
ATOM     28 BR   UNL     1       1.236  -2.570  -0.025  0.00  0.00    -0.050 Br
ENDBRANCH  21  24
ENDBRANCH  20  21
ENDBRANCH   1  20
TORSDOF 6
