REMARK  Name = ZINC20941500
REMARK  10 active torsions:
REMARK  status: ('A' for Active; 'I' for Inactive)
REMARK    1  A    between atoms: C_1  and  C_2
REMARK    2  A    between atoms: N_8  and  C_9
REMARK    3  A    between atoms: C_9  and  C_10
REMARK    4  A    between atoms: C_10  and  C_11
REMARK    5  A    between atoms: C_11  and  N_12
REMARK    6  A    between atoms: N_15  and  C_16
REMARK    7  A    between atoms: N_18  and  C_27
REMARK    8  A    between atoms: C_27  and  C_28
REMARK    9  A    between atoms: C_28  and  C_29
REMARK   10  A    between atoms: C_28  and  C_30
REMARK                            x       y       z     vdW  Elec       q    Type
REMARK                         _______ _______ _______ _____ _____    ______ ____
ROOT
ATOM      1  N   UNL     1      -2.502  -3.899   3.789  0.00  0.00    -0.299 N 
ATOM      2  C   UNL     1      -2.409  -2.676   3.230  0.00  0.00    +0.304 C 
ATOM      3  O   UNL     1      -1.327  -2.129   3.138  0.00  0.00    -0.253 OA
ATOM      4  N   UNL     1      -3.517  -2.059   2.772  0.00  0.00    -0.268 N 
ATOM      5  H   UNL     1      -3.481  -4.393   3.872  0.00  0.00    +0.150 HD
ATOM      6  H   UNL     1      -4.505  -2.518   2.923  0.00  0.00    +0.156 HD
ENDROOT
BRANCH   4   7
ATOM      7  C   UNL     1      -3.409  -0.830   2.102  0.00  0.00    +0.059 A 
ATOM      8  C   UNL     1      -3.837  -0.708   0.830  0.00  0.00    +0.113 A 
ATOM      9  N   UNL     1      -3.752   0.470   0.139  0.00  0.00    -0.313 N 
ATOM     10  C   UNL     1      -3.229   1.587   0.683  0.00  0.00    +0.259 A 
ATOM     11  O   UNL     1      -3.166   2.616   0.035  0.00  0.00    -0.267 OA
ATOM     12  C   UNL     1      -2.742   1.552   2.066  0.00  0.00    +0.048 A 
ATOM     13  C   UNL     1      -2.829   0.335   2.780  0.00  0.00    +0.010 A 
ATOM     14  C   UNL     1      -2.369   0.270   4.095  0.00  0.00    +0.010 A 
ATOM     15  C   UNL     1      -1.838   1.385   4.681  0.00  0.00    +0.001 A 
ATOM     16  C   UNL     1      -1.749   2.583   3.985  0.00  0.00    +0.001 A 
ATOM     17  C   UNL     1      -2.195   2.677   2.685  0.00  0.00    +0.014 A 
BRANCH   9  18
ATOM     18  C   UNL     1      -4.240   0.518  -1.242  0.00  0.00    +0.128 C 
BRANCH  18  19
ATOM     19  C   UNL     1      -5.719   0.909  -1.246  0.00  0.00    +0.003 C 
ATOM     20  C   UNL     1      -6.261   0.838  -2.675  0.00  0.00    +0.009 C 
ATOM     21  C   UNL     1      -5.872   2.335  -0.713  0.00  0.00    +0.009 C 
ENDBRANCH  18  19
ENDBRANCH   9  18
ENDBRANCH   4   7
BRANCH   1  22
ATOM     22  C   UNL     1      -1.298  -4.569   4.286  0.00  0.00    +0.104 C 
BRANCH  22  23
ATOM     23  C   UNL     1      -1.678  -5.933   4.868  0.00  0.00    +0.000 C 
BRANCH  23  24
ATOM     24  C   UNL     1      -0.421  -6.633   5.388  0.00  0.00    -0.077 C 
BRANCH  24  31
ATOM     25  C   UNL     1       1.354  -7.940   7.138  0.00  0.00    -0.013 C 
ATOM     26  C   UNL     1       0.412  -8.742   6.237  0.00  0.00    -0.072 C 
ATOM     27  C   UNL     1       0.003 -10.034   6.949  0.00  0.00    -0.016 C 
ATOM     28  C   UNL     1      -0.955 -10.823   6.053  0.00  0.00    -0.003 C 
ATOM     29  C   UNL     1      -2.170  -9.951   5.725  0.00  0.00    -0.019 C 
ATOM     30  C   UNL     1      -1.698  -8.662   5.048  0.00  0.00    -0.078 C 
ATOM     31  N   UNL     1      -0.785  -7.942   5.946  0.00  0.00    +0.381 N 
ATOM     32  H   UNL     1      -1.314  -7.771   6.895  0.00  0.00    -0.081 HD
ENDBRANCH  24  31
ENDBRANCH  23  24
ENDBRANCH  22  23
ENDBRANCH   1  22
TORSDOF 7
