REMARK  Name = ZINC16807910
REMARK  11 active torsions:
REMARK  status: ('A' for Active; 'I' for Inactive)
REMARK    1  A    between atoms: C_1  and  C_2
REMARK    2  A    between atoms: C_2  and  C_3
REMARK    3  A    between atoms: C_2  and  C_4
REMARK    4  A    between atoms: C_2  and  C_5
REMARK    5  A    between atoms: C_8  and  C_11
REMARK    6  A    between atoms: C_14  and  S_22
REMARK    7  A    between atoms: N_15  and  C_16
REMARK    8  A    between atoms: C_16  and  C_17
REMARK    9  A    between atoms: S_22  and  C_23
REMARK   10  A    between atoms: C_23  and  C_24
REMARK   11  A    between atoms: N_26  and  C_27
REMARK                            x       y       z     vdW  Elec       q    Type
REMARK                         _______ _______ _______ _____ _____    ______ ____
ROOT
ATOM      1  C   UNL     1      -7.272   0.425   0.654  0.00  0.00    +0.165 A 
ATOM      2  N   UNL     1      -6.471  -0.615   0.655  0.00  0.00    -0.128 NA
ATOM      3  N   UNL     1      -5.295  -0.263   0.276  0.00  0.00    -0.122 NA
ATOM      4  C   UNL     1      -5.271   1.026   0.019  0.00  0.00    +0.193 A 
ATOM      5  N   UNL     1      -6.528   1.508   0.247  0.00  0.00    -0.295 N 
ENDROOT
BRANCH   1   9
ATOM      6  C   UNL     1     -11.386   0.442   1.710  0.00  0.00    -0.042 A 
ATOM      7  C   UNL     1     -10.584  -0.623   2.082  0.00  0.00    +0.005 A 
ATOM      8  C   UNL     1      -9.247  -0.634   1.743  0.00  0.00    +0.012 A 
ATOM      9  C   UNL     1      -8.704   0.430   1.022  0.00  0.00    +0.019 A 
ATOM     10  C   UNL     1      -9.518   1.504   0.655  0.00  0.00    +0.012 A 
ATOM     11  C   UNL     1     -10.854   1.501   0.997  0.00  0.00    +0.005 A 
BRANCH   6  13
ATOM     12  C   UNL     1     -12.982   0.394   3.608  0.00  0.00    +0.015 C 
ATOM     13  C   UNL     1     -12.846   0.448   2.085  0.00  0.00    -0.013 C 
ATOM     14  C   UNL     1     -13.502   1.726   1.559  0.00  0.00    +0.015 C 
ATOM     15  C   UNL     1     -13.536  -0.771   1.468  0.00  0.00    +0.015 C 
ENDBRANCH   6  13
ENDBRANCH   1   9
BRANCH   5  16
ATOM     16  C   UNL     1      -6.989   2.890   0.090  0.00  0.00    +0.200 C 
BRANCH  16  17
ATOM     17  C   UNL     1      -7.335   3.143  -1.354  0.00  0.00    +0.125 A 
ATOM     18  C   UNL     1      -8.509   2.856  -1.944  0.00  0.00    +0.046 A 
ATOM     19  C   UNL     1      -8.399   3.259  -3.294  0.00  0.00    +0.041 A 
ATOM     20  C   UNL     1      -7.162   3.762  -3.451  0.00  0.00    +0.195 A 
ATOM     21  O   UNL     1      -6.521   3.689  -2.273  0.00  0.00    -0.466 OA
ENDBRANCH  16  17
ENDBRANCH   5  16
BRANCH   4  22
ATOM     22  S   UNL     1      -3.878   1.958  -0.527  0.00  0.00    -0.077 S 
BRANCH  22  23
ATOM     23  C   UNL     1      -2.629   0.649  -0.588  0.00  0.00    +0.173 C 
BRANCH  23  24
ATOM     24  C   UNL     1      -1.315   1.229  -1.042  0.00  0.00    +0.227 C 
ATOM     25  O   UNL     1      -1.231   2.411  -1.300  0.00  0.00    -0.275 OA
ATOM     26  N   UNL     1      -0.233   0.435  -1.163  0.00  0.00    -0.285 N 
ATOM     27  H   UNL     1      -0.316  -0.522  -1.024  0.00  0.00    +0.155 HD
BRANCH  26  28
ATOM     28  C   UNL     1       1.008   0.989  -1.494  0.00  0.00    +0.035 A 
ATOM     29  C   UNL     1       1.072   2.070  -2.375  0.00  0.00    +0.024 A 
ATOM     30  C   UNL     1       2.272   2.626  -2.705  0.00  0.00    +0.013 A 
ATOM     31  C   UNL     1       3.456   2.105  -2.166  0.00  0.00    +0.020 A 
ATOM     32  C   UNL     1       4.824   2.443  -2.310  0.00  0.00    +0.142 A 
ATOM     33  N   UNL     1       5.533   1.632  -1.581  0.00  0.00    -0.181 NA
ATOM     34  N   UNL     1       4.690   0.726  -0.925  0.00  0.00    -0.277 N 
ATOM     35  H   UNL     1       4.981  -0.003  -0.304  0.00  0.00    +0.189 HD
ATOM     36  C   UNL     1       3.397   1.011  -1.282  0.00  0.00    +0.067 A 
ATOM     37  C   UNL     1       2.164   0.458  -0.951  0.00  0.00    +0.051 A 
ENDBRANCH  26  28
ENDBRANCH  23  24
ENDBRANCH  22  23
ENDBRANCH   4  22
TORSDOF 8
