REMARK  Name = ZINC05416682
REMARK  7 active torsions:
REMARK  status: ('A' for Active; 'I' for Inactive)
REMARK    1  A    between atoms: C_1  and  C_2
REMARK    2  A    between atoms: C_5  and  C_8
REMARK    3  A    between atoms: C_8  and  C_10
REMARK    4  A    between atoms: C_8  and  O_28
REMARK    5  A    between atoms: C_10  and  N_12
REMARK    6  A    between atoms: C_10  and  O_21
REMARK    7  A    between atoms: O_21  and  C_22
REMARK                            x       y       z     vdW  Elec       q    Type
REMARK                         _______ _______ _______ _____ _____    ______ ____
ROOT
ATOM      1  C   UNL     1       2.067   1.107   1.254  0.00  0.00    +0.327 C 
ENDROOT
BRANCH   1   2
ATOM      2  N   UNL     1       1.414   1.405   2.531  0.00  0.00    -0.202 N 
ATOM      3  C   UNL     1       0.730   0.521   3.331  0.00  0.00    +0.093 A 
ATOM      4  C   UNL     1       0.435  -0.836   3.241  0.00  0.00    +0.030 A 
ATOM      5  C   UNL     1      -0.286  -1.441   4.231  0.00  0.00    +0.002 A 
ATOM      6  C   UNL     1      -0.728  -0.714   5.330  0.00  0.00    +0.002 A 
ATOM      7  C   UNL     1      -0.452   0.617   5.442  0.00  0.00    +0.032 A 
ATOM      8  C   UNL     1       0.286   1.262   4.440  0.00  0.00    +0.113 A 
ATOM      9  N   UNL     1       0.705   2.533   4.277  0.00  0.00    -0.129 NA
ATOM     10  N   UNL     1       1.368   2.647   3.181  0.00  0.00    -0.061 NA
ENDBRANCH   1   2
BRANCH   1  11
ATOM     11  C   UNL     1       1.221   1.662   0.107  0.00  0.00    +0.208 C 
BRANCH  11  16
ATOM     12  C   UNL     1       3.800   0.486  -4.929  0.00  0.00    +0.044 C 
ATOM     13  C   UNL     1       3.127   0.793  -3.616  0.00  0.00    -0.050 A 
ATOM     14  C   UNL     1       3.333   2.014  -3.002  0.00  0.00    +0.004 A 
ATOM     15  C   UNL     1       2.717   2.295  -1.798  0.00  0.00    +0.006 A 
ATOM     16  C   UNL     1       1.893   1.355  -1.207  0.00  0.00    -0.014 A 
ATOM     17  C   UNL     1       1.691   0.132  -1.818  0.00  0.00    +0.006 A 
ATOM     18  C   UNL     1       2.303  -0.147  -3.025  0.00  0.00    +0.004 A 
ENDBRANCH  11  16
BRANCH  11  19
ATOM     19  O   UNL     1      -0.073   1.056   0.133  0.00  0.00    -0.381 OA
ATOM     20  H   UNL     1      -0.059   0.094   0.037  0.00  0.00    +0.210 HD
ENDBRANCH  11  19
ENDBRANCH   1  11
BRANCH   1  21
ATOM     21  O   UNL     1       3.361   1.713   1.228  0.00  0.00    -0.464 OA
BRANCH  21  22
ATOM     22  C   UNL     1       4.376   0.978   0.703  0.00  0.00    +0.124 A 
ATOM     23  C   UNL     1       4.113  -0.252   0.118  0.00  0.00    +0.046 A 
ATOM     24  C   UNL     1       5.146  -0.995  -0.420  0.00  0.00    +0.004 A 
ATOM     25  C   UNL     1       6.443  -0.518  -0.367  0.00  0.00    +0.000 A 
ATOM     26  C   UNL     1       6.708   0.705   0.221  0.00  0.00    +0.004 A 
ATOM     27  C   UNL     1       5.678   1.454   0.756  0.00  0.00    +0.046 A 
ENDBRANCH  21  22
ENDBRANCH   1  21
TORSDOF 6
