REMARK  Name = ZINC40312665
REMARK  10 active torsions:
REMARK  status: ('A' for Active; 'I' for Inactive)
REMARK    1  A    between atoms: C_4  and  O_7
REMARK    2  A    between atoms: O_7  and  C_8
REMARK    3  A    between atoms: C_8  and  C_9
REMARK    4  A    between atoms: C_9  and  C_11
REMARK    5  A    between atoms: C_9  and  O_35
REMARK    6  A    between atoms: C_11  and  N_12
REMARK    7  A    between atoms: N_12  and  C_13
REMARK    8  A    between atoms: N_12  and  C_27
REMARK    9  A    between atoms: C_13  and  C_14
REMARK   10  A    between atoms: C_17  and  C_19
REMARK                            x       y       z     vdW  Elec       q    Type
REMARK                         _______ _______ _______ _____ _____    ______ ____
ROOT
ATOM      1  N   UNL     1       6.289  -4.975  -0.222  0.00  0.00    +0.389 N 
ATOM      2  H   UNL     1       6.824  -5.161  -1.057  0.00  0.00    -0.081 HD
ENDROOT
BRANCH   1   3
ATOM      3  C   UNL     1       7.200  -4.603   0.869  0.00  0.00    -0.045 C 
ATOM      4  C   UNL     1       8.482  -5.447   0.787  0.00  0.00    +0.009 C 
ATOM      5  C   UNL     1       9.297  -5.298   2.094  0.00  0.00    +0.164 C 
ATOM      6  S   UNL     1       7.996  -4.937   3.342  0.00  0.00    -0.033 S 
ATOM      7  O   UNL     1       8.217  -3.640   3.879  0.00  0.00    -0.174 OA
ATOM      8  O   UNL     1       7.878  -6.047   4.222  0.00  0.00    -0.174 OA
ATOM      9  C   UNL     1       6.521  -4.886   2.240  0.00  0.00    +0.151 C 
ENDBRANCH   1   3
BRANCH   1  10
ATOM     10  C   UNL     1       5.352  -3.873  -0.475  0.00  0.00    -0.043 C 
BRANCH  10  11
ATOM     11  C   UNL     1       6.119  -2.668  -1.025  0.00  0.00    +0.135 C 
BRANCH  11  12
ATOM     12  O   UNL     1       6.765  -3.031  -2.246  0.00  0.00    -0.390 OA
ATOM     13  H   UNL     1       6.159  -3.324  -2.940  0.00  0.00    +0.210 HD
ENDBRANCH  11  12
BRANCH  11  14
ATOM     14  C   UNL     1       5.143  -1.519  -1.287  0.00  0.00    +0.258 C 
BRANCH  14  15
ATOM     15  O   UNL     1       5.872  -0.357  -1.689  0.00  0.00    -0.489 OA
BRANCH  15  19
ATOM     16  C   UNL     1       3.678   3.036  -2.518  0.00  0.00    +0.000 A 
ATOM     17  C   UNL     1       5.055   3.059  -2.635  0.00  0.00    +0.004 A 
ATOM     18  C   UNL     1       5.792   1.924  -2.357  0.00  0.00    +0.045 A 
ATOM     19  C   UNL     1       5.149   0.761  -1.962  0.00  0.00    +0.121 A 
ATOM     20  C   UNL     1       3.767   0.740  -1.845  0.00  0.00    +0.045 A 
ATOM     21  C   UNL     1       3.034   1.878  -2.124  0.00  0.00    +0.004 A 
ENDBRANCH  15  19
ENDBRANCH  14  15
ENDBRANCH  11  14
ENDBRANCH  10  11
ENDBRANCH   1  10
BRANCH   1  22
ATOM     22  C   UNL     1       5.538  -6.179   0.157  0.00  0.00    -0.003 C 
BRANCH  22  23
ATOM     23  C   UNL     1       6.486  -7.344   0.282  0.00  0.00    +0.089 A 
ATOM     24  C   UNL     1       6.817  -7.967   1.430  0.00  0.00    +0.043 A 
ATOM     25  C   UNL     1       7.724  -8.993   1.096  0.00  0.00    +0.050 A 
ATOM     26  C   UNL     1       7.897  -8.939  -0.252  0.00  0.00    +0.137 A 
ATOM     27  O   UNL     1       7.136  -7.937  -0.732  0.00  0.00    -0.462 OA
BRANCH  26  28
ATOM     28  C   UNL     1       8.767  -9.827  -1.050  0.00  0.00    +0.037 A 
ATOM     29  C   UNL     1      10.091 -10.043  -0.666  0.00  0.00    +0.033 A 
ATOM     30  C   UNL     1      10.898 -10.875  -1.417  0.00  0.00    +0.042 A 
ATOM     31  C   UNL     1      10.396 -11.494  -2.549  0.00  0.00    +0.021 A 
ATOM     32  C   UNL     1       9.084 -11.285  -2.936  0.00  0.00    +0.022 A 
ATOM     33  C   UNL     1       8.265 -10.460  -2.190  0.00  0.00    +0.052 A 
ATOM     34 CL   UNL     1       6.617 -10.203  -2.674  0.00  0.00    -0.083 Cl
ATOM     35 CL   UNL     1      12.545 -11.145  -0.940  0.00  0.00    -0.084 Cl
ENDBRANCH  26  28
ENDBRANCH  22  23
ENDBRANCH   1  22
TORSDOF 10
