REMARK  Name = ZINC40345921
REMARK  5 active torsions:
REMARK  status: ('A' for Active; 'I' for Inactive)
REMARK    1  A    between atoms: C_8  and  S_10
REMARK    2  A    between atoms: S_10  and  C_11
REMARK    3  A    between atoms: C_11  and  C_12
REMARK    4  A    between atoms: N_14  and  N_15
REMARK    5  A    between atoms: C_16  and  C_18
REMARK                            x       y       z     vdW  Elec       q    Type
REMARK                         _______ _______ _______ _____ _____    ______ ____
ROOT
ATOM      1  N   UNL     1       7.197  -7.240  -0.092  0.00  0.00    -0.230 N 
ATOM      2  C   UNL     1       8.524  -7.475  -0.119  0.00  0.00    +0.265 C 
ATOM      3  O   UNL     1       9.303  -6.547  -0.225  0.00  0.00    -0.268 OA
ATOM      4  H   UNL     1       6.573  -7.983  -0.082  0.00  0.00    +0.173 HD
ENDROOT
BRANCH   2   5
ATOM      5  C   UNL     1       9.029  -8.853  -0.020  0.00  0.00    +0.101 A 
ATOM      6  C   UNL     1      10.384  -9.098   0.070  0.00  0.00    +0.100 A 
ATOM      7  N   UNL     1      10.880 -10.339   0.162  0.00  0.00    -0.360 N 
ATOM      8  C   UNL     1      10.083 -11.463   0.173  0.00  0.00    +0.050 A 
ATOM      9  C   UNL     1      10.650 -12.732   0.270  0.00  0.00    +0.028 A 
ATOM     10  C   UNL     1       9.843 -13.848   0.281  0.00  0.00    +0.022 A 
ATOM     11  C   UNL     1       8.462 -13.726   0.196  0.00  0.00    +0.042 A 
ATOM     12  C   UNL     1       7.880 -12.480   0.099  0.00  0.00    +0.033 A 
ATOM     13  C   UNL     1       8.686 -11.342   0.087  0.00  0.00    +0.047 A 
ATOM     14  C   UNL     1       8.098  -9.992  -0.009  0.00  0.00    +0.202 A 
ATOM     15  O   UNL     1       6.893  -9.828  -0.081  0.00  0.00    -0.286 OA
ATOM     16 CL   UNL     1       7.466 -15.147   0.210  0.00  0.00    -0.084 Cl
ATOM     17  H   UNL     1      11.842 -10.451   0.222  0.00  0.00    +0.165 HD
ENDBRANCH   2   5
BRANCH   1  20
ATOM     18  C   UNL     1       5.391  -5.689  -0.052  0.00  0.00    +0.239 C 
ATOM     19  O   UNL     1       4.611  -6.618  -0.040  0.00  0.00    -0.273 OA
ATOM     20  N   UNL     1       6.718  -5.924  -0.079  0.00  0.00    -0.233 N 
ATOM     21  H   UNL     1       7.342  -5.181  -0.088  0.00  0.00    +0.173 HD
BRANCH  18  22
ATOM     22  C   UNL     1       4.877  -4.273  -0.037  0.00  0.00    +0.173 C 
BRANCH  22  23
ATOM     23  S   UNL     1       3.063  -4.289  -0.002  0.00  0.00    -0.089 S 
BRANCH  23  31
ATOM     24  C   UNL     1      -0.008   1.373   0.078  0.00  0.00    +0.002 A 
ATOM     25  C   UNL     1       1.165   2.113   0.058  0.00  0.00    +0.001 A 
ATOM     26  C   UNL     1       2.381   1.454   0.032  0.00  0.00    +0.017 A 
ATOM     27  C   UNL     1       2.408   0.082   0.027  0.00  0.00    +0.040 A 
ATOM     28  C   UNL     1       1.234  -0.704   0.047  0.00  0.00    +0.079 A 
ATOM     29  C   UNL     1       0.009   0.003   0.073  0.00  0.00    +0.029 A 
ATOM     30  N   UNL     1       1.424  -2.042   0.038  0.00  0.00    -0.233 NA
ATOM     31  C   UNL     1       2.622  -2.583   0.013  0.00  0.00    +0.136 A 
ATOM     32  S   UNL     1       3.688  -1.149  -0.003  0.00  0.00    -0.061 S 
ENDBRANCH  23  31
ENDBRANCH  22  23
ENDBRANCH  18  22
ENDBRANCH   1  20
TORSDOF 5
