REMARK  Name = ZINC59932752
REMARK  11 active torsions:
REMARK  status: ('A' for Active; 'I' for Inactive)
REMARK    1  A    between atoms: C_1  and  C_2
REMARK    2  A    between atoms: C_3  and  C_29
REMARK    3  A    between atoms: C_11  and  C_13
REMARK    4  A    between atoms: C_13  and  C_15
REMARK    5  A    between atoms: C_13  and  N_16
REMARK    6  A    between atoms: N_16  and  C_17
REMARK    7  A    between atoms: C_20  and  N_24
REMARK    8  A    between atoms: N_24  and  C_25
REMARK    9  A    between atoms: N_24  and  C_26
REMARK   10  A    between atoms: C_26  and  C_27
REMARK   11  A    between atoms: C_26  and  C_28
REMARK                            x       y       z     vdW  Elec       q    Type
REMARK                         _______ _______ _______ _____ _____    ______ ____
ROOT
ATOM      1  C   UNL     1       0.090  -3.432   4.547  0.00  0.00    +0.133 C 
ATOM      2  C   UNL     1      -1.088  -3.129   5.476  0.00  0.00    +0.036 C 
ENDROOT
BRANCH   1  13
ATOM      3  C   UNL     1      -0.018   1.503   0.010  0.00  0.00    +0.045 C 
ATOM      4  C   UNL     1       0.002  -0.004   0.002  0.00  0.00    -0.026 A 
ATOM      5  C   UNL     1       0.006  -0.677  -1.160  0.00  0.00    -0.008 A 
ATOM      6  S   UNL     1       0.032  -2.385  -0.648  0.00  0.00    -0.073 S 
ATOM      7  C   UNL     1       0.037  -2.144   1.110  0.00  0.00    +0.116 A 
ATOM      8  C   UNL     1       0.024  -0.745   1.250  0.00  0.00    +0.075 A 
ATOM      9  C   UNL     1       0.029  -0.257   2.597  0.00  0.00    +0.260 A 
ATOM     10  O   UNL     1       0.014   0.942   2.821  0.00  0.00    -0.267 OA
ATOM     11  N   UNL     1       0.051  -1.142   3.611  0.00  0.00    -0.309 N 
ATOM     12  H   UNL     1       0.054  -0.817   4.525  0.00  0.00    +0.170 HD
ATOM     13  C   UNL     1       0.067  -2.480   3.380  0.00  0.00    +0.131 A 
ATOM     14  N   UNL     1       0.053  -2.956   2.163  0.00  0.00    -0.225 NA
ATOM     15  C   UNL     1      -0.009  -0.122  -2.561  0.00  0.00    +0.052 C 
ENDBRANCH   1  13
BRANCH   1  16
ATOM     16  N   UNL     1      -0.016  -4.809   4.057  0.00  0.00    -0.334 N 
ATOM     17  H   UNL     1      -0.437  -4.988   3.201  0.00  0.00    +0.147 HD
BRANCH  16  18
ATOM     18  C   UNL     1       0.490  -5.865   4.823  0.00  0.00    +0.030 A 
ATOM     19  C   UNL     1       1.087  -5.609   6.050  0.00  0.00    +0.025 A 
ATOM     20  C   UNL     1       1.587  -6.652   6.807  0.00  0.00    +0.028 A 
ATOM     21  C   UNL     1       1.492  -7.955   6.341  0.00  0.00    +0.065 A 
ATOM     22  C   UNL     1       0.895  -8.213   5.112  0.00  0.00    +0.146 A 
ATOM     23  C   UNL     1       0.389  -7.170   4.358  0.00  0.00    +0.063 A 
ATOM     24  F   UNL     1       0.803  -9.482   4.658  0.00  0.00    -0.203 F 
BRANCH  21  25
ATOM     25  N   UNL     1       2.000  -9.013   7.108  0.00  0.00    -0.328 N 
ATOM     26  C   UNL     1       1.141  -9.689   8.083  0.00  0.00    +0.129 C 
BRANCH  25  27
ATOM     27  C   UNL     1       3.391  -9.441   6.936  0.00  0.00    +0.067 C 
ATOM     28  C   UNL     1       4.141  -9.286   8.260  0.00  0.00    +0.027 C 
ATOM     29  C   UNL     1       3.422 -10.908   6.501  0.00  0.00    +0.027 C 
ENDBRANCH  25  27
ENDBRANCH  21  25
ENDBRANCH  16  18
ENDBRANCH   1  16
TORSDOF 5
