REMARK  Name = ZINC05944988
REMARK  7 active torsions:
REMARK  status: ('A' for Active; 'I' for Inactive)
REMARK    1  A    between atoms: C_6  and  O_7
REMARK    2  A    between atoms: O_7  and  C_8
REMARK    3  A    between atoms: C_8  and  C_9
REMARK    4  A    between atoms: N_11  and  N_12
REMARK    5  A    between atoms: C_13  and  C_15
REMARK    6  A    between atoms: C_18  and  O_22
REMARK    7  A    between atoms: C_20  and  O_21
REMARK                            x       y       z     vdW  Elec       q    Type
REMARK                         _______ _______ _______ _____ _____    ______ ____
ROOT
ATOM      1  N   UNL     1       3.068   7.821   0.013  0.00  0.00    -0.230 N 
ATOM      2  C   UNL     1       4.127   8.655   0.007  0.00  0.00    +0.264 C 
ATOM      3  O   UNL     1       5.256   8.204  -0.005  0.00  0.00    -0.269 OA
ATOM      4  H   UNL     1       2.167   8.181   0.024  0.00  0.00    +0.173 HD
ENDROOT
BRANCH   2   5
ATOM      5  C   UNL     1       3.917  10.113   0.017  0.00  0.00    +0.080 A 
ATOM      6  C   UNL     1       2.619  10.635   0.032  0.00  0.00    +0.020 A 
ATOM      7  C   UNL     1       2.427  11.997   0.040  0.00  0.00    +0.046 A 
ATOM      8  C   UNL     1       3.519  12.859   0.034  0.00  0.00    +0.120 A 
ATOM      9  C   UNL     1       4.810  12.352   0.020  0.00  0.00    +0.091 A 
ATOM     10  C   UNL     1       5.017  10.983   0.017  0.00  0.00    +0.132 A 
BRANCH  10  11
ATOM     11  O   UNL     1       6.279  10.485   0.008  0.00  0.00    -0.506 OA
ATOM     12  H   UNL     1       6.641  10.346  -0.878  0.00  0.00    +0.292 HD
ENDBRANCH  10  11
BRANCH   8  13
ATOM     13  O   UNL     1       3.321  14.201   0.043  0.00  0.00    -0.507 OA
ATOM     14  H   UNL     1       3.271  14.586   0.929  0.00  0.00    +0.292 HD
ENDBRANCH   8  13
ENDBRANCH   2   5
BRANCH   1  17
ATOM     15  C   UNL     1       2.209   5.601   0.010  0.00  0.00    +0.267 C 
ATOM     16  O   UNL     1       1.083   6.051   0.023  0.00  0.00    -0.271 OA
ATOM     17  N   UNL     1       3.268   6.434   0.004  0.00  0.00    -0.231 N 
ATOM     18  H   UNL     1       4.169   6.074  -0.006  0.00  0.00    +0.173 HD
BRANCH  15  19
ATOM     19  C   UNL     1       2.425   4.109   0.001  0.00  0.00    +0.326 C 
BRANCH  19  20
ATOM     20  O   UNL     1       1.159   3.445   0.009  0.00  0.00    -0.483 OA
BRANCH  20  26
ATOM     21  C   UNL     1      -0.017   1.377   0.010  0.00  0.00    +0.047 A 
ATOM     22  C   UNL     1       0.002  -0.004   0.002  0.00  0.00    +0.019 A 
ATOM     23  C   UNL     1       1.209  -0.680  -0.013  0.00  0.00    +0.018 A 
ATOM     24  C   UNL     1       2.399   0.025  -0.020  0.00  0.00    +0.019 A 
ATOM     25  C   UNL     1       2.385   1.406  -0.012  0.00  0.00    +0.047 A 
ATOM     26  C   UNL     1       1.176   2.086   0.002  0.00  0.00    +0.121 A 
ATOM     27 BR   UNL     1       1.232  -2.571  -0.022  0.00  0.00    -0.050 Br
ENDBRANCH  20  26
ENDBRANCH  19  20
ENDBRANCH  15  19
ENDBRANCH   1  17
TORSDOF 7
