REMARK  Name = ZINC06881440
REMARK  10 active torsions:
REMARK  status: ('A' for Active; 'I' for Inactive)
REMARK    1  A    between atoms: C_1  and  C_2
REMARK    2  A    between atoms: C_2  and  C_3
REMARK    3  A    between atoms: C_3  and  C_4
REMARK    4  A    between atoms: C_4  and  C_6
REMARK    5  A    between atoms: C_4  and  N_7
REMARK    6  A    between atoms: C_8  and  C_10
REMARK    7  A    between atoms: C_10  and  N_67
REMARK    8  A    between atoms: N_13  and  S_16
REMARK    9  A    between atoms: S_16  and  C_19
REMARK   10  A    between atoms: C_22  and  C_25
REMARK                            x       y       z     vdW  Elec       q    Type
REMARK                         _______ _______ _______ _____ _____    ______ ____
ROOT
ATOM      1  C   UNL     1      -0.738   1.584   1.263  0.00  0.00    -0.061 C 
ATOM      2  C   UNL     1      -0.013   1.086   0.008  0.00  0.00    +0.091 C 
ATOM      3  N   UNL     1      -0.732   1.577  -1.178  0.00  0.00    -0.180 NA
ATOM      4  C   UNL     1      -1.043   3.012  -1.258  0.00  0.00    +0.091 C 
ATOM      5  C   UNL     1      -1.732   3.434   0.044  0.00  0.00    -0.061 C 
ATOM      6  N   UNL     1      -0.866   3.056   1.184  0.00  0.00    +0.387 N 
ATOM      7  H   UNL     1       0.065   3.464   1.043  0.00  0.00    -0.081 HD
ENDROOT
BRANCH   3   8
ATOM      8  S   UNL     1      -1.178   0.541  -2.390  0.00  0.00    +0.061 S 
ATOM      9  O   UNL     1      -1.315   1.327  -3.566  0.00  0.00    -0.153 OA
ATOM     10  O   UNL     1      -0.298  -0.573  -2.317  0.00  0.00    -0.153 OA
BRANCH   8  11
ATOM     11  C   UNL     1      -2.786  -0.060  -1.996  0.00  0.00    +0.105 A 
ATOM     12  C   UNL     1      -2.929  -1.213  -1.246  0.00  0.00    +0.029 A 
ATOM     13  C   UNL     1      -4.191  -1.682  -0.932  0.00  0.00    +0.006 A 
ATOM     14  C   UNL     1      -5.310  -1.005  -1.378  0.00  0.00    -0.044 A 
ATOM     15  C   UNL     1      -5.168   0.145  -2.132  0.00  0.00    +0.006 A 
ATOM     16  C   UNL     1      -3.906   0.617  -2.441  0.00  0.00    +0.029 A 
BRANCH  14  17
ATOM     17  C   UNL     1      -6.686  -1.519  -1.041  0.00  0.00    +0.019 C 
ATOM     18  C   UNL     1      -6.858  -1.558   0.479  0.00  0.00    +0.008 C 
ATOM     19  C   UNL     1      -8.255  -2.081   0.821  0.00  0.00    +0.001 C 
ATOM     20  C   UNL     1      -8.425  -3.491   0.252  0.00  0.00    +0.000 C 
ATOM     21  C   UNL     1      -8.253  -3.452  -1.268  0.00  0.00    +0.001 C 
ATOM     22  C   UNL     1      -6.856  -2.929  -1.610  0.00  0.00    +0.008 C 
ENDBRANCH  14  17
ENDBRANCH   8  11
ENDBRANCH   3   8
BRANCH   6  23
ATOM     23  C   UNL     1      -1.434   3.580   2.443  0.00  0.00    +0.019 C 
BRANCH  23  25
ATOM     24  N   UNL     1      -0.713   3.789   4.800  0.00  0.00    -0.314 N 
ATOM     25  C   UNL     1      -0.432   3.373   3.549  0.00  0.00    +0.197 C 
ATOM     26  O   UNL     1       0.627   2.831   3.314  0.00  0.00    -0.278 OA
ATOM     27  H   UNL     1      -1.560   4.223   4.987  0.00  0.00    +0.149 HD
BRANCH  24  28
ATOM     28  C   UNL     1       0.261   3.588   5.875  0.00  0.00    +0.070 C 
ATOM     29  C   UNL     1       0.090   2.185   6.462  0.00  0.00    +0.028 C 
BRANCH  28  30
ATOM     30  C   UNL     1       0.034   4.630   6.971  0.00  0.00    +0.022 C 
BRANCH  30  32
ATOM     31  C   UNL     1       0.098   7.068   7.513  0.00  0.00    +0.004 C 
ATOM     32  C   UNL     1       0.326   6.026   6.417  0.00  0.00    -0.002 C 
ENDBRANCH  30  32
ENDBRANCH  28  30
ENDBRANCH  24  28
ENDBRANCH  23  25
ENDBRANCH   6  23
TORSDOF 8
