REMARK  Name = ZINC44321178
REMARK  9 active torsions:
REMARK  status: ('A' for Active; 'I' for Inactive)
REMARK    1  A    between atoms: C_1  and  C_2
REMARK    2  A    between atoms: C_7  and  C_10
REMARK    3  A    between atoms: C_14  and  C_17
REMARK    4  A    between atoms: C_17  and  CA_18
REMARK    5  A    between atoms: CA_18  and  C_20
REMARK    6  A    between atoms: CA_18  and  N_23
REMARK    7  A    between atoms: C_24  and  O_26
REMARK    8  A    between atoms: O_26  and  C_27
REMARK    9  A    between atoms: C_27  and  C_28
REMARK                            x       y       z     vdW  Elec       q    Type
REMARK                         _______ _______ _______ _____ _____    ______ ____
ROOT
ATOM      1  CA  UNL     1       4.629   4.043  -5.156  0.00  0.00    +0.193 C 
ENDROOT
BRANCH   1   2
ATOM      2  N   UNL     1       3.218   4.361  -5.387  0.00  0.00    -0.267 N 
ATOM      3  C   UNL     1       2.681   5.474  -4.850  0.00  0.00    +0.401 C 
ATOM      4  O   UNL     1       3.368   6.214  -4.173  0.00  0.00    -0.226 OA
ATOM      5  H   UNL     1       2.669   3.770  -5.927  0.00  0.00    +0.153 HD
BRANCH   3   6
ATOM      6  O   UNL     1       1.384   5.767  -5.062  0.00  0.00    -0.449 OA
BRANCH   6   7
ATOM      7  C   UNL     1       0.882   6.963  -4.462  0.00  0.00    +0.246 C 
BRANCH   7   8
ATOM      8  C   UNL     1      -0.598   7.126  -4.812  0.00  0.00    +0.088 C 
ATOM      9  C   UNL     1      -0.755   7.418  -6.284  0.00  0.00    -0.029 A 
ATOM     10  C   UNL     1      -0.414   6.701  -7.412  0.00  0.00    +0.005 A 
ATOM     11  C   UNL     1      -0.679   7.218  -8.668  0.00  0.00    +0.000 A 
ATOM     12  C   UNL     1      -1.286   8.455  -8.795  0.00  0.00    +0.001 A 
ATOM     13  C   UNL     1      -1.630   9.179  -7.672  0.00  0.00    +0.009 A 
ATOM     14  C   UNL     1      -1.366   8.664  -6.402  0.00  0.00    -0.014 A 
ATOM     15  C   UNL     1      -1.625   9.217  -5.050  0.00  0.00    -0.014 A 
ATOM     16  C   UNL     1      -1.175   8.317  -4.087  0.00  0.00    -0.029 A 
ATOM     17  C   UNL     1      -1.306   8.611  -2.746  0.00  0.00    +0.005 A 
ATOM     18  C   UNL     1      -1.886   9.803  -2.351  0.00  0.00    +0.000 A 
ATOM     19  C   UNL     1      -2.336  10.703  -3.300  0.00  0.00    +0.001 A 
ATOM     20  C   UNL     1      -2.209  10.418  -4.644  0.00  0.00    +0.009 A 
ENDBRANCH   7   8
ENDBRANCH   6   7
ENDBRANCH   3   6
ENDBRANCH   1   2
BRANCH   1  21
ATOM     21  C   UNL     1       5.479   4.766  -6.168  0.00  0.00    +0.376 C 
ATOM     22  O   UNL     1       5.032   5.014  -7.275  0.00  0.00    -0.244 OA
ATOM     23  OXT UNL     1       6.614   5.105  -5.879  0.00  0.00    -0.244 OA
ENDBRANCH   1  21
BRANCH   1  24
ATOM     24  C   UNL     1       4.841   2.534  -5.298  0.00  0.00    +0.070 C 
BRANCH  24  36
ATOM     25  C   UNL     1       0.016   1.546   0.045  0.00  0.00    +0.039 C 
ATOM     26  C   UNL     1       0.015   0.016   0.022  0.00  0.00    +0.133 C 
ATOM     27  C   UNL     1       0.716  -0.478  -1.248  0.00  0.00    +0.137 C 
ATOM     28  N   UNL     1       2.143  -0.135  -1.154  0.00  0.00    -0.312 N 
ATOM     29  C   UNL     1       2.865  -0.509   0.072  0.00  0.00    +0.137 C 
ATOM     30  C   UNL     1       2.060  -0.013   1.279  0.00  0.00    +0.133 C 
ATOM     31  O   UNL     1       0.711  -0.479   1.169  0.00  0.00    -0.371 OA
ATOM     32  C   UNL     1       2.684  -0.553   2.567  0.00  0.00    +0.039 C 
ATOM     33  C   UNL     1       2.791   0.524  -2.193  0.00  0.00    +0.099 A 
ATOM     34  C   UNL     1       2.117   0.757  -3.387  0.00  0.00    +0.042 A 
ATOM     35  C   UNL     1       2.773   1.413  -4.413  0.00  0.00    +0.008 A 
ATOM     36  C   UNL     1       4.087   1.816  -4.208  0.00  0.00    -0.029 A 
ATOM     37  C   UNL     1       4.694   1.552  -2.997  0.00  0.00    +0.087 A 
ATOM     38  N   UNL     1       4.042   0.928  -2.034  0.00  0.00    -0.349 N 
ATOM     39  H   UNL     1       4.491   0.759  -1.192  0.00  0.00    +0.167 HD
ENDBRANCH  24  36
ENDBRANCH   1  24
TORSDOF 7
