REMARK  Name = ZINC41495151
REMARK  7 active torsions:
REMARK  status: ('A' for Active; 'I' for Inactive)
REMARK    1  A    between atoms: C_1  and  C_2
REMARK    2  A    between atoms: C_3  and  C_23
REMARK    3  A    between atoms: C_4  and  N_12
REMARK    4  A    between atoms: N_12  and  C_13
REMARK    5  A    between atoms: C_16  and  S_19
REMARK    6  A    between atoms: S_19  and  N_22
REMARK    7  A    between atoms: C_23  and  C_24
REMARK                            x       y       z     vdW  Elec       q    Type
REMARK                         _______ _______ _______ _____ _____    ______ ____
ROOT
ATOM      1  C   UNL     1      -3.806  -0.186   0.538  0.00  0.00    +0.063 C 
ATOM      2  C   UNL     1      -2.333  -0.156   0.858  0.00  0.00    +0.019 A 
ATOM      3  C   UNL     1      -1.425  -0.579  -0.103  0.00  0.00    +0.004 A 
ATOM      4  C   UNL     1      -0.068  -0.557   0.178  0.00  0.00    +0.046 A 
ATOM      5  C   UNL     1       0.337  -0.096   1.454  0.00  0.00    +0.020 A 
ATOM      6  C   UNL     1       1.690  -0.042   1.814  0.00  0.00    +0.012 A 
ATOM      7  C   UNL     1       2.040   0.408   3.051  0.00  0.00    +0.001 A 
ATOM      8  C   UNL     1       1.070   0.816   3.963  0.00  0.00    +0.002 A 
ATOM      9  C   UNL     1      -0.253   0.776   3.645  0.00  0.00    +0.026 A 
ATOM     10  C   UNL     1      -0.652   0.318   2.377  0.00  0.00    +0.048 A 
ATOM     11  N   UNL     1      -1.945   0.274   2.036  0.00  0.00    -0.358 N 
ATOM     12  H   UNL     1      -2.613   0.564   2.677  0.00  0.00    +0.166 HD
ENDROOT
BRANCH   4  13
ATOM     13  N   UNL     1       0.864  -0.973  -0.762  0.00  0.00    -0.314 N 
ATOM     14  H   UNL     1       1.151  -1.899  -0.781  0.00  0.00    +0.152 HD
BRANCH  13  15
ATOM     15  C   UNL     1       1.387  -0.059  -1.679  0.00  0.00    +0.031 A 
ATOM     16  C   UNL     1       1.401   1.297  -1.380  0.00  0.00    +0.025 A 
ATOM     17  C   UNL     1       1.920   2.198  -2.289  0.00  0.00    +0.030 A 
ATOM     18  C   UNL     1       2.425   1.752  -3.496  0.00  0.00    +0.105 A 
ATOM     19  C   UNL     1       2.412   0.402  -3.798  0.00  0.00    +0.030 A 
ATOM     20  C   UNL     1       1.901  -0.505  -2.891  0.00  0.00    +0.025 A 
BRANCH  18  21
ATOM     21  S   UNL     1       3.086   2.905  -4.653  0.00  0.00    +0.056 S 
ATOM     22  O   UNL     1       2.996   2.293  -5.933  0.00  0.00    -0.153 OA
ATOM     23  O   UNL     1       2.484   4.159  -4.365  0.00  0.00    -0.153 OA
BRANCH  21  24
ATOM     24  N   UNL     1       4.699   3.065  -4.317  0.00  0.00    -0.204 NA
ATOM     25  H   UNL     1       5.095   2.562  -3.589  0.00  0.00    +0.144 HD
ATOM     26  H   UNL     1       5.248   3.663  -4.849  0.00  0.00    +0.144 HD
ENDBRANCH  21  24
ENDBRANCH  18  21
ENDBRANCH  13  15
ENDBRANCH   4  13
BRANCH   3  27
ATOM     27  C   UNL     1      -1.913  -1.061  -1.445  0.00  0.00    +0.163 C 
BRANCH  27  28
ATOM     28  C   UNL     1      -2.177   0.124  -2.338  0.00  0.00    +0.360 C 
ATOM     29  O   UNL     1      -1.524   1.145  -2.206  0.00  0.00    -0.246 OA
ATOM     30  O   UNL     1      -3.045   0.062  -3.193  0.00  0.00    -0.246 OA
ENDBRANCH  27  28
ENDBRANCH   3  27
TORSDOF 6
