REMARK  Name = ZINC63684654
REMARK  8 active torsions:
REMARK  status: ('A' for Active; 'I' for Inactive)
REMARK    1  A    between atoms: C_1  and  C_2
REMARK    2  A    between atoms: C_2  and  C_3
REMARK    3  A    between atoms: C_3  and  C_4
REMARK    4  A    between atoms: C_4  and  C_5
REMARK    5  A    between atoms: C_4  and  N_25
REMARK    6  A    between atoms: C_14  and  C_20
REMARK    7  A    between atoms: C_20  and  O_22
REMARK    8  A    between atoms: O_22  and  C_23
REMARK                            x       y       z     vdW  Elec       q    Type
REMARK                         _______ _______ _______ _____ _____    ______ ____
ROOT
ATOM      1  C   UNL     1       1.695  -2.497   2.326  0.00  0.00    +0.236 C 
ATOM      2  O   UNL     1       1.300  -3.261   3.180  0.00  0.00    -0.274 OA
ATOM      3  N   UNL     1       2.967  -2.051   2.355  0.00  0.00    -0.295 N 
ATOM      4  C   UNL     1       3.434  -1.034   1.402  0.00  0.00    +0.114 C 
ATOM      5  C   UNL     1       3.815   0.236   2.171  0.00  0.00    +0.072 C 
ATOM      6  C   UNL     1       4.646  -0.147   3.373  0.00  0.00    +0.023 A 
ATOM      7  C   UNL     1       4.692  -1.391   3.895  0.00  0.00    -0.002 A 
ATOM      8  C   UNL     1       5.590  -1.346   5.031  0.00  0.00    +0.005 A 
ATOM      9  C   UNL     1       6.015  -2.313   5.941  0.00  0.00    +0.025 A 
ATOM     10  C   UNL     1       6.910  -1.891   6.930  0.00  0.00    +0.060 A 
ATOM     11  C   UNL     1       7.352  -0.565   7.000  0.00  0.00    +0.017 A 
ATOM     12  C   UNL     1       6.940   0.392   6.111  0.00  0.00    +0.027 A 
ATOM     13  C   UNL     1       6.047  -0.003   5.113  0.00  0.00    +0.047 A 
ATOM     14  N   UNL     1       5.458   0.688   4.098  0.00  0.00    -0.358 N 
ATOM     15  H   UNL     1       5.592   1.631   3.914  0.00  0.00    +0.166 HD
ATOM     16  C   UNL     1       3.927  -2.567   3.348  0.00  0.00    +0.145 C 
ENDROOT
BRANCH  10  17
ATOM     17  C   UNL     1       7.397  -2.866   7.923  0.00  0.00    +0.339 C 
ATOM     18  O   UNL     1       7.022  -4.021   7.876  0.00  0.00    -0.245 OA
BRANCH  17  19
ATOM     19  O   UNL     1       8.259  -2.477   8.883  0.00  0.00    -0.464 OA
ATOM     20  C   UNL     1       8.690  -3.474   9.811  0.00  0.00    +0.280 C 
ENDBRANCH  17  19
ENDBRANCH  10  17
BRANCH   1  21
ATOM     21  C   UNL     1       0.764  -2.043   1.231  0.00  0.00    +0.160 C 
BRANCH  21  22
ATOM     22  N   UNL     1      -0.286  -3.046   1.037  0.00  0.00    -0.288 N 
ATOM     23  C   UNL     1      -0.914  -3.144  -0.152  0.00  0.00    +0.298 C 
ATOM     24  O   UNL     1      -0.608  -2.400  -1.063  0.00  0.00    -0.253 OA
ATOM     25  N   UNL     1      -1.879  -4.067  -0.330  0.00  0.00    -0.313 N 
ATOM     26  H   UNL     1      -0.530  -3.640   1.764  0.00  0.00    +0.151 HD
ATOM     27  H   UNL     1      -2.123  -4.661   0.397  0.00  0.00    +0.146 HD
ATOM     28  H   UNL     1      -2.331  -4.137  -1.186  0.00  0.00    +0.146 HD
ENDBRANCH  21  22
BRANCH  21  29
ATOM     29  C   UNL     1       0.128  -0.708   1.623  0.00  0.00    +0.031 C 
BRANCH  29  31
ATOM     30  C   UNL     1      -1.344   1.156   0.847  0.00  0.00    +0.004 C 
ATOM     31  C   UNL     1      -0.708  -0.179   0.455  0.00  0.00    -0.001 C 
ENDBRANCH  29  31
ENDBRANCH  21  29
ENDBRANCH   1  21
TORSDOF 6
