REMARK  Name = ZINC59122224
REMARK  12 active torsions:
REMARK  status: ('A' for Active; 'I' for Inactive)
REMARK    1  A    between atoms: C_1  and  O_2
REMARK    2  A    between atoms: O_2  and  C_3
REMARK    3  A    between atoms: C_3  and  C_5
REMARK    4  A    between atoms: C_5  and  S_17
REMARK    5  A    between atoms: N_6  and  N_7
REMARK    6  A    between atoms: N_7  and  C_8
REMARK    7  A    between atoms: C_11  and  N_14
REMARK    8  A    between atoms: S_17  and  C_18
REMARK    9  A    between atoms: C_21  and  C_29
REMARK   10  A    between atoms: N_22  and  C_23
REMARK   11  A    between atoms: C_29  and  C_31
REMARK   12  A    between atoms: C_29  and  O_37
REMARK                            x       y       z     vdW  Elec       q    Type
REMARK                         _______ _______ _______ _____ _____    ______ ____
ROOT
ATOM      1  C   UNL     1      -2.379  -4.344  -0.611  0.00  0.00    +0.203 A 
ATOM      2  N   UNL     1      -1.171  -4.840  -0.871  0.00  0.00    -0.122 NA
ATOM      3  N   UNL     1      -1.293  -6.028  -1.348  0.00  0.00    -0.130 NA
ATOM      4  C   UNL     1      -2.571  -6.356  -1.421  0.00  0.00    +0.172 A 
ATOM      5  N   UNL     1      -3.292  -5.314  -0.957  0.00  0.00    -0.272 N 
ENDROOT
BRANCH   5   6
ATOM      6  C   UNL     1      -4.686  -5.235  -0.852  0.00  0.00    +0.050 A 
ATOM      7  C   UNL     1      -5.366  -6.071   0.025  0.00  0.00    +0.026 A 
ATOM      8  C   UNL     1      -6.741  -5.990   0.127  0.00  0.00    +0.002 A 
ATOM      9  C   UNL     1      -7.441  -5.079  -0.644  0.00  0.00    +0.000 A 
ATOM     10  C   UNL     1      -6.766  -4.247  -1.518  0.00  0.00    +0.002 A 
ATOM     11  C   UNL     1      -5.391  -4.317  -1.619  0.00  0.00    +0.026 A 
ENDBRANCH   5   6
BRANCH   1  12
ATOM     12  S   UNL     1      -2.719  -2.845   0.016  0.00  0.00    -0.021 S 
BRANCH  12  13
ATOM     13  C   UNL     1      -1.226  -2.147   0.220  0.00  0.00    +0.206 C 
ATOM     14  N   UNL     1      -0.123  -2.822  -0.113  0.00  0.00    -0.168 NA
BRANCH  13  15
ATOM     15  C   UNL     1      -1.119  -0.778   0.770  0.00  0.00    +0.366 C 
ATOM     16  O   UNL     1      -2.121  -0.116   0.951  0.00  0.00    -0.243 OA
BRANCH  15  18
ATOM     17  C   UNL     1       0.119   1.062   1.599  0.00  0.00    +0.280 C 
ATOM     18  O   UNL     1       0.090  -0.266   1.071  0.00  0.00    -0.463 OA
ENDBRANCH  15  18
ENDBRANCH  13  15
BRANCH  14  19
ATOM     19  N   UNL     1       1.020  -2.224  -0.121  0.00  0.00    -0.237 N 
ATOM     20  H   UNL     1       1.068  -1.267   0.030  0.00  0.00    +0.174 HD
BRANCH  19  21
ATOM     21  C   UNL     1       2.177  -2.948  -0.343  0.00  0.00    +0.048 A 
ATOM     22  C   UNL     1       2.110  -4.324  -0.566  0.00  0.00    +0.027 A 
ATOM     23  C   UNL     1       3.267  -5.041  -0.788  0.00  0.00    +0.034 A 
ATOM     24  C   UNL     1       4.494  -4.397  -0.790  0.00  0.00    +0.126 A 
ATOM     25  C   UNL     1       4.566  -3.032  -0.570  0.00  0.00    +0.034 A 
ATOM     26  C   UNL     1       3.415  -2.304  -0.352  0.00  0.00    +0.027 A 
BRANCH  24  27
ATOM     27  N   UNL     1       5.732  -5.173  -1.028  0.00  0.00    +0.056 N 
ATOM     28  O   UNL     1       5.666  -6.471  -1.238  0.00  0.00    -0.126 OA
ATOM     29  O   UNL     1       6.900  -4.563  -1.031  0.00  0.00    -0.126 OA
ENDBRANCH  24  27
ENDBRANCH  19  21
ENDBRANCH  14  19
ENDBRANCH  12  13
ENDBRANCH   1  12
BRANCH   4  30
ATOM     30  C   UNL     1      -3.124  -7.664  -1.926  0.00  0.00    +0.212 C 
BRANCH  30  31
ATOM     31  C   UNL     1      -2.907  -8.736  -0.890  0.00  0.00    -0.012 A 
ATOM     32  C   UNL     1      -1.670  -9.339  -0.769  0.00  0.00    +0.006 A 
ATOM     33  C   UNL     1      -1.470 -10.323   0.182  0.00  0.00    +0.000 A 
ATOM     34  C   UNL     1      -2.509 -10.701   1.013  0.00  0.00    +0.000 A 
ATOM     35  C   UNL     1      -3.746 -10.097   0.892  0.00  0.00    +0.000 A 
ATOM     36  C   UNL     1      -3.944  -9.111  -0.056  0.00  0.00    +0.006 A 
ENDBRANCH  30  31
BRANCH  30  37
ATOM     37  O   UNL     1      -2.455  -8.028  -3.136  0.00  0.00    -0.379 OA
ATOM     38  H   UNL     1      -1.500  -8.141  -3.038  0.00  0.00    +0.211 HD
ENDBRANCH  30  37
ENDBRANCH   4  30
TORSDOF 11
