REMARK  Name = ZINC57988042
REMARK  10 active torsions:
REMARK  status: ('A' for Active; 'I' for Inactive)
REMARK    1  A    between atoms: C_1  and  C_2
REMARK    2  A    between atoms: C_5  and  N_9
REMARK    3  A    between atoms: C_6  and  O_8
REMARK    4  A    between atoms: C_10  and  C_12
REMARK    5  A    between atoms: C_12  and  C_14
REMARK    6  A    between atoms: C_12  and  N_17
REMARK    7  A    between atoms: C_14  and  C_15
REMARK    8  A    between atoms: C_14  and  C_16
REMARK    9  A    between atoms: N_17  and  S_18
REMARK   10  A    between atoms: S_18  and  C_21
REMARK                            x       y       z     vdW  Elec       q    Type
REMARK                         _______ _______ _______ _____ _____    ______ ____
ROOT
ATOM      1  C   UNL     1      -0.340  -6.143  -1.157  0.00  0.00    +0.165 C 
ENDROOT
BRANCH   1   3
ATOM      2  N   UNL     1      -1.314  -4.051  -0.267  0.00  0.00    -0.281 N 
ATOM      3  C   UNL     1      -0.714  -4.689  -1.290  0.00  0.00    +0.236 C 
ATOM      4  O   UNL     1      -0.474  -4.093  -2.319  0.00  0.00    -0.274 OA
ATOM      5  H   UNL     1      -1.478  -4.519   0.567  0.00  0.00    +0.155 HD
BRANCH   2  10
ATOM      6  C   UNL     1      -2.884   1.376  -0.838  0.00  0.00    +0.044 C 
ATOM      7  C   UNL     1      -2.469  -0.064  -0.684  0.00  0.00    -0.047 A 
ATOM      8  C   UNL     1      -1.486  -0.590  -1.503  0.00  0.00    +0.005 A 
ATOM      9  C   UNL     1      -1.102  -1.910  -1.366  0.00  0.00    +0.027 A 
ATOM     10  C   UNL     1      -1.702  -2.712  -0.406  0.00  0.00    +0.075 A 
ATOM     11  C   UNL     1      -2.692  -2.181   0.419  0.00  0.00    +0.138 A 
ATOM     12  C   UNL     1      -3.067  -0.855   0.279  0.00  0.00    +0.050 A 
BRANCH  11  13
ATOM     13  O   UNL     1      -3.283  -2.962   1.362  0.00  0.00    -0.505 OA
ATOM     14  H   UNL     1      -2.838  -2.948   2.220  0.00  0.00    +0.292 HD
ENDBRANCH  11  13
ENDBRANCH   2  10
ENDBRANCH   1   3
BRANCH   1  15
ATOM     15  C   UNL     1       1.031  -6.257  -0.486  0.00  0.00    +0.010 C 
ATOM     16  C   UNL     1       1.349  -7.731  -0.224  0.00  0.00    +0.009 C 
ATOM     17  C   UNL     1       2.099  -5.660  -1.404  0.00  0.00    +0.009 C 
ENDBRANCH   1  15
BRANCH   1  18
ATOM     18  N   UNL     1      -0.286  -6.757  -2.486  0.00  0.00    -0.178 NA
ATOM     19  H   UNL     1       0.375  -6.460  -3.131  0.00  0.00    +0.149 HD
BRANCH  18  20
ATOM     20  S   UNL     1      -1.353  -7.958  -2.887  0.00  0.00    +0.059 S 
ATOM     21  O   UNL     1      -1.165  -8.223  -4.270  0.00  0.00    -0.153 OA
ATOM     22  O   UNL     1      -1.222  -8.966  -1.894  0.00  0.00    -0.153 OA
BRANCH  20  23
ATOM     23  C   UNL     1      -2.975  -7.291  -2.718  0.00  0.00    +0.109 A 
ATOM     24  C   UNL     1      -3.635  -7.383  -1.506  0.00  0.00    +0.032 A 
ATOM     25  C   UNL     1      -4.908  -6.861  -1.366  0.00  0.00    +0.051 A 
ATOM     26  C   UNL     1      -5.521  -6.245  -2.444  0.00  0.00    +0.162 A 
ATOM     27  C   UNL     1      -4.859  -6.153  -3.660  0.00  0.00    +0.164 A 
ATOM     28  C   UNL     1      -3.582  -6.672  -3.796  0.00  0.00    +0.078 A 
ATOM     29  O   UNL     1      -5.471  -5.544  -4.717  0.00  0.00    -0.488 OA
ATOM     30  C   UNL     1      -6.600  -6.228  -5.264  0.00  0.00    +0.232 C 
ATOM     31  C   UNL     1      -7.862  -5.894  -4.484  0.00  0.00    +0.082 C 
ATOM     32  C   UNL     1      -7.806  -6.395  -3.049  0.00  0.00    +0.232 C 
ATOM     33  O   UNL     1      -6.776  -5.726  -2.319  0.00  0.00    -0.488 OA
ENDBRANCH  20  23
ENDBRANCH  18  20
ENDBRANCH   1  18
TORSDOF 7
