REMARK  Name = ZINC13924497
REMARK  2 active torsions:
REMARK  status: ('A' for Active; 'I' for Inactive)
REMARK    1  A    between atoms: C_3  and  C_6
REMARK    2  A    between atoms: C_9  and  C_10
REMARK                            x       y       z     vdW  Elec       q    Type
REMARK                         _______ _______ _______ _____ _____    ______ ____
ROOT
ATOM      1  C   UNL     1       2.478   1.483  -0.069  0.00  0.00    +0.267 C 
ATOM      2  N   UNL     1       3.492   2.311  -0.064  0.00  0.00    -0.203 NA
ATOM      3  C   UNL     1       4.651   1.594  -0.054  0.00  0.00    +0.152 C 
ATOM      4  C   UNL     1       5.937   2.089  -0.042  0.00  0.00    +0.043 C 
ATOM      5  C   UNL     1       4.239   0.177  -0.064  0.00  0.00    +0.364 C 
ATOM      6  O   UNL     1       4.961  -0.802  -0.065  0.00  0.00    -0.243 OA
ATOM      7  O   UNL     1       2.889   0.199  -0.073  0.00  0.00    -0.399 OA
ENDROOT
BRANCH   4   8
ATOM      8  C   UNL     1       6.168   3.533  -0.147  0.00  0.00    -0.023 A 
ATOM      9  C   UNL     1       7.473   4.032  -0.256  0.00  0.00    +0.009 A 
ATOM     10  C   UNL     1       7.681   5.390  -0.359  0.00  0.00    +0.015 A 
ATOM     11  C   UNL     1       6.605   6.262  -0.344  0.00  0.00    +0.013 A 
ATOM     12  C   UNL     1       5.312   5.778  -0.231  0.00  0.00    +0.015 A 
ATOM     13  C   UNL     1       5.086   4.423  -0.133  0.00  0.00    +0.009 A 
ATOM     14  I   UNL     1       6.936   8.326  -0.492  0.00  0.00    -0.044 I 
ENDBRANCH   4   8
BRANCH   1  17
ATOM     15  C   UNL     1      -1.151   1.890  -0.097  0.00  0.00    +0.042 A 
ATOM     16  C   UNL     1      -0.011   1.069  -0.087  0.00  0.00    +0.055 A 
ATOM     17  C   UNL     1       1.072   1.900  -0.076  0.00  0.00    +0.189 A 
ATOM     18  O   UNL     1       0.623   3.171  -0.074  0.00  0.00    -0.458 OA
ATOM     19  C   UNL     1      -0.719   3.170  -0.083  0.00  0.00    +0.196 A 
ENDBRANCH   1  17
TORSDOF 2
