REMARK  Name = ZINC38180198
REMARK  11 active torsions:
REMARK  status: ('A' for Active; 'I' for Inactive)
REMARK    1  A    between atoms: C_1  and  C_2
REMARK    2  A    between atoms: C_2  and  N_3
REMARK    3  A    between atoms: C_7  and  C_32
REMARK    4  A    between atoms: N_11  and  N_12
REMARK    5  A    between atoms: C_13  and  C_15
REMARK    6  A    between atoms: C_15  and  C_16
REMARK    7  A    between atoms: C_16  and  C_17
REMARK    8  A    between atoms: C_17  and  C_18
REMARK    9  A    between atoms: C_18  and  C_19
REMARK   10  A    between atoms: C_19  and  N_20
REMARK   11  A    between atoms: C_21  and  C_23
REMARK                            x       y       z     vdW  Elec       q    Type
REMARK                         _______ _______ _______ _____ _____    ______ ____
ROOT
ATOM      1  N   UNL     1      -4.289  -1.576  -2.824  0.00  0.00    -0.206 N 
ATOM      2  C   UNL     1      -5.318  -1.952  -3.610  0.00  0.00    +0.232 C 
ATOM      3  O   UNL     1      -6.354  -2.335  -3.110  0.00  0.00    -0.274 OA
ATOM      4  H   UNL     1      -3.460  -1.269  -3.224  0.00  0.00    +0.177 HD
ENDROOT
BRANCH   1  13
ATOM      5  N   UNL     1      -1.372  -0.511   0.012  0.00  0.00    -0.266 N 
ATOM      6  C   UNL     1      -2.098  -0.783   1.167  0.00  0.00    +0.046 A 
ATOM      7  C   UNL     1      -1.769  -0.668   2.513  0.00  0.00    +0.024 A 
ATOM      8  C   UNL     1      -2.689  -1.012   3.483  0.00  0.00    +0.005 A 
ATOM      9  C   UNL     1      -3.946  -1.474   3.131  0.00  0.00    -0.050 A 
ATOM     10  C   UNL     1      -4.290  -1.595   1.800  0.00  0.00    +0.015 A 
ATOM     11  C   UNL     1      -3.370  -1.251   0.815  0.00  0.00    +0.029 A 
ATOM     12  C   UNL     1      -3.417  -1.263  -0.665  0.00  0.00    +0.153 C 
ATOM     13  N   UNL     1      -4.417  -1.628  -1.430  0.00  0.00    -0.175 NA
ATOM     14  C   UNL     1      -2.093  -0.767  -1.093  0.00  0.00    +0.271 C 
ATOM     15  O   UNL     1      -1.720  -0.618  -2.241  0.00  0.00    -0.268 OA
ATOM     16  C   UNL     1      -4.939  -1.846   4.202  0.00  0.00    +0.044 C 
BRANCH   5  18
ATOM     17  C   UNL     1      -0.019   1.526   0.010  0.00  0.00    +0.025 C 
ATOM     18  C   UNL     1       0.002  -0.004   0.002  0.00  0.00    +0.111 C 
ENDBRANCH   5  18
ENDBRANCH   1  13
BRANCH   2  19
ATOM     19  C   UNL     1      -5.180  -1.895  -5.109  0.00  0.00    +0.097 C 
BRANCH  19  20
ATOM     20  C   UNL     1      -6.481  -2.372  -5.759  0.00  0.00    +0.009 C 
BRANCH  20  21
ATOM     21  C   UNL     1      -6.341  -2.314  -7.282  0.00  0.00    +0.002 C 
BRANCH  21  22
ATOM     22  C   UNL     1      -7.641  -2.791  -7.932  0.00  0.00    +0.019 C 
BRANCH  22  23
ATOM     23  C   UNL     1      -7.501  -2.734  -9.454  0.00  0.00    +0.104 C 
BRANCH  23  24
ATOM     24  N   UNL     1      -8.747  -3.190 -10.077  0.00  0.00    -0.311 N 
ATOM     25  C   UNL     1      -8.855  -3.225 -11.419  0.00  0.00    +0.245 C 
ATOM     26  O   UNL     1      -7.920  -2.878 -12.114  0.00  0.00    -0.270 OA
ATOM     27  H   UNL     1      -9.493  -3.467  -9.522  0.00  0.00    +0.149 HD
BRANCH  25  28
ATOM     28  C   UNL     1     -10.112  -3.685 -12.047  0.00  0.00    +0.051 A 
ATOM     29  C   UNL     1     -11.190  -4.079 -11.252  0.00  0.00    +0.014 A 
ATOM     30  C   UNL     1     -12.359  -4.507 -11.845  0.00  0.00    +0.001 A 
ATOM     31  C   UNL     1     -12.466  -4.547 -13.224  0.00  0.00    +0.001 A 
ATOM     32  C   UNL     1     -11.403  -4.159 -14.018  0.00  0.00    +0.016 A 
ATOM     33  C   UNL     1     -10.228  -3.723 -13.439  0.00  0.00    +0.030 A 
ATOM     34 BR   UNL     1      -8.777  -3.184 -14.526  0.00  0.00    -0.050 Br
ENDBRANCH  25  28
ENDBRANCH  23  24
ENDBRANCH  22  23
ENDBRANCH  21  22
ENDBRANCH  20  21
ENDBRANCH  19  20
ENDBRANCH   2  19
TORSDOF 9
