REMARK  Name = ZINC67381235
REMARK  9 active torsions:
REMARK  status: ('A' for Active; 'I' for Inactive)
REMARK    1  A    between atoms: C_1  and  C_2
REMARK    2  A    between atoms: C_7  and  N_12
REMARK    3  A    between atoms: C_9  and  C_11
REMARK    4  A    between atoms: N_15  and  C_16
REMARK    5  A    between atoms: C_16  and  C_18
REMARK    6  A    between atoms: C_16  and  C_19
REMARK    7  A    between atoms: C_23  and  S_25
REMARK    8  A    between atoms: S_25  and  N_28
REMARK    9  A    between atoms: N_28  and  C_29
REMARK                            x       y       z     vdW  Elec       q    Type
REMARK                         _______ _______ _______ _____ _____    ______ ____
ROOT
ATOM      1  N   UNL     1      -0.612  -2.548   1.244  0.00  0.00    -0.296 N 
ATOM      2  C   UNL     1      -0.873  -3.776   1.733  0.00  0.00    +0.300 C 
ATOM      3  O   UNL     1       0.032  -4.463   2.165  0.00  0.00    -0.253 OA
ATOM      4  N   UNL     1      -2.137  -4.243   1.742  0.00  0.00    -0.293 N 
ATOM      5  H   UNL     1      -1.333  -2.000   0.898  0.00  0.00    +0.151 HD
ATOM      6  H   UNL     1      -2.859  -3.694   1.397  0.00  0.00    +0.151 HD
ENDROOT
BRANCH   1  12
ATOM      7  C   UNL     1      -0.019   1.526   0.010  0.00  0.00    +0.008 C 
ATOM      8  C   UNL     1       0.002  -0.004   0.002  0.00  0.00    -0.009 C 
ATOM      9  C   UNL     1       0.718  -0.497  -1.257  0.00  0.00    +0.003 C 
ATOM     10  C   UNL     1       0.739  -2.027  -1.265  0.00  0.00    +0.002 C 
ATOM     11  C   UNL     1       1.479  -2.534  -0.026  0.00  0.00    +0.022 C 
ATOM     12  C   UNL     1       0.763  -2.041   1.233  0.00  0.00    +0.078 C 
ATOM     13  C   UNL     1       0.742  -0.511   1.242  0.00  0.00    +0.009 C 
ATOM     14  C   UNL     1       0.026  -0.018   2.500  0.00  0.00    +0.009 C 
ENDBRANCH   1  12
BRANCH   4  15
ATOM     15  C   UNL     1      -2.422  -5.578   2.274  0.00  0.00    +0.102 C 
ATOM     16  C   UNL     1      -2.596  -5.496   3.792  0.00  0.00    +0.033 C 
BRANCH  15  17
ATOM     17  C   UNL     1      -3.687  -6.108   1.651  0.00  0.00    -0.026 A 
ATOM     18  C   UNL     1      -4.761  -5.263   1.442  0.00  0.00    +0.005 A 
ATOM     19  C   UNL     1      -5.922  -5.749   0.870  0.00  0.00    +0.002 A 
ATOM     20  C   UNL     1      -6.009  -7.080   0.507  0.00  0.00    +0.028 A 
ATOM     21  C   UNL     1      -4.935  -7.925   0.715  0.00  0.00    +0.106 A 
ATOM     22  C   UNL     1      -3.772  -7.438   1.283  0.00  0.00    +0.034 A 
BRANCH  21  23
ATOM     23  S   UNL     1      -5.045  -9.621   0.253  0.00  0.00    +0.058 S 
ATOM     24  O   UNL     1      -4.103 -10.323   1.052  0.00  0.00    -0.153 OA
ATOM     25  O   UNL     1      -6.428  -9.950   0.242  0.00  0.00    -0.153 OA
BRANCH  23  26
ATOM     26  N   UNL     1      -4.519  -9.738  -1.312  0.00  0.00    -0.193 NA
ATOM     27  C   UNL     1      -3.124  -9.433  -1.640  0.00  0.00    +0.127 C 
ATOM     28  H   UNL     1      -5.133 -10.008  -2.012  0.00  0.00    +0.148 HD
ENDBRANCH  23  26
ENDBRANCH  21  23
ENDBRANCH  15  17
ENDBRANCH   4  15
TORSDOF 5
