REMARK  Name = ZINC39328059
REMARK  11 active torsions:
REMARK  status: ('A' for Active; 'I' for Inactive)
REMARK    1  A    between atoms: C_1  and  C_2
REMARK    2  A    between atoms: C_2  and  C_3
REMARK    3  A    between atoms: C_2  and  C_4
REMARK    4  A    between atoms: C_7  and  C_10
REMARK    5  A    between atoms: C_11  and  C_30
REMARK    6  A    between atoms: C_12  and  N_29
REMARK    7  A    between atoms: C_14  and  S_18
REMARK    8  A    between atoms: C_15  and  C_16
REMARK    9  A    between atoms: S_18  and  C_19
REMARK   10  A    between atoms: C_19  and  C_20
REMARK   11  A    between atoms: C_23  and  N_26
REMARK                            x       y       z     vdW  Elec       q    Type
REMARK                         _______ _______ _______ _____ _____    ______ ____
ROOT
ATOM      1  C   UNL     1       2.786  -1.910   4.665  0.00  0.00    +0.023 A 
ATOM      2  C   UNL     1       3.887  -2.781   4.547  0.00  0.00    +0.100 A 
ATOM      3  C   UNL     1       4.537  -3.221   5.715  0.00  0.00    +0.136 A 
ATOM      4  N   UNL     1       4.127  -2.829   6.910  0.00  0.00    -0.224 NA
ATOM      5  C   UNL     1       3.097  -2.011   7.069  0.00  0.00    +0.117 A 
ATOM      6  C   UNL     1       2.389  -1.515   5.958  0.00  0.00    +0.093 A 
ENDROOT
BRANCH   1  10
ATOM      7  C   UNL     1       0.731  -0.503   1.223  0.00  0.00    -0.045 A 
ATOM      8  C   UNL     1       2.051  -0.146   1.431  0.00  0.00    +0.004 A 
ATOM      9  C   UNL     1       2.724  -0.599   2.547  0.00  0.00    +0.009 A 
ATOM     10  C   UNL     1       2.070  -1.420   3.467  0.00  0.00    -0.015 A 
ATOM     11  C   UNL     1       0.738  -1.777   3.251  0.00  0.00    +0.009 A 
ATOM     12  C   UNL     1       0.075  -1.312   2.134  0.00  0.00    +0.004 A 
BRANCH   7  14
ATOM     13  C   UNL     1      -0.019   1.526   0.010  0.00  0.00    +0.012 C 
ATOM     14  C   UNL     1       0.002  -0.004   0.002  0.00  0.00    +0.013 C 
ATOM     15  C   UNL     1       0.718  -0.497  -1.257  0.00  0.00    +0.012 C 
ENDBRANCH   7  14
ENDBRANCH   1  10
BRANCH   3  16
ATOM     16  N   UNL     1       5.617  -4.074   5.612  0.00  0.00    -0.342 N 
ATOM     17  H   UNL     1       5.923  -4.366   4.739  0.00  0.00    +0.144 HD
ATOM     18  H   UNL     1       6.071  -4.382   6.412  0.00  0.00    +0.144 HD
ENDBRANCH   3  16
BRANCH   6  19
ATOM     19  C   UNL     1       1.280  -0.627   6.139  0.00  0.00    +0.102 C 
ATOM     20  N   UNL     1       0.401   0.077   6.283  0.00  0.00    -0.191 NA
ENDBRANCH   6  19
BRANCH   2  21
ATOM     21  C   UNL     1       4.338  -3.212   3.258  0.00  0.00    +0.103 C 
ATOM     22  N   UNL     1       4.695  -3.554   2.235  0.00  0.00    -0.191 NA
ENDBRANCH   2  21
BRANCH   5  23
ATOM     23  S   UNL     1       2.610  -1.534   8.694  0.00  0.00    -0.100 S 
BRANCH  23  24
ATOM     24  C   UNL     1       3.786  -2.392   9.775  0.00  0.00    +0.111 C 
BRANCH  24  25
ATOM     25  C   UNL     1       3.477  -2.066  11.214  0.00  0.00    -0.037 A 
ATOM     26  C   UNL     1       4.069  -0.971  11.816  0.00  0.00    +0.007 A 
ATOM     27  C   UNL     1       3.786  -0.671  13.136  0.00  0.00    +0.033 A 
ATOM     28  C   UNL     1       2.910  -1.466  13.852  0.00  0.00    +0.126 A 
ATOM     29  C   UNL     1       2.318  -2.559  13.249  0.00  0.00    +0.033 A 
ATOM     30  C   UNL     1       2.598  -2.857  11.929  0.00  0.00    +0.007 A 
BRANCH  28  31
ATOM     31  N   UNL     1       2.608  -1.145  15.265  0.00  0.00    +0.056 N 
ATOM     32  O   UNL     1       3.126  -0.189  15.793  0.00  0.00    -0.126 OA
ATOM     33  O   UNL     1       1.842  -1.839  15.892  0.00  0.00    -0.126 OA
ENDBRANCH  28  31
ENDBRANCH  24  25
ENDBRANCH  23  24
ENDBRANCH   5  23
TORSDOF 9
