REMARK  Name = ZINC63686443
REMARK  5 active torsions:
REMARK  status: ('A' for Active; 'I' for Inactive)
REMARK    1  A    between atoms: C_1  and  C_2
REMARK    2  A    between atoms: C_6  and  C_8
REMARK    3  A    between atoms: C_11  and  S_15
REMARK    4  A    between atoms: S_15  and  C_16
REMARK    5  A    between atoms: C_16  and  C_17
REMARK                            x       y       z     vdW  Elec       q    Type
REMARK                         _______ _______ _______ _____ _____    ______ ____
ROOT
ATOM      1  S   UNL     1       3.144  -4.924   3.438  0.00  0.00    -0.111 S 
ENDROOT
BRANCH   1   4
ATOM      2  C   UNL     1       0.054  -2.845   2.489  0.00  0.00    +0.198 C 
ATOM      3  N   UNL     1       0.798  -4.120   2.333  0.00  0.00    -0.261 NA
ATOM      4  C   UNL     1       1.485  -4.220   3.645  0.00  0.00    +0.254 C 
ATOM      5  N   UNL     1       1.570  -2.837   4.130  0.00  0.00    -0.184 NA
ATOM      6  N   UNL     1       0.799  -2.096   3.509  0.00  0.00    -0.290 N 
ATOM      7  H   UNL     1       0.165  -4.893   2.195  0.00  0.00    +0.127 HD
ATOM      8  H   UNL     1       0.699  -1.145   3.673  0.00  0.00    +0.184 HD
BRANCH   2  14
ATOM      9  C   UNL     1      -0.018   1.503   0.010  0.00  0.00    +0.044 C 
ATOM     10  C   UNL     1       0.002  -0.004   0.002  0.00  0.00    -0.050 A 
ATOM     11  C   UNL     1       0.006  -0.689  -1.199  0.00  0.00    +0.003 A 
ATOM     12  C   UNL     1       0.025  -2.071  -1.207  0.00  0.00    +0.001 A 
ATOM     13  C   UNL     1       0.040  -2.768  -0.013  0.00  0.00    +0.007 A 
ATOM     14  C   UNL     1       0.037  -2.084   1.188  0.00  0.00    -0.009 A 
ATOM     15  C   UNL     1       0.023  -0.702   1.195  0.00  0.00    +0.010 A 
ENDBRANCH   2  14
ENDBRANCH   1   4
BRANCH   1  16
ATOM     16  C   UNL     1       3.980  -3.756   2.330  0.00  0.00    +0.125 C 
BRANCH  16  17
ATOM     17  C   UNL     1       5.388  -4.228   2.072  0.00  0.00    +0.030 A 
ATOM     18  N   UNL     1       6.313  -4.083   3.051  0.00  0.00    -0.356 N 
ATOM     19  C   UNL     1       7.617  -4.493   2.879  0.00  0.00    +0.069 A 
ATOM     20  C   UNL     1       8.004  -5.079   1.661  0.00  0.00    +0.046 A 
ATOM     21  C   UNL     1       9.321  -5.498   1.474  0.00  0.00    +0.014 A 
ATOM     22  C   UNL     1      10.232  -5.336   2.480  0.00  0.00    +0.002 A 
ATOM     23  C   UNL     1       9.857  -4.760   3.686  0.00  0.00    +0.022 A 
ATOM     24  C   UNL     1       8.560  -4.338   3.891  0.00  0.00    +0.065 A 
ATOM     25 CL   UNL     1       8.107  -3.618   5.404  0.00  0.00    -0.081 Cl
ATOM     26  C   UNL     1       6.990  -5.233   0.603  0.00  0.00    +0.190 A 
ATOM     27  O   UNL     1       7.273  -5.735  -0.473  0.00  0.00    -0.287 OA
ATOM     28  C   UNL     1       5.677  -4.785   0.877  0.00  0.00    +0.073 A 
ATOM     29  H   UNL     1       6.051  -3.680   3.893  0.00  0.00    +0.166 HD
ENDBRANCH  16  17
ENDBRANCH   1  16
TORSDOF 4
