REMARK  Name = ZINC14156768
REMARK  9 active torsions:
REMARK  status: ('A' for Active; 'I' for Inactive)
REMARK    1  A    between atoms: C_1  and  C_2
REMARK    2  A    between atoms: C_2  and  C_3
REMARK    3  A    between atoms: C_8  and  N_9
REMARK    4  A    between atoms: N_9  and  C_10
REMARK    5  A    between atoms: C_10  and  N_12
REMARK    6  A    between atoms: N_14  and  C_15
REMARK    7  A    between atoms: C_15  and  C_16
REMARK    8  A    between atoms: C_26  and  C_31
REMARK    9  A    between atoms: C_28  and  C_30
REMARK                            x       y       z     vdW  Elec       q    Type
REMARK                         _______ _______ _______ _____ _____    ______ ____
ROOT
ATOM      1  N   UNL     1      -2.506   3.913   0.051  0.00  0.00    -0.159 NA
ATOM      2  C   UNL     1      -2.614   5.229   0.108  0.00  0.00    +0.196 C 
ATOM      3  N   UNL     1      -1.492   6.006   0.137  0.00  0.00    -0.353 N 
ATOM      4  N   UNL     1      -3.852   5.813   0.139  0.00  0.00    -0.297 N 
ATOM      5  C   UNL     1      -4.994   5.023   0.109  0.00  0.00    +0.231 A 
ATOM      6  N   UNL     1      -4.866   3.707   0.046  0.00  0.00    -0.217 NA
ATOM      7  C   UNL     1      -5.933   2.925   0.022  0.00  0.00    +0.044 A 
ATOM      8  C   UNL     1      -7.194   3.500   0.052  0.00  0.00    +0.046 A 
ATOM      9  C   UNL     1      -7.290   4.881   0.112  0.00  0.00    +0.044 A 
ATOM     10  N   UNL     1      -6.183   5.605   0.139  0.00  0.00    -0.217 NA
ATOM     11  C   UNL     1      -8.640   5.551   0.147  0.00  0.00    +0.066 C 
ATOM     12  C   UNL     1      -5.779   1.427  -0.043  0.00  0.00    +0.066 C 
ATOM     13  H   UNL     1      -0.615   5.593   0.098  0.00  0.00    +0.163 HD
ATOM     14  H   UNL     1      -3.932   6.779   0.181  0.00  0.00    +0.171 HD
ENDROOT
BRANCH   1  15
ATOM     15  C   UNL     1      -1.299   3.336   0.135  0.00  0.00    +0.161 C 
ATOM     16  S   UNL     1      -0.381   3.477   1.574  0.00  0.00    -0.016 S 
BRANCH  15  17
ATOM     17  N   UNL     1      -0.808   2.644  -0.912  0.00  0.00    -0.295 N 
ATOM     18  H   UNL     1      -1.295   2.623  -1.750  0.00  0.00    +0.154 HD
BRANCH  17  24
ATOM     19  C   UNL     1       0.512   0.649  -1.240  0.00  0.00    -0.026 A 
ATOM     20  C   UNL     1       1.713  -0.023  -1.124  0.00  0.00    +0.005 A 
ATOM     21  C   UNL     1       2.808   0.606  -0.561  0.00  0.00    +0.000 A 
ATOM     22  C   UNL     1       2.704   1.910  -0.112  0.00  0.00    +0.002 A 
ATOM     23  C   UNL     1       1.507   2.588  -0.225  0.00  0.00    +0.023 A 
ATOM     24  C   UNL     1       0.405   1.959  -0.791  0.00  0.00    +0.036 A 
BRANCH  19  26
ATOM     25  C   UNL     1      -0.759   0.312  -3.343  0.00  0.00    +0.009 C 
ATOM     26  C   UNL     1      -0.680  -0.037  -1.855  0.00  0.00    +0.033 C 
ENDBRANCH  19  26
ENDBRANCH  17  24
ENDBRANCH  15  17
ENDBRANCH   1  15
BRANCH   3  27
ATOM     27  C   UNL     1      -1.612   7.464   0.227  0.00  0.00    +0.151 C 
BRANCH  27  28
ATOM     28  C   UNL     1      -0.238   8.081   0.242  0.00  0.00    -0.028 A 
ATOM     29  C   UNL     1       0.409   8.297   1.445  0.00  0.00    +0.007 A 
ATOM     30  C   UNL     1       1.672   8.858   1.459  0.00  0.00    +0.020 A 
ATOM     31  C   UNL     1       2.284   9.214   0.270  0.00  0.00    +0.041 A 
ATOM     32  C   UNL     1       1.634   9.002  -0.932  0.00  0.00    +0.020 A 
ATOM     33  C   UNL     1       0.373   8.436  -0.946  0.00  0.00    +0.007 A 
ATOM     34 CL   UNL     1       3.868   9.924   0.288  0.00  0.00    -0.084 Cl
ENDBRANCH  27  28
ENDBRANCH   3  27
TORSDOF 6
