REMARK  Name = ZINC40388679
REMARK  6 active torsions:
REMARK  status: ('A' for Active; 'I' for Inactive)
REMARK    1  A    between atoms: C_1  and  C_2
REMARK    2  A    between atoms: C_5  and  C_35
REMARK    3  A    between atoms: C_6  and  N_8
REMARK    4  A    between atoms: C_9  and  C_11
REMARK    5  A    between atoms: C_27  and  C_34
REMARK    6  A    between atoms: C_30  and  C_33
REMARK                            x       y       z     vdW  Elec       q    Type
REMARK                         _______ _______ _______ _____ _____    ______ ____
ROOT
ATOM      1  C   UNL     1       0.164  -3.057   4.763  0.00  0.00    +0.122 C 
ATOM      2  C   UNL     1       1.470  -3.853   4.765  0.00  0.00    +0.114 C 
ATOM      3  C   UNL     1       1.690  -4.462   6.125  0.00  0.00    +0.219 C 
ATOM      4  O   UNL     1       2.178  -5.569   6.215  0.00  0.00    -0.275 OA
ATOM      5  N   UNL     1       1.351  -3.792   7.239  0.00  0.00    -0.270 N 
ATOM      6  C   UNL     1       0.697  -2.574   7.166  0.00  0.00    +0.138 A 
ATOM      7  C   UNL     1       0.114  -2.171   5.977  0.00  0.00    +0.069 A 
ATOM      8  C   UNL     1      -0.523  -0.927   5.921  0.00  0.00    +0.258 A 
ATOM      9  O   UNL     1      -1.037  -0.537   4.884  0.00  0.00    -0.267 OA
ATOM     10  N   UNL     1      -0.559  -0.166   7.036  0.00  0.00    -0.295 N 
ATOM     11  H   UNL     1      -0.982   0.707   7.014  0.00  0.00    +0.172 HD
ATOM     12  C   UNL     1      -0.000  -0.623   8.190  0.00  0.00    +0.200 A 
ATOM     13  N   UNL     1       0.601  -1.792   8.246  0.00  0.00    -0.200 NA
ATOM     14  N   UNL     1      -0.067   0.151   9.318  0.00  0.00    -0.301 N 
ATOM     15  C   UNL     1      -0.638   1.504   9.265  0.00  0.00    +0.111 C 
ATOM     16  C   UNL     1      -1.737   1.617  10.326  0.00  0.00    +0.004 C 
ATOM     17  C   UNL     1      -1.165   1.230  11.691  0.00  0.00    +0.009 C 
ATOM     18  C   UNL     1      -0.681  -0.222  11.650  0.00  0.00    +0.004 C 
ATOM     19  C   UNL     1       0.425  -0.358  10.605  0.00  0.00    +0.111 C 
ATOM     20  C   UNL     1      -0.139  -0.619  13.025  0.00  0.00    +0.009 C 
ATOM     21  C   UNL     1      -2.251   3.058  10.377  0.00  0.00    +0.009 C 
ATOM     22  H   UNL     1       1.567  -4.167   8.108  0.00  0.00    +0.156 HD
ENDROOT
BRANCH   1  24
ATOM     23  N   UNL     1      -0.966  -2.309   2.693  0.00  0.00    -0.285 N 
ATOM     24  C   UNL     1       0.095  -2.209   3.519  0.00  0.00    +0.225 C 
ATOM     25  O   UNL     1       0.994  -1.437   3.260  0.00  0.00    -0.275 OA
ATOM     26  H   UNL     1      -1.721  -2.866   2.939  0.00  0.00    +0.155 HD
BRANCH  23  32
ATOM     27  C   UNL     1       1.501  -0.155  -0.974  0.00  0.00    +0.044 C 
ATOM     28  C   UNL     1       0.204  -0.552  -0.318  0.00  0.00    -0.049 A 
ATOM     29  C   UNL     1      -1.000  -0.225  -0.914  0.00  0.00    +0.004 A 
ATOM     30  C   UNL     1      -2.193  -0.589  -0.316  0.00  0.00    +0.005 A 
ATOM     31  C   UNL     1      -2.185  -1.280   0.880  0.00  0.00    -0.029 A 
ATOM     32  C   UNL     1      -0.977  -1.609   1.482  0.00  0.00    +0.037 A 
ATOM     33  C   UNL     1       0.219  -1.248   0.875  0.00  0.00    +0.027 A 
ATOM     34  C   UNL     1      -3.485  -1.675   1.532  0.00  0.00    +0.045 C 
ENDBRANCH  23  32
ENDBRANCH   1  24
TORSDOF 2
