REMARK  Name = ZINC06952432
REMARK  10 active torsions:
REMARK  status: ('A' for Active; 'I' for Inactive)
REMARK    1  A    between atoms: C_1  and  C_2
REMARK    2  A    between atoms: C_2  and  C_4
REMARK    3  A    between atoms: C_2  and  C_14
REMARK    4  A    between atoms: C_7  and  C_10
REMARK    5  A    between atoms: C_10  and  C_11
REMARK    6  A    between atoms: C_11  and  C_12
REMARK    7  A    between atoms: C_11  and  C_13
REMARK    8  A    between atoms: N_16  and  N_17
REMARK    9  A    between atoms: C_23  and  O_28
REMARK   10  A    between atoms: O_28  and  C_29
REMARK                            x       y       z     vdW  Elec       q    Type
REMARK                         _______ _______ _______ _____ _____    ______ ____
ROOT
ATOM      1  C   UNL     1       0.770  -0.372  -1.243  0.00  0.00    +0.239 C 
ATOM      2  O   UNL     1       1.891  -0.827  -1.155  0.00  0.00    -0.273 OA
ATOM      3  N   UNL     1       0.193  -0.234  -2.453  0.00  0.00    -0.206 N 
ATOM      4  H   UNL     1      -0.704   0.130  -2.523  0.00  0.00    +0.177 HD
ENDROOT
BRANCH   3   5
ATOM      5  N   UNL     1       0.887  -0.616  -3.608  0.00  0.00    -0.175 NA
ATOM      6  C   UNL     1       0.370  -0.383  -4.790  0.00  0.00    +0.153 C 
ATOM      7  C   UNL     1      -0.829   0.427  -5.106  0.00  0.00    +0.032 A 
ATOM      8  C   UNL     1      -1.727   1.145  -4.322  0.00  0.00    +0.012 A 
ATOM      9  C   UNL     1      -2.775   1.817  -4.918  0.00  0.00    +0.004 A 
ATOM     10  C   UNL     1      -2.933   1.778  -6.293  0.00  0.00    +0.047 A 
ATOM     11  C   UNL     1      -2.047   1.066  -7.083  0.00  0.00    +0.142 A 
ATOM     12  C   UNL     1      -0.982   0.383  -6.496  0.00  0.00    +0.085 A 
ATOM     13  N   UNL     1       0.035  -0.394  -7.047  0.00  0.00    -0.277 N 
ATOM     14  C   UNL     1       0.861  -0.865  -6.097  0.00  0.00    +0.269 C 
ATOM     15  O   UNL     1       1.838  -1.566  -6.281  0.00  0.00    -0.268 OA
ATOM     16  H   UNL     1       0.136  -0.569  -7.995  0.00  0.00    +0.155 HD
BRANCH  11  17
ATOM     17  O   UNL     1      -2.214   1.034  -8.432  0.00  0.00    -0.493 OA
ATOM     18  C   UNL     1      -3.325   1.757  -8.966  0.00  0.00    +0.277 C 
ENDBRANCH  11  17
ENDBRANCH   3   5
BRANCH   1  20
ATOM     19  C   UNL     1      -0.317   1.528  -0.079  0.00  0.00    +0.022 C 
ATOM     20  C   UNL     1       0.024   0.038  -0.000  0.00  0.00    +0.103 C 
BRANCH  20  21
ATOM     21  C   UNL     1       0.885  -0.217   1.210  0.00  0.00    -0.036 A 
ATOM     22  C   UNL     1       2.107   0.417   1.335  0.00  0.00    +0.004 A 
ATOM     23  C   UNL     1       2.897   0.183   2.446  0.00  0.00    +0.004 A 
ATOM     24  C   UNL     1       2.464  -0.684   3.431  0.00  0.00    -0.047 A 
ATOM     25  C   UNL     1       1.242  -1.318   3.306  0.00  0.00    +0.004 A 
ATOM     26  C   UNL     1       0.450  -1.080   2.198  0.00  0.00    +0.004 A 
BRANCH  24  27
ATOM     27  C   UNL     1       3.325  -0.940   4.641  0.00  0.00    +0.038 C 
BRANCH  27  28
ATOM     28  C   UNL     1       2.979   0.070   5.736  0.00  0.00    -0.013 C 
ATOM     29  C   UNL     1       3.763  -0.266   7.006  0.00  0.00    +0.007 C 
ATOM     30  C   UNL     1       3.349   1.479   5.266  0.00  0.00    +0.007 C 
ENDBRANCH  27  28
ENDBRANCH  24  27
ENDBRANCH  20  21
ENDBRANCH   1  20
TORSDOF 6
