REMARK  Name = ZINC19055593
REMARK  12 active torsions:
REMARK  status: ('A' for Active; 'I' for Inactive)
REMARK    1  A    between atoms: C_1  and  C_2
REMARK    2  A    between atoms: C_2  and  C_3
REMARK    3  A    between atoms: C_2  and  C_4
REMARK    4  A    between atoms: C_7  and  C_10
REMARK    5  A    between atoms: C_10  and  C_12
REMARK    6  A    between atoms: C_10  and  N_15
REMARK    7  A    between atoms: C_12  and  C_13
REMARK    8  A    between atoms: C_12  and  C_14
REMARK    9  A    between atoms: C_16  and  C_18
REMARK   10  A    between atoms: C_18  and  N_19
REMARK   11  A    between atoms: C_22  and  C_26
REMARK   12  A    between atoms: C_22  and  C_27
REMARK                            x       y       z     vdW  Elec       q    Type
REMARK                         _______ _______ _______ _____ _____    ______ ____
ROOT
ATOM      1  C   UNL     1      -3.465  -1.164  -1.134  0.00  0.00    +0.213 C 
ENDROOT
BRANCH   1   2
ATOM      2  N   UNL     1      -3.978  -1.213  -2.505  0.00  0.00    -0.215 N 
ATOM      3  C   UNL     1      -3.859  -2.280  -3.321  0.00  0.00    +0.251 C 
ATOM      4  O   UNL     1      -3.327  -3.339  -3.067  0.00  0.00    -0.272 OA
ATOM      5  C   UNL     1      -4.529  -1.879  -4.620  0.00  0.00    +0.135 C 
ATOM      6  N   UNL     1      -4.990  -0.504  -4.362  0.00  0.00    -0.281 N 
ATOM      7  C   UNL     1      -4.626  -0.206  -3.101  0.00  0.00    +0.310 C 
ATOM      8  O   UNL     1      -4.859   0.859  -2.565  0.00  0.00    -0.252 OA
ATOM      9  C   UNL     1      -5.715  -2.797  -4.920  0.00  0.00    +0.047 C 
ATOM     10  H   UNL     1      -5.465   0.074  -4.980  0.00  0.00    +0.152 HD
BRANCH   5  11
ATOM     11  C   UNL     1      -3.539  -1.905  -5.756  0.00  0.00    -0.012 A 
ATOM     12  C   UNL     1      -2.478  -2.791  -5.726  0.00  0.00    +0.010 A 
ATOM     13  C   UNL     1      -1.568  -2.819  -6.767  0.00  0.00    +0.050 A 
ATOM     14  C   UNL     1      -1.718  -1.959  -7.843  0.00  0.00    +0.166 A 
ATOM     15  C   UNL     1      -2.787  -1.067  -7.873  0.00  0.00    +0.167 A 
ATOM     16  C   UNL     1      -3.698  -1.048  -6.829  0.00  0.00    +0.055 A 
ATOM     17  O   UNL     1      -2.714  -0.338  -9.024  0.00  0.00    -0.453 OA
ATOM     18  C   UNL     1      -1.367  -0.507  -9.502  0.00  0.00    +0.466 C 
ATOM     19  O   UNL     1      -0.975  -1.789  -8.975  0.00  0.00    -0.453 OA
ENDBRANCH   5  11
ENDBRANCH   1   2
BRANCH   1  21
ATOM     20  N   UNL     1      -1.372  -0.511   0.012  0.00  0.00    -0.307 N 
ATOM     21  C   UNL     1      -2.051  -0.643  -1.145  0.00  0.00    +0.231 C 
ATOM     22  O   UNL     1      -1.524  -0.341  -2.194  0.00  0.00    -0.274 OA
ATOM     23  H   UNL     1      -1.794  -0.752   0.852  0.00  0.00    +0.149 HD
BRANCH  20  24
ATOM     24  C   UNL     1       0.002  -0.004   0.002  0.00  0.00    +0.106 C 
BRANCH  24  28
ATOM     25  C   UNL     1       2.068  -1.419   3.463  0.00  0.00    -0.045 A 
ATOM     26  C   UNL     1       2.716  -1.369   2.243  0.00  0.00    +0.004 A 
ATOM     27  C   UNL     1       2.048  -0.911   1.123  0.00  0.00    +0.006 A 
ATOM     28  C   UNL     1       0.731  -0.503   1.223  0.00  0.00    -0.027 A 
ATOM     29  C   UNL     1       0.084  -0.548   2.444  0.00  0.00    +0.006 A 
ATOM     30  C   UNL     1       0.751  -1.010   3.563  0.00  0.00    +0.004 A 
BRANCH  25  32
ATOM     31  C   UNL     1       2.832  -0.817   5.744  0.00  0.00    +0.012 C 
ATOM     32  C   UNL     1       2.797  -1.919   4.684  0.00  0.00    +0.013 C 
ATOM     33  C   UNL     1       2.071  -3.143   5.245  0.00  0.00    +0.012 C 
ENDBRANCH  25  32
ENDBRANCH  24  28
BRANCH  24  34
ATOM     34  C   UNL     1      -0.019   1.526   0.010  0.00  0.00    +0.008 C 
ATOM     35  C   UNL     1      -0.759   2.033  -1.229  0.00  0.00    +0.009 C 
ATOM     36  C   UNL     1      -0.735   2.019   1.269  0.00  0.00    +0.009 C 
ENDBRANCH  24  34
ENDBRANCH  20  24
ENDBRANCH   1  21
TORSDOF 7
