REMARK  Name = ZINC35487634
REMARK  4 active torsions:
REMARK  status: ('A' for Active; 'I' for Inactive)
REMARK    1  A    between atoms: C_1  and  N_2
REMARK    2  A    between atoms: N_2  and  C_3
REMARK    3  A    between atoms: C_3  and  C_5
REMARK    4  A    between atoms: C_3  and  C_15
REMARK                            x       y       z     vdW  Elec       q    Type
REMARK                         _______ _______ _______ _____ _____    ______ ____
ROOT
ATOM      1  C   UNL     1       0.713  -0.491   1.192  0.00  0.00    -0.007 C 
ENDROOT
BRANCH   1   2
ATOM      2  C   UNL     1       0.742  -1.996   1.131  0.00  0.00    -0.053 A 
ATOM      3  C   UNL     1      -0.327  -2.686   0.591  0.00  0.00    +0.006 A 
ATOM      4  C   UNL     1      -0.305  -4.067   0.535  0.00  0.00    +0.049 A 
ATOM      5  C   UNL     1       0.792  -4.764   1.020  0.00  0.00    +0.162 A 
ATOM      6  C   UNL     1       1.868  -4.070   1.561  0.00  0.00    +0.162 A 
ATOM      7  C   UNL     1       1.840  -2.684   1.611  0.00  0.00    +0.051 A 
ATOM      8  O   UNL     1       2.957  -4.734   2.036  0.00  0.00    -0.485 OA
ATOM      9  C   UNL     1       2.792  -6.131   2.305  0.00  0.00    +0.270 C 
ATOM     10  C   UNL     1       2.068  -6.768   1.111  0.00  0.00    +0.270 C 
ATOM     11  O   UNL     1       0.798  -6.124   0.962  0.00  0.00    -0.485 OA
ENDBRANCH   1   2
BRANCH   1  12
ATOM     12  C   UNL     1       0.272  -0.052   2.565  0.00  0.00    -0.021 A 
ATOM     13  C   UNL     1      -1.019  -0.306   2.991  0.00  0.00    +0.044 A 
ATOM     14  C   UNL     1      -1.423   0.097   4.252  0.00  0.00    +0.020 A 
ATOM     15  C   UNL     1      -0.537   0.754   5.084  0.00  0.00    +0.003 A 
ATOM     16  C   UNL     1       0.753   1.009   4.659  0.00  0.00    +0.020 A 
ATOM     17  C   UNL     1       1.160   0.601   3.401  0.00  0.00    +0.044 A 
ATOM     18 CL   UNL     1       2.783   0.914   2.869  0.00  0.00    -0.083 Cl
ATOM     19 CL   UNL     1      -2.132  -1.131   1.945  0.00  0.00    -0.083 Cl
ENDBRANCH   1  12
BRANCH   1  21
ATOM     20  C   UNL     1      -0.179   1.490   0.173  0.00  0.00    -0.099 C 
ATOM     21  N   UNL     1      -0.230   0.021   0.188  0.00  0.00    +0.384 N 
ATOM     22  H   UNL     1      -1.164  -0.281   0.419  0.00  0.00    -0.085 HD
ATOM     23  H   UNL     1       0.023  -0.333  -0.722  0.00  0.00    -0.085 HD
ENDBRANCH   1  21
TORSDOF 3
