REMARK  Name = ZINC22295722
REMARK  9 active torsions:
REMARK  status: ('A' for Active; 'I' for Inactive)
REMARK    1  A    between atoms: C_1  and  C_2
REMARK    2  A    between atoms: C_5  and  C_35
REMARK    3  A    between atoms: N_8  and  C_10
REMARK    4  A    between atoms: C_10  and  C_11
REMARK    5  A    between atoms: C_17  and  C_19
REMARK    6  A    between atoms: N_24  and  C_26
REMARK    7  A    between atoms: C_26  and  C_27
REMARK    8  A    between atoms: C_27  and  O_28
REMARK    9  A    between atoms: O_28  and  C_29
REMARK                            x       y       z     vdW  Elec       q    Type
REMARK                         _______ _______ _______ _____ _____    ______ ____
ROOT
ATOM      1  C   UNL     1      -4.893   7.890   0.090  0.00  0.00    +0.034 A 
ATOM      2  C   UNL     1      -5.970   7.067   0.097  0.00  0.00    +0.070 A 
ATOM      3  S   UNL     1      -5.169   5.470   0.081  0.00  0.00    -0.060 S 
ATOM      4  C   UNL     1      -3.529   6.040   0.068  0.00  0.00    +0.165 A 
ATOM      5  N   UNL     1      -3.690   7.349   0.082  0.00  0.00    -0.231 NA
ATOM      6  N   UNL     1      -2.350   5.306   0.052  0.00  0.00    -0.259 N 
ATOM      7  C   UNL     1      -2.395   3.959   0.046  0.00  0.00    +0.270 C 
ATOM      8  O   UNL     1      -3.467   3.387   0.053  0.00  0.00    -0.268 OA
ATOM      9  H   UNL     1      -1.379   5.824   0.046  0.00  0.00    +0.157 HD
ENDROOT
BRANCH   7  10
ATOM     10  C   UNL     1      -1.140   3.178   0.029  0.00  0.00    +0.146 A 
ATOM     11  C   UNL     1      -1.190   1.763   0.017  0.00  0.00    +0.040 A 
ATOM     12  C   UNL     1      -0.013   1.076   0.008  0.00  0.00    +0.074 A 
ATOM     13  C   UNL     1       1.188   1.821   0.001  0.00  0.00    +0.267 A 
ATOM     14  O   UNL     1       2.265   1.248  -0.013  0.00  0.00    -0.266 OA
ATOM     15  N   UNL     1       1.135   3.166   0.008  0.00  0.00    -0.226 N 
ATOM     16  N   UNL     1       0.018   3.799   0.022  0.00  0.00    -0.163 NA
BRANCH  15  17
ATOM     17  C   UNL     1       2.386   3.928  -0.000  0.00  0.00    +0.188 C 
BRANCH  17  18
ATOM     18  C   UNL     1       2.808   4.200  -1.445  0.00  0.00    +0.252 C 
BRANCH  18  19
ATOM     19  O   UNL     1       1.844   5.050  -2.071  0.00  0.00    -0.490 OA
BRANCH  19  20
ATOM     20  C   UNL     1       2.071   5.391  -3.367  0.00  0.00    +0.121 A 
ATOM     21  C   UNL     1       3.201   4.923  -4.021  0.00  0.00    +0.045 A 
ATOM     22  C   UNL     1       3.427   5.266  -5.340  0.00  0.00    +0.004 A 
ATOM     23  C   UNL     1       2.533   6.085  -6.005  0.00  0.00    +0.000 A 
ATOM     24  C   UNL     1       1.408   6.558  -5.353  0.00  0.00    +0.004 A 
ATOM     25  C   UNL     1       1.175   6.213  -4.036  0.00  0.00    +0.045 A 
ENDBRANCH  19  20
ENDBRANCH  18  19
ENDBRANCH  17  18
ENDBRANCH  15  17
ENDBRANCH   7  10
BRANCH   1  26
ATOM     26  C   UNL     1      -5.065   9.387   0.100  0.00  0.00    -0.022 C 
BRANCH  26  32
ATOM     27  C   UNL     1      -7.116   9.304   4.570  0.00  0.00    +0.005 C 
ATOM     28  C   UNL     1      -5.928   9.798   3.742  0.00  0.00    -0.031 C 
ATOM     29  C   UNL     1      -5.842  11.324   3.831  0.00  0.00    +0.003 C 
ATOM     30  C   UNL     1      -4.688  11.815   2.953  0.00  0.00    -0.031 C 
ATOM     31  C   UNL     1      -4.914  11.346   1.514  0.00  0.00    -0.075 C 
ATOM     32  N   UNL     1      -4.988   9.880   1.481  0.00  0.00    +0.384 N 
ATOM     33  C   UNL     1      -6.117   9.387   2.280  0.00  0.00    -0.075 C 
ATOM     34  C   UNL     1      -3.369  11.243   3.475  0.00  0.00    +0.005 C 
ATOM     35  H   UNL     1      -4.063   9.487   1.931  0.00  0.00    -0.081 HD
ENDBRANCH  26  32
ENDBRANCH   1  26
TORSDOF 7
