REMARK  Name = ZINC64080159
REMARK  5 active torsions:
REMARK  status: ('A' for Active; 'I' for Inactive)
REMARK    1  A    between atoms: C_1  and  C_2
REMARK    2  A    between atoms: C_5  and  C_15
REMARK    3  A    between atoms: C_6  and  C_14
REMARK    4  A    between atoms: C_18  and  C_20
REMARK    5  A    between atoms: C_20  and  C_22
REMARK                            x       y       z     vdW  Elec       q    Type
REMARK                         _______ _______ _______ _____ _____    ______ ____
ROOT
ATOM      1  C   UNL     1      -0.557   0.535  -0.503  0.00  0.00    +0.029 C 
ATOM      2  C   UNL     1      -0.250  -0.952  -0.317  0.00  0.00    +0.083 C 
ATOM      3  C   UNL     1       0.556  -1.490  -1.515  0.00  0.00    +0.061 C 
ATOM      4  C   UNL     1       1.857  -1.954  -0.900  0.00  0.00    -0.003 C 
ATOM      5  C   UNL     1       1.818  -1.730   0.409  0.00  0.00    +0.016 C 
ATOM      6  N   UNL     1       0.638  -1.154   0.837  0.00  0.00    -0.269 N 
ATOM      7  C   UNL     1       0.334  -0.815   2.157  0.00  0.00    +0.241 A 
ATOM      8  N   UNL     1       1.136  -0.996   3.211  0.00  0.00    -0.202 NA
ATOM      9  H   UNL     1      -1.332   0.282   4.553  0.00  0.00    +0.190 HD
ATOM     10  C   UNL     1       0.544  -0.569   4.297  0.00  0.00    +0.217 A 
ATOM     11  N   UNL     1      -0.668  -0.099   3.957  0.00  0.00    -0.264 N 
ATOM     12  N   UNL     1      -0.783  -0.262   2.567  0.00  0.00    -0.136 NA
ATOM     13  C   UNL     1       2.952  -2.072   1.340  0.00  0.00    +0.061 C 
ENDROOT
BRANCH   4  14
ATOM     14  C   UNL     1       2.987  -2.559  -1.633  0.00  0.00    +0.076 A 
ATOM     15  C   UNL     1       2.901  -2.784  -2.999  0.00  0.00    +0.075 A 
ATOM     16  S   UNL     1       4.399  -3.467  -3.348  0.00  0.00    -0.072 S 
ATOM     17  C   UNL     1       5.083  -3.433  -1.701  0.00  0.00    +0.149 A 
ATOM     18  N   UNL     1       4.093  -2.888  -1.004  0.00  0.00    -0.236 NA
BRANCH  17  19
ATOM     19  C   UNL     1       6.401  -3.887  -1.237  0.00  0.00    +0.218 C 
ATOM     20  O   UNL     1       6.676  -3.848  -0.052  0.00  0.00    -0.284 OA
BRANCH  19  21
ATOM     21  C   UNL     1       7.394  -4.392  -2.209  0.00  0.00    +0.024 A 
ATOM     22  C   UNL     1       7.138  -4.309  -3.579  0.00  0.00    +0.012 A 
ATOM     23  C   UNL     1       8.069  -4.782  -4.481  0.00  0.00    +0.001 A 
ATOM     24  C   UNL     1       9.253  -5.337  -4.030  0.00  0.00    +0.000 A 
ATOM     25  C   UNL     1       9.513  -5.422  -2.674  0.00  0.00    +0.001 A 
ATOM     26  C   UNL     1       8.594  -4.949  -1.761  0.00  0.00    +0.012 A 
ENDBRANCH  19  21
ENDBRANCH  17  19
ENDBRANCH   4  14
TORSDOF 3
