REMARK  Name = ZINC13459711
REMARK  10 active torsions:
REMARK  status: ('A' for Active; 'I' for Inactive)
REMARK    1  A    between atoms: C_1  and  C_2
REMARK    2  A    between atoms: C_2  and  C_3
REMARK    3  A    between atoms: C_2  and  N_4
REMARK    4  A    between atoms: N_4  and  S_5
REMARK    5  A    between atoms: S_5  and  C_8
REMARK    6  A    between atoms: C_11  and  C_14
REMARK    7  A    between atoms: C_17  and  C_19
REMARK    8  A    between atoms: N_20  and  N_21
REMARK    9  A    between atoms: N_21  and  C_22
REMARK   10  A    between atoms: C_27  and  C_28
REMARK                            x       y       z     vdW  Elec       q    Type
REMARK                         _______ _______ _______ _____ _____    ______ ____
ROOT
ATOM      1  C   UNL     1      -4.252   1.058   5.197  0.00  0.00    +0.136 A 
ATOM      2  C   UNL     1      -5.108   0.020   5.413  0.00  0.00    +0.050 A 
ATOM      3  C   UNL     1      -5.498   0.079   6.758  0.00  0.00    +0.051 A 
ATOM      4  C   UNL     1      -4.854   1.165   7.310  0.00  0.00    +0.148 A 
ATOM      5  O   UNL     1      -4.102   1.740   6.350  0.00  0.00    -0.454 OA
ENDROOT
BRANCH   1   9
ATOM      6  C   UNL     1      -2.359   1.983   1.511  0.00  0.00    +0.105 A 
ATOM      7  C   UNL     1      -3.215   0.898   1.593  0.00  0.00    +0.029 A 
ATOM      8  C   UNL     1      -3.828   0.588   2.789  0.00  0.00    +0.013 A 
ATOM      9  C   UNL     1      -3.594   1.379   3.916  0.00  0.00    +0.017 A 
ATOM     10  C   UNL     1      -2.733   2.476   3.824  0.00  0.00    +0.013 A 
ATOM     11  C   UNL     1      -2.122   2.771   2.623  0.00  0.00    +0.029 A 
BRANCH   6  12
ATOM     12  S   UNL     1      -1.575   2.367  -0.019  0.00  0.00    +0.059 S 
ATOM     13  O   UNL     1      -1.254   3.751   0.025  0.00  0.00    -0.153 OA
ATOM     14  O   UNL     1      -2.383   1.804  -1.043  0.00  0.00    -0.153 OA
BRANCH  12  15
ATOM     15  N   UNL     1      -0.135   1.549  -0.050  0.00  0.00    -0.187 NA
ATOM     16  H   UNL     1       0.702   2.040  -0.057  0.00  0.00    +0.148 HD
BRANCH  15  18
ATOM     17  C   UNL     1       1.045  -0.405  -0.927  0.00  0.00    +0.025 C 
ATOM     18  C   UNL     1      -0.125   0.084  -0.072  0.00  0.00    +0.070 C 
ATOM     19  C   UNL     1       0.029  -0.447   1.355  0.00  0.00    +0.025 C 
ENDBRANCH  15  18
ENDBRANCH  12  15
ENDBRANCH   6  12
ENDBRANCH   1   9
BRANCH   4  20
ATOM     20  C   UNL     1      -4.964   1.614   8.699  0.00  0.00    +0.176 C 
ATOM     21  N   UNL     1      -4.301   2.661   9.100  0.00  0.00    -0.187 NA
BRANCH  21  22
ATOM     22  N   UNL     1      -4.406   3.090  10.429  0.00  0.00    -0.237 N 
ATOM     23  H   UNL     1      -4.973   2.608  11.051  0.00  0.00    +0.174 HD
BRANCH  22  24
ATOM     24  C   UNL     1      -3.700   4.205  10.855  0.00  0.00    +0.062 A 
ATOM     25  C   UNL     1      -2.801   4.832  10.001  0.00  0.00    +0.025 A 
ATOM     26  C   UNL     1      -2.103   5.943  10.426  0.00  0.00    +0.002 A 
ATOM     27  C   UNL     1      -2.284   6.438  11.708  0.00  0.00    +0.001 A 
ATOM     28  C   UNL     1      -3.167   5.828  12.572  0.00  0.00    +0.017 A 
ATOM     29  C   UNL     1      -3.885   4.704  12.156  0.00  0.00    +0.086 A 
BRANCH  29  30
ATOM     30  C   UNL     1      -4.830   4.046  13.075  0.00  0.00    +0.388 C 
ATOM     31  O   UNL     1      -5.375   3.010  12.747  0.00  0.00    -0.241 OA
ATOM     32  O   UNL     1      -5.091   4.593  14.279  0.00  0.00    -0.241 OA
ENDBRANCH  29  30
ENDBRANCH  22  24
ENDBRANCH  21  22
ENDBRANCH   4  20
TORSDOF 8
