REMARK  Name = ZINC08825746
REMARK  7 active torsions:
REMARK  status: ('A' for Active; 'I' for Inactive)
REMARK    1  A    between atoms: C_1  and  C_2
REMARK    2  A    between atoms: C_4  and  C_20
REMARK    3  A    between atoms: C_5  and  C_19
REMARK    4  A    between atoms: N_6  and  C_7
REMARK    5  A    between atoms: C_7  and  C_8
REMARK    6  A    between atoms: C_20  and  C_22
REMARK    7  A    between atoms: C_22  and  N_23
REMARK                            x       y       z     vdW  Elec       q    Type
REMARK                         _______ _______ _______ _____ _____    ______ ____
ROOT
ATOM      1  C   UNL     1      -2.123   4.522  -1.374  0.00  0.00    +0.183 C 
ATOM      2  O   UNL     1      -1.602   3.943  -2.305  0.00  0.00    -0.290 OA
ENDROOT
BRANCH   1   6
ATOM      3  C   UNL     1      -5.516   8.262  -0.698  0.00  0.00    +0.063 C 
ATOM      4  C   UNL     1      -4.592   7.241  -1.310  0.00  0.00    +0.017 A 
ATOM      5  C   UNL     1      -3.813   6.387  -0.625  0.00  0.00    +0.034 A 
ATOM      6  C   UNL     1      -3.094   5.589  -1.627  0.00  0.00    +0.040 A 
ATOM      7  C   UNL     1      -3.516   6.057  -2.857  0.00  0.00    +0.027 A 
ATOM      8  N   UNL     1      -4.413   7.036  -2.647  0.00  0.00    -0.344 N 
ATOM      9  C   UNL     1      -3.055   5.553  -4.200  0.00  0.00    +0.064 C 
BRANCH   8  10
ATOM     10  C   UNL     1      -5.098   7.783  -3.706  0.00  0.00    +0.169 C 
BRANCH  10  11
ATOM     11  C   UNL     1      -4.268   9.013  -4.080  0.00  0.00    +0.230 C 
ATOM     12  C   UNL     1      -4.916   9.731  -5.272  0.00  0.00    +0.275 C 
ATOM     13  O   UNL     1      -4.124  10.881  -5.587  0.00  0.00    -0.485 OA
ATOM     14  C   UNL     1      -3.738  11.663  -4.542  0.00  0.00    +0.162 A 
ATOM     15  C   UNL     1      -3.289  12.953  -4.787  0.00  0.00    +0.049 A 
ATOM     16  C   UNL     1      -2.891  13.758  -3.736  0.00  0.00    +0.004 A 
ATOM     17  C   UNL     1      -2.939  13.281  -2.440  0.00  0.00    +0.004 A 
ATOM     18  C   UNL     1      -3.386  11.997  -2.189  0.00  0.00    +0.049 A 
ATOM     19  C   UNL     1      -3.788  11.184  -3.239  0.00  0.00    +0.163 A 
ATOM     20  O   UNL     1      -4.230   9.924  -2.976  0.00  0.00    -0.480 OA
ENDBRANCH  10  11
ENDBRANCH   8  10
ENDBRANCH   1   6
BRANCH   1  21
ATOM     21  C   UNL     1      -1.772   4.143   0.041  0.00  0.00    +0.197 C 
BRANCH  21  22
ATOM     22  N   UNL     1      -0.787   3.058   0.026  0.00  0.00    -0.216 N 
ATOM     23  C   UNL     1       0.549   3.247   0.014  0.00  0.00    +0.251 C 
ATOM     24  O   UNL     1       1.140   4.306   0.015  0.00  0.00    -0.272 OA
ATOM     25  C   UNL     1       1.154   1.861   0.001  0.00  0.00    +0.138 C 
ATOM     26  C   UNL     1       1.975   1.656  -1.266  0.00  0.00    +0.040 C 
ATOM     27  C   UNL     1       2.719   0.320  -1.150  0.00  0.00    +0.008 C 
ATOM     28  C   UNL     1       3.791   0.455  -0.071  0.00  0.00    +0.035 C 
ATOM     29  C   UNL     1       3.197   0.995   1.204  0.00  0.00    -0.042 A 
ATOM     30  C   UNL     1       1.983   1.646   1.236  0.00  0.00    -0.012 A 
ATOM     31  C   UNL     1       1.493   2.126   2.443  0.00  0.00    +0.006 A 
ATOM     32  C   UNL     1       2.209   1.953   3.609  0.00  0.00    +0.000 A 
ATOM     33  C   UNL     1       3.425   1.296   3.578  0.00  0.00    +0.000 A 
ATOM     34  C   UNL     1       3.916   0.821   2.379  0.00  0.00    +0.004 A 
ATOM     35  N   UNL     1      -0.011   0.966   0.007  0.00  0.00    -0.281 N 
ATOM     36  C   UNL     1      -1.101   1.757   0.016  0.00  0.00    +0.310 C 
ATOM     37  O   UNL     1      -2.241   1.337   0.018  0.00  0.00    -0.252 OA
ATOM     38  H   UNL     1       0.002  -0.004   0.002  0.00  0.00    +0.152 HD
ENDBRANCH  21  22
ENDBRANCH   1  21
TORSDOF 5
