REMARK  Name = ZINC31272357
REMARK  4 active torsions:
REMARK  status: ('A' for Active; 'I' for Inactive)
REMARK    1  A    between atoms: C_12  and  C_14
REMARK    2  A    between atoms: C_14  and  O_16
REMARK    3  A    between atoms: O_16  and  C_17
REMARK    4  A    between atoms: C_17  and  C_18
REMARK                            x       y       z     vdW  Elec       q    Type
REMARK                         _______ _______ _______ _____ _____    ______ ____
ROOT
ATOM      1  C   UNL     1      -0.747   1.963  -1.211  0.00  0.00    +0.328 C 
ATOM      2  O   UNL     1      -0.885   1.241  -2.169  0.00  0.00    -0.249 OA
ENDROOT
BRANCH   1  14
ATOM      3  C   UNL     1      -3.753  -1.509  -0.356  0.00  0.00    +0.039 A 
ATOM      4  C   UNL     1      -2.658  -2.353  -0.260  0.00  0.00    +0.116 A 
ATOM      5  N   UNL     1      -1.448  -1.831  -0.145  0.00  0.00    -0.223 NA
ATOM      6  C   UNL     1      -1.278  -0.517  -0.120  0.00  0.00    +0.218 A 
ATOM      7  N   UNL     1      -2.303   0.318  -0.204  0.00  0.00    -0.223 NA
ATOM      8  C   UNL     1      -3.539  -0.140  -0.327  0.00  0.00    +0.116 A 
ATOM      9  N   UNL     1       0.002  -0.004   0.002  0.00  0.00    -0.286 N 
ATOM     10  C   UNL     1       0.669  -0.533   1.199  0.00  0.00    +0.109 C 
ATOM     11  C   UNL     1       2.125  -0.061   1.224  0.00  0.00    +0.019 C 
ATOM     12  C   UNL     1       2.160   1.470   1.231  0.00  0.00    +0.004 C 
ATOM     13  C   UNL     1       1.417   1.995  -0.001  0.00  0.00    +0.034 C 
ATOM     14  C   UNL     1      -0.018   1.464   0.010  0.00  0.00    +0.185 C 
ENDBRANCH   1  14
BRANCH   1  15
ATOM     15  O   UNL     1      -1.243   3.210  -1.233  0.00  0.00    -0.459 OA
BRANCH  15  16
ATOM     16  C   UNL     1      -1.934   3.623  -2.442  0.00  0.00    +0.267 C 
BRANCH  16  17
ATOM     17  C   UNL     1      -2.417   5.042  -2.284  0.00  0.00    -0.005 A 
ATOM     18  C   UNL     1      -1.605   6.094  -2.665  0.00  0.00    +0.056 A 
ATOM     19  C   UNL     1      -2.047   7.399  -2.521  0.00  0.00    +0.168 A 
ATOM     20  C   UNL     1      -3.312   7.648  -1.992  0.00  0.00    +0.184 A 
ATOM     21  C   UNL     1      -4.121   6.589  -1.614  0.00  0.00    +0.087 A 
ATOM     22  C   UNL     1      -3.674   5.288  -1.764  0.00  0.00    +0.031 A 
ATOM     23 CL   UNL     1      -5.698   6.894  -0.955  0.00  0.00    -0.080 Cl
ATOM     24  O   UNL     1      -3.510   8.998  -1.953  0.00  0.00    -0.451 OA
ATOM     25  C   UNL     1      -2.522   9.558  -2.839  0.00  0.00    +0.466 C 
ATOM     26  O   UNL     1      -1.454   8.593  -2.813  0.00  0.00    -0.453 OA
ENDBRANCH  16  17
ENDBRANCH  15  16
ENDBRANCH   1  15
TORSDOF 4
