REMARK  Name = ZINC15735224
REMARK  3 active torsions:
REMARK  status: ('A' for Active; 'I' for Inactive)
REMARK    1  A    between atoms: C_1  and  C_2
REMARK    2  A    between atoms: C_6  and  N_8
REMARK    3  A    between atoms: C_23  and  C_25
REMARK                            x       y       z     vdW  Elec       q    Type
REMARK                         _______ _______ _______ _____ _____    ______ ____
ROOT
ATOM      1  N   UNL     1      -4.716   2.092  -2.747  0.00  0.00    -0.269 N 
ATOM      2  C   UNL     1      -3.942   1.296  -1.982  0.00  0.00    +0.308 C 
ATOM      3  O   UNL     1      -3.489   0.265  -2.441  0.00  0.00    -0.252 OA
ATOM      4  N   UNL     1      -3.670   1.643  -0.709  0.00  0.00    -0.268 N 
ATOM      5  C   UNL     1      -4.201   2.885  -0.117  0.00  0.00    +0.148 C 
ATOM      6  C   UNL     1      -3.196   3.585   0.771  0.00  0.00    +0.005 A 
ATOM      7  C   UNL     1      -2.597   4.816   0.432  0.00  0.00    -0.030 A 
ATOM      8  C   UNL     1      -1.725   5.359   1.321  0.00  0.00    -0.005 A 
ATOM      9  S   UNL     1      -1.694   4.188   2.655  0.00  0.00    -0.075 S 
ATOM     10  C   UNL     1      -2.835   3.033   1.960  0.00  0.00    +0.090 A 
ATOM     11  N   UNL     1      -3.299   1.809   2.423  0.00  0.00    -0.312 N 
ATOM     12  C   UNL     1      -3.775   1.430   3.632  0.00  0.00    +0.092 A 
ATOM     13  C   UNL     1      -4.184   0.144   3.538  0.00  0.00    +0.020 A 
ATOM     14  C   UNL     1      -3.922  -0.289   2.220  0.00  0.00    +0.025 A 
ATOM     15  C   UNL     1      -3.351   0.733   1.567  0.00  0.00    +0.049 A 
ATOM     16  C   UNL     1      -2.824   0.795   0.164  0.00  0.00    +0.155 C 
ATOM     17  C   UNL     1      -0.973   6.644   1.194  0.00  0.00    +0.043 C 
ATOM     18  C   UNL     1      -1.044   7.101  -0.271  0.00  0.00    +0.005 C 
ATOM     19  C   UNL     1      -2.495   6.998  -0.748  0.00  0.00    +0.005 C 
ATOM     20  C   UNL     1      -2.901   5.530  -0.881  0.00  0.00    +0.036 C 
ATOM     21  H   UNL     1      -5.022   2.946  -2.404  0.00  0.00    +0.156 HD
ENDROOT
BRANCH   1  27
ATOM     22  C   UNL     1      -8.025   1.995  -6.382  0.00  0.00    +0.044 C 
ATOM     23  C   UNL     1      -6.675   1.625  -5.824  0.00  0.00    -0.049 A 
ATOM     24  C   UNL     1      -5.791   0.883  -6.587  0.00  0.00    +0.003 A 
ATOM     25  C   UNL     1      -4.552   0.542  -6.078  0.00  0.00    +0.002 A 
ATOM     26  C   UNL     1      -4.190   0.946  -4.807  0.00  0.00    +0.023 A 
ATOM     27  C   UNL     1      -5.077   1.685  -4.037  0.00  0.00    +0.035 A 
ATOM     28  C   UNL     1      -6.322   2.027  -4.551  0.00  0.00    +0.026 A 
ENDBRANCH   1  27
BRANCH  16  29
ATOM     29  C   UNL     1      -1.426   1.359   0.190  0.00  0.00    -0.021 A 
ATOM     30  C   UNL     1      -0.978   2.142  -0.857  0.00  0.00    +0.007 A 
ATOM     31  C   UNL     1       0.301   2.665  -0.831  0.00  0.00    +0.020 A 
ATOM     32  C   UNL     1       1.135   2.399   0.241  0.00  0.00    +0.041 A 
ATOM     33  C   UNL     1       0.688   1.611   1.286  0.00  0.00    +0.020 A 
ATOM     34  C   UNL     1      -0.592   1.089   1.259  0.00  0.00    +0.007 A 
ATOM     35 CL   UNL     1       2.742   3.056   0.275  0.00  0.00    -0.084 Cl
ENDBRANCH  16  29
TORSDOF 2
