REMARK  Name = ZINC01382010
REMARK  13 active torsions:
REMARK  status: ('A' for Active; 'I' for Inactive)
REMARK    1  A    between atoms: C_1  and  C_2
REMARK    2  A    between atoms: C_6  and  C_15
REMARK    3  A    between atoms: C_13  and  C_14
REMARK    4  A    between atoms: C_15  and  C_17
REMARK    5  A    between atoms: C_15  and  N_28
REMARK    6  A    between atoms: N_21  and  C_22
REMARK    7  A    between atoms: C_22  and  C_23
REMARK    8  A    between atoms: N_28  and  C_29
REMARK    9  A    between atoms: N_28  and  C_38
REMARK   10  A    between atoms: C_29  and  C_30
REMARK   11  A    between atoms: C_33  and  O_36
REMARK   12  A    between atoms: O_36  and  C_37
REMARK   13  A    between atoms: C_38  and  C_39
REMARK                            x       y       z     vdW  Elec       q    Type
REMARK                         _______ _______ _______ _____ _____    ______ ____
ROOT
ATOM      1  C   UNL     1       0.133  -5.860  -3.521  0.00  0.00    +0.163 C 
ENDROOT
BRANCH   1   7
ATOM      2  C   UNL     1      -2.918  -1.157   1.398  0.00  0.00    +0.044 C 
ATOM      3  C   UNL     1      -2.274  -2.479   1.069  0.00  0.00    -0.047 A 
ATOM      4  C   UNL     1      -1.897  -2.747  -0.216  0.00  0.00    +0.013 A 
ATOM      5  C   UNL     1      -1.299  -3.974  -0.522  0.00  0.00    -0.001 A 
ATOM      6  C   UNL     1      -0.882  -4.294  -1.889  0.00  0.00    +0.021 A 
ATOM      7  C   UNL     1      -0.308  -5.499  -2.126  0.00  0.00    +0.042 A 
ATOM      8  C   UNL     1      -0.121  -6.417  -1.070  0.00  0.00    +0.254 A 
ATOM      9  O   UNL     1       0.397  -7.495  -1.305  0.00  0.00    -0.268 OA
ATOM     10  N   UNL     1      -0.501  -6.133   0.188  0.00  0.00    -0.322 N 
ATOM     11  H   UNL     1      -0.357  -6.787   0.890  0.00  0.00    +0.169 HD
ATOM     12  C   UNL     1      -1.091  -4.925   0.495  0.00  0.00    +0.049 A 
ATOM     13  C   UNL     1      -1.484  -4.630   1.796  0.00  0.00    +0.030 A 
ATOM     14  C   UNL     1      -2.065  -3.412   2.075  0.00  0.00    -0.046 A 
ATOM     15  C   UNL     1      -2.484  -3.092   3.487  0.00  0.00    +0.044 C 
ENDBRANCH   1   7
BRANCH   1  16
ATOM     16  C   UNL     1      -0.715  -6.993  -4.038  0.00  0.00    +0.174 A 
ATOM     17  N   UNL     1      -0.636  -8.253  -3.687  0.00  0.00    -0.111 NA
ATOM     18  N   UNL     1      -1.527  -8.907  -4.349  0.00  0.00    -0.023 NA
ATOM     19  N   UNL     1      -2.172  -8.097  -5.114  0.00  0.00    -0.043 NA
ATOM     20  N   UNL     1      -1.704  -6.906  -4.947  0.00  0.00    -0.220 N 
BRANCH  20  21
ATOM     21  C   UNL     1      -2.162  -5.689  -5.622  0.00  0.00    +0.221 C 
BRANCH  21  22
ATOM     22  C   UNL     1      -1.381  -5.498  -6.897  0.00  0.00    +0.126 A 
ATOM     23  C   UNL     1      -1.721  -5.976  -8.107  0.00  0.00    +0.046 A 
ATOM     24  C   UNL     1      -0.713  -5.564  -9.009  0.00  0.00    +0.041 A 
ATOM     25  C   UNL     1       0.183  -4.859  -8.295  0.00  0.00    +0.195 A 
ATOM     26  O   UNL     1      -0.229  -4.817  -7.018  0.00  0.00    -0.466 OA
ENDBRANCH  21  22
ENDBRANCH  20  21
ENDBRANCH   1  16
BRANCH   1  27
ATOM     27  N   UNL     1       1.542  -6.274  -3.498  0.00  0.00    -0.280 NA
BRANCH  27  28
ATOM     28  C   UNL     1       1.901  -6.987  -4.731  0.00  0.00    +0.121 C 
BRANCH  28  29
ATOM     29  C   UNL     1       3.190  -7.739  -4.518  0.00  0.00    -0.033 A 
ATOM     30  C   UNL     1       4.400  -7.122  -4.776  0.00  0.00    +0.008 A 
ATOM     31  C   UNL     1       5.582  -7.810  -4.582  0.00  0.00    +0.046 A 
ATOM     32  C   UNL     1       5.555  -9.121  -4.129  0.00  0.00    +0.120 A 
ATOM     33  C   UNL     1       4.339  -9.738  -3.870  0.00  0.00    +0.046 A 
ATOM     34  C   UNL     1       3.160  -9.044  -4.061  0.00  0.00    +0.008 A 
BRANCH  32  35
ATOM     35  O   UNL     1       6.716  -9.800  -3.938  0.00  0.00    -0.495 OA
ATOM     36  C   UNL     1       6.612 -11.146  -3.469  0.00  0.00    +0.277 C 
ENDBRANCH  32  35
ENDBRANCH  28  29
ENDBRANCH  27  28
BRANCH  27  37
ATOM     37  C   UNL     1       2.426  -5.121  -3.280  0.00  0.00    +0.122 C 
BRANCH  37  38
ATOM     38  C   UNL     1       2.395  -4.732  -1.824  0.00  0.00    -0.015 A 
ATOM     39  C   UNL     1       1.845  -3.523  -1.443  0.00  0.00    +0.006 A 
ATOM     40  C   UNL     1       1.817  -3.166  -0.108  0.00  0.00    +0.000 A 
ATOM     41  C   UNL     1       2.339  -4.019   0.847  0.00  0.00    +0.001 A 
ATOM     42  C   UNL     1       2.889  -5.228   0.467  0.00  0.00    +0.020 A 
ATOM     43  C   UNL     1       2.913  -5.588  -0.869  0.00  0.00    +0.045 A 
ATOM     44 CL   UNL     1       3.598  -7.110  -1.346  0.00  0.00    -0.083 Cl
ENDBRANCH  37  38
ENDBRANCH  27  37
ENDBRANCH   1  27
TORSDOF 10
