REMARK  Name = ZINC45853766
REMARK  8 active torsions:
REMARK  status: ('A' for Active; 'I' for Inactive)
REMARK    1  A    between atoms: C_1  and  C_2
REMARK    2  A    between atoms: C_7  and  S_29
REMARK    3  A    between atoms: C_12  and  C_14
REMARK    4  A    between atoms: C_14  and  O_15
REMARK    5  A    between atoms: O_15  and  C_16
REMARK    6  A    between atoms: C_16  and  C_18
REMARK    7  A    between atoms: C_18  and  C_22
REMARK    8  A    between atoms: S_29  and  N_32
REMARK                            x       y       z     vdW  Elec       q    Type
REMARK                         _______ _______ _______ _____ _____    ______ ____
ROOT
ATOM      1  C   UNL     1      -0.019   1.526   0.010  0.00  0.00    +0.029 C 
ATOM      2  C   UNL     1       0.002  -0.004   0.002  0.00  0.00    +0.083 C 
ATOM      3  C   UNL     1      -1.432  -0.557   0.047  0.00  0.00    +0.059 C 
ATOM      4  C   UNL     1      -1.490  -1.361   1.326  0.00  0.00    -0.022 A 
ATOM      5  C   UNL     1      -2.519  -2.086   1.895  0.00  0.00    +0.034 A 
ATOM      6  C   UNL     1      -2.324  -2.748   3.093  0.00  0.00    +0.105 A 
ATOM      7  C   UNL     1      -1.094  -2.682   3.722  0.00  0.00    +0.030 A 
ATOM      8  C   UNL     1      -0.064  -1.960   3.159  0.00  0.00    +0.026 A 
ATOM      9  C   UNL     1      -0.254  -1.289   1.949  0.00  0.00    +0.040 A 
ATOM     10  N   UNL     1       0.650  -0.510   1.215  0.00  0.00    -0.265 N 
ATOM     11  C   UNL     1       1.926  -0.263   1.571  0.00  0.00    +0.258 C 
ATOM     12  O   UNL     1       2.629   0.427   0.863  0.00  0.00    -0.272 OA
ENDROOT
BRANCH   6  13
ATOM     13  S   UNL     1      -3.638  -3.672   3.816  0.00  0.00    +0.056 S 
ATOM     14  O   UNL     1      -3.364  -3.747   5.208  0.00  0.00    -0.153 OA
ATOM     15  O   UNL     1      -4.847  -3.127   3.306  0.00  0.00    -0.153 OA
BRANCH  13  16
ATOM     16  N   UNL     1      -3.530  -5.217   3.229  0.00  0.00    -0.204 NA
ATOM     17  H   UNL     1      -3.831  -5.964   3.770  0.00  0.00    +0.144 HD
ATOM     18  H   UNL     1      -3.167  -5.375   2.344  0.00  0.00    +0.144 HD
ENDBRANCH  13  16
ENDBRANCH   6  13
BRANCH  11  19
ATOM     19  C   UNL     1       2.478  -0.842   2.847  0.00  0.00    +0.328 C 
BRANCH  19  20
ATOM     20  O   UNL     1       3.841  -0.440   3.002  0.00  0.00    -0.455 OA
BRANCH  20  21
ATOM     21  C   UNL     1       4.484  -0.876   4.097  0.00  0.00    +0.318 C 
ATOM     22  O   UNL     1       3.909  -1.575   4.897  0.00  0.00    -0.250 OA
BRANCH  21  23
ATOM     23  C   UNL     1       5.923  -0.492   4.328  0.00  0.00    +0.093 C 
ATOM     24  C   UNL     1       6.926  -1.377   3.570  0.00  0.00    +0.023 C 
ATOM     25  C   UNL     1       6.919  -2.302   4.798  0.00  0.00    +0.003 C 
ATOM     26  C   UNL     1       6.514  -1.070   5.625  0.00  0.00    +0.023 C 
BRANCH  23  27
ATOM     27  C   UNL     1       6.170   0.985   4.158  0.00  0.00    -0.030 A 
ATOM     28  C   UNL     1       6.848   1.689   5.136  0.00  0.00    +0.007 A 
ATOM     29  C   UNL     1       7.075   3.043   4.981  0.00  0.00    +0.038 A 
ATOM     30  C   UNL     1       6.623   3.695   3.846  0.00  0.00    +0.123 A 
ATOM     31  C   UNL     1       5.944   2.989   2.868  0.00  0.00    +0.038 A 
ATOM     32  C   UNL     1       5.722   1.634   3.023  0.00  0.00    +0.007 A 
ATOM     33  F   UNL     1       6.844   5.019   3.694  0.00  0.00    -0.205 F 
ENDBRANCH  23  27
ENDBRANCH  21  23
ENDBRANCH  20  21
ENDBRANCH  19  20
ENDBRANCH  11  19
TORSDOF 7
