REMARK  Name = ZINC05673860
REMARK  7 active torsions:
REMARK  status: ('A' for Active; 'I' for Inactive)
REMARK    1  A    between atoms: C_1  and  C_2
REMARK    2  A    between atoms: C_2  and  O_3
REMARK    3  A    between atoms: O_3  and  C_4
REMARK    4  A    between atoms: C_9  and  C_10
REMARK    5  A    between atoms: C_19  and  C_23
REMARK    6  A    between atoms: C_19  and  O_24
REMARK    7  A    between atoms: C_20  and  C_22
REMARK                            x       y       z     vdW  Elec       q    Type
REMARK                         _______ _______ _______ _____ _____    ______ ____
ROOT
ATOM      1  C   UNL     1      -2.881   1.629   2.506  0.00  0.00    +0.065 C 
ATOM      2  C   UNL     1      -2.014   1.497   3.732  0.00  0.00    +0.006 A 
ATOM      3  C   UNL     1      -2.602   1.631   4.980  0.00  0.00    +0.057 A 
ATOM      4  C   UNL     1      -1.838   1.526   6.129  0.00  0.00    +0.167 A 
ATOM      5  C   UNL     1      -0.470   1.284   6.030  0.00  0.00    +0.170 A 
ATOM      6  C   UNL     1       0.116   1.148   4.784  0.00  0.00    +0.095 A 
ATOM      7  C   UNL     1      -0.656   1.252   3.631  0.00  0.00    +0.132 A 
ATOM      8  O   UNL     1      -0.042   1.109   2.427  0.00  0.00    -0.461 OA
ATOM      9  C   UNL     1      -0.729   1.579   1.267  0.00  0.00    +0.211 C 
ATOM     10  C   UNL     1      -2.160   1.028   1.296  0.00  0.00    +0.069 C 
ATOM     11  C   UNL     1      -2.892   1.423   0.012  0.00  0.00    +0.015 C 
ATOM     12  C   UNL     1      -0.013   1.086   0.008  0.00  0.00    +0.089 C 
ATOM     13  O   UNL     1       0.055   1.225   7.289  0.00  0.00    -0.452 OA
ATOM     14  C   UNL     1      -0.927   1.838   8.144  0.00  0.00    +0.466 C 
ATOM     15  O   UNL     1      -2.170   1.618   7.451  0.00  0.00    -0.453 OA
ENDROOT
BRANCH   1  21
ATOM     16  C   UNL     1      -5.382   1.587   2.679  0.00  0.00    +0.124 A 
ATOM     17  C   UNL     1      -6.577   0.910   2.881  0.00  0.00    +0.046 A 
ATOM     18  C   UNL     1      -6.565  -0.447   3.140  0.00  0.00    +0.004 A 
ATOM     19  C   UNL     1      -5.364  -1.131   3.194  0.00  0.00    +0.001 A 
ATOM     20  C   UNL     1      -4.173  -0.460   2.989  0.00  0.00    +0.008 A 
ATOM     21  C   UNL     1      -4.180   0.897   2.729  0.00  0.00    +0.002 A 
BRANCH  16  22
ATOM     22  O   UNL     1      -5.391   2.923   2.430  0.00  0.00    -0.492 OA
BRANCH  22  24
ATOM     23  C   UNL     1      -6.476   5.058   2.101  0.00  0.00    +0.048 C 
ATOM     24  C   UNL     1      -6.666   3.568   2.393  0.00  0.00    +0.225 C 
ENDBRANCH  22  24
ENDBRANCH  16  22
ENDBRANCH   1  21
BRANCH   9  25
ATOM     25  O   UNL     1      -0.762   3.008   1.273  0.00  0.00    -0.355 OA
ATOM     26  H   UNL     1       0.112   3.421   1.264  0.00  0.00    +0.214 HD
ENDBRANCH   9  25
TORSDOF 4
