REMARK  Name = ZINC36571333
REMARK  13 active torsions:
REMARK  status: ('A' for Active; 'I' for Inactive)
REMARK    1  A    between atoms: C_1  and  C_2
REMARK    2  A    between atoms: C_2  and  C_3
REMARK    3  A    between atoms: C_3  and  N_4
REMARK    4  A    between atoms: N_4  and  C_5
REMARK    5  A    between atoms: C_5  and  C_7
REMARK    6  A    between atoms: C_5  and  C_13
REMARK    7  A    between atoms: N_15  and  C_16
REMARK    8  A    between atoms: C_16  and  S_17
REMARK    9  A    between atoms: S_17  and  C_20
REMARK   10  A    between atoms: C_23  and  C_26
REMARK   11  A    between atoms: C_27  and  C_29
REMARK   12  A    between atoms: C_33  and  O_36
REMARK   13  A    between atoms: C_34  and  O_35
REMARK                            x       y       z     vdW  Elec       q    Type
REMARK                         _______ _______ _______ _____ _____    ______ ____
ROOT
ATOM      1  C   UNL     1      -0.110  -3.220   0.706  0.00  0.00    +0.192 C 
ENDROOT
BRANCH   1   2
ATOM      2  C   UNL     1      -0.864  -3.002   1.992  0.00  0.00    -0.018 A 
ATOM      3  C   UNL     1      -1.521  -1.806   2.213  0.00  0.00    +0.006 A 
ATOM      4  C   UNL     1      -2.213  -1.606   3.393  0.00  0.00    +0.000 A 
ATOM      5  C   UNL     1      -2.249  -2.602   4.351  0.00  0.00    +0.000 A 
ATOM      6  C   UNL     1      -1.593  -3.798   4.129  0.00  0.00    +0.000 A 
ATOM      7  C   UNL     1      -0.904  -4.000   2.947  0.00  0.00    +0.006 A 
ENDBRANCH   1   2
BRANCH   1   8
ATOM      8  C   UNL     1       1.289  -3.688   1.017  0.00  0.00    +0.239 C 
ATOM      9  O   UNL     1       2.202  -2.891   1.048  0.00  0.00    -0.273 OA
ATOM     10  N   UNL     1       1.524  -4.992   1.261  0.00  0.00    -0.294 N 
ATOM     11  H   UNL     1       0.794  -5.630   1.237  0.00  0.00    +0.150 HD
BRANCH  10  12
ATOM     12  C   UNL     1       2.884  -5.447   1.564  0.00  0.00    +0.278 C 
BRANCH  12  13
ATOM     13  S   UNL     1       3.113  -5.514   3.362  0.00  0.00    +0.013 S 
ATOM     14  O   UNL     1       4.406  -6.014   3.672  0.00  0.00    -0.168 OA
ATOM     15  O   UNL     1       2.635  -4.318   3.962  0.00  0.00    -0.168 OA
BRANCH  13  16
ATOM     16  C   UNL     1       2.003  -6.767   3.913  0.00  0.00    +0.090 A 
ATOM     17  C   UNL     1       0.707  -6.437   4.264  0.00  0.00    +0.027 A 
ATOM     18  C   UNL     1      -0.164  -7.419   4.696  0.00  0.00    +0.005 A 
ATOM     19  C   UNL     1       0.261  -8.732   4.777  0.00  0.00    -0.050 A 
ATOM     20  C   UNL     1       1.556  -9.063   4.426  0.00  0.00    +0.005 A 
ATOM     21  C   UNL     1       2.426  -8.081   3.989  0.00  0.00    +0.027 A 
ATOM     22  C   UNL     1      -0.688  -9.804   5.249  0.00  0.00    +0.044 C 
ENDBRANCH  13  16
ENDBRANCH  12  13
ENDBRANCH  10  12
ENDBRANCH   1   8
BRANCH   1  23
ATOM     23  N   UNL     1      -0.049  -1.963  -0.044  0.00  0.00    -0.282 N 
ATOM     24  C   UNL     1      -0.645  -1.868  -1.249  0.00  0.00    +0.251 C 
ATOM     25  O   UNL     1      -0.678  -0.799  -1.828  0.00  0.00    -0.270 OA
BRANCH  24  26
ATOM     26  C   UNL     1      -1.257  -3.060  -1.866  0.00  0.00    +0.082 A 
ATOM     27  C   UNL     1      -2.137  -3.859  -1.129  0.00  0.00    +0.017 A 
ATOM     28  C   UNL     1      -2.707  -4.971  -1.709  0.00  0.00    +0.005 A 
ATOM     29  C   UNL     1      -2.413  -5.305  -3.021  0.00  0.00    +0.049 A 
ATOM     30  C   UNL     1      -1.543  -4.524  -3.763  0.00  0.00    +0.159 A 
ATOM     31  C   UNL     1      -0.964  -3.394  -3.193  0.00  0.00    +0.171 A 
BRANCH  31  32
ATOM     32  O   UNL     1      -0.115  -2.623  -3.920  0.00  0.00    -0.503 OA
ATOM     33  H   UNL     1       0.812  -2.891  -3.856  0.00  0.00    +0.292 HD
ENDBRANCH  31  32
BRANCH  30  34
ATOM     34  O   UNL     1      -1.260  -4.859  -5.050  0.00  0.00    -0.503 OA
ATOM     35  H   UNL     1      -1.856  -4.463  -5.700  0.00  0.00    +0.292 HD
ENDBRANCH  30  34
ENDBRANCH  24  26
BRANCH  23  36
ATOM     36  C   UNL     1       0.660  -0.810   0.516  0.00  0.00    +0.109 C 
BRANCH  36  38
ATOM     37  C   UNL     1       2.657   0.670   0.264  0.00  0.00    +0.005 C 
ATOM     38  C   UNL     1       1.846  -0.454  -0.383  0.00  0.00    +0.016 C 
ENDBRANCH  36  38
ENDBRANCH  23  36
ENDBRANCH   1  23
TORSDOF 11
