REMARK  Name = ZINC44920731
REMARK  8 active torsions:
REMARK  status: ('A' for Active; 'I' for Inactive)
REMARK    1  A    between atoms: C_1  and  O_2
REMARK    2  A    between atoms: O_2  and  C_3
REMARK    3  A    between atoms: C_3  and  C_4
REMARK    4  A    between atoms: C_5  and  C_28
REMARK    5  A    between atoms: C_9  and  C_15
REMARK    6  A    between atoms: C_12  and  O_14
REMARK    7  A    between atoms: N_17  and  C_18
REMARK    8  A    between atoms: C_23  and  C_24
REMARK                            x       y       z     vdW  Elec       q    Type
REMARK                         _______ _______ _______ _____ _____    ______ ____
ROOT
ATOM      1  C   UNL     1      -1.161  -2.114  -0.015  0.00  0.00    +0.098 A 
ATOM      2  C   UNL     1      -1.079  -2.927  -1.164  0.00  0.00    +0.051 A 
ATOM      3  C   UNL     1      -0.952  -4.230  -0.732  0.00  0.00    +0.163 A 
ATOM      4  N   UNL     1      -0.961  -4.203   0.640  0.00  0.00    -0.233 N 
ATOM      5  N   UNL     1      -1.083  -2.880   1.046  0.00  0.00    -0.171 NA
ATOM      6  C   UNL     1      -0.852  -5.426   1.440  0.00  0.00    +0.204 C 
ATOM      7  C   UNL     1      -1.463  -6.577   0.634  0.00  0.00    +0.131 C 
ATOM      8  C   UNL     1      -1.050  -6.516  -0.809  0.00  0.00    +0.191 C 
ATOM      9  N   UNL     1      -0.831  -5.392  -1.431  0.00  0.00    -0.197 NA
ENDROOT
BRANCH   2  10
ATOM     10  C   UNL     1      -1.121  -2.467  -2.572  0.00  0.00    -0.012 A 
ATOM     11  C   UNL     1      -2.184  -2.833  -3.397  0.00  0.00    +0.009 A 
ATOM     12  C   UNL     1      -2.219  -2.402  -4.707  0.00  0.00    +0.001 A 
ATOM     13  C   UNL     1      -1.201  -1.607  -5.203  0.00  0.00    +0.000 A 
ATOM     14  C   UNL     1      -0.143  -1.241  -4.390  0.00  0.00    +0.001 A 
ATOM     15  C   UNL     1      -0.101  -1.661  -3.077  0.00  0.00    +0.009 A 
ENDBRANCH   2  10
BRANCH   6  16
ATOM     16  C   UNL     1       0.598  -5.718   1.728  0.00  0.00    +0.242 C 
ATOM     17  O   UNL     1       1.461  -4.978   1.307  0.00  0.00    -0.273 OA
ATOM     18  N   UNL     1       0.935  -6.803   2.454  0.00  0.00    -0.283 N 
ATOM     19  H   UNL     1       0.244  -7.350   2.858  0.00  0.00    +0.155 HD
BRANCH  18  20
ATOM     20  C   UNL     1       2.283  -7.139   2.624  0.00  0.00    +0.045 A 
ATOM     21  C   UNL     1       3.226  -6.728   1.691  0.00  0.00    +0.024 A 
ATOM     22  C   UNL     1       4.555  -7.062   1.862  0.00  0.00    +0.002 A 
ATOM     23  C   UNL     1       4.947  -7.804   2.961  0.00  0.00    +0.001 A 
ATOM     24  C   UNL     1       4.011  -8.215   3.891  0.00  0.00    +0.014 A 
ATOM     25  C   UNL     1       2.681  -7.879   3.730  0.00  0.00    +0.076 A 
BRANCH  25  26
ATOM     26  C   UNL     1       1.662  -8.321   4.748  0.00  0.00    +0.419 C 
ATOM     27  F   UNL     1       2.299  -9.046   5.761  0.00  0.00    -0.166 F 
ATOM     28  F   UNL     1       1.038  -7.197   5.301  0.00  0.00    -0.166 F 
ATOM     29  F   UNL     1       0.703  -9.129   4.128  0.00  0.00    -0.166 F 
ENDBRANCH  25  26
ENDBRANCH  18  20
ENDBRANCH   6  16
BRANCH   8  30
ATOM     30  O   UNL     1      -0.901  -7.671  -1.488  0.00  0.00    -0.495 OA
ATOM     31  H   UNL     1      -0.635  -7.554  -2.410  0.00  0.00    +0.293 HD
ENDBRANCH   8  30
BRANCH   1  32
ATOM     32  C   UNL     1      -1.307  -0.615  -0.007  0.00  0.00    +0.217 C 
BRANCH  32  34
ATOM     33  C   UNL     1      -0.039   1.419  -0.001  0.00  0.00    +0.194 C 
ATOM     34  O   UNL     1      -0.013  -0.010  -0.008  0.00  0.00    -0.377 OA
ENDBRANCH  32  34
ENDBRANCH   1  32
TORSDOF 7
