REMARK  Name = ZINC22450222
REMARK  4 active torsions:
REMARK  status: ('A' for Active; 'I' for Inactive)
REMARK    1  A    between atoms: C_1  and  C_2
REMARK    2  A    between atoms: C_3  and  C_18
REMARK    3  A    between atoms: C_14  and  C_17
REMARK    4  A    between atoms: C_18  and  C_19
REMARK                            x       y       z     vdW  Elec       q    Type
REMARK                         _______ _______ _______ _____ _____    ______ ____
ROOT
ATOM      1  C   UNL     1      -4.453   2.294  -1.580  0.00  0.00    +0.066 C 
ATOM      2  C   UNL     1      -3.829   3.555  -2.120  0.00  0.00    +0.050 A 
ATOM      3  C   UNL     1      -2.961   4.271  -1.346  0.00  0.00    +0.042 A 
ATOM      4  C   UNL     1      -2.396   5.447  -1.870  0.00  0.00    +0.256 A 
ATOM      5  O   UNL     1      -1.620   6.114  -1.204  0.00  0.00    -0.267 OA
ATOM      6  N   UNL     1      -2.724   5.822  -3.125  0.00  0.00    -0.295 N 
ATOM      7  H   UNL     1      -2.287   6.734  -3.558  0.00  0.00    +0.172 HD
ATOM      8  C   UNL     1      -3.594   5.068  -3.849  0.00  0.00    +0.198 A 
ATOM      9  N   UNL     1      -4.125   3.970  -3.349  0.00  0.00    -0.221 NA
ATOM     10  N   UNL     1      -3.926   5.458  -5.119  0.00  0.00    -0.301 N 
ATOM     11  C   UNL     1      -2.724   5.725  -5.918  0.00  0.00    +0.108 C 
ATOM     12  C   UNL     1      -3.126   6.015  -7.366  0.00  0.00    +0.019 C 
ATOM     13  C   UNL     1      -4.062   7.226  -7.398  0.00  0.00    +0.006 C 
ATOM     14  C   UNL     1      -5.283   6.941  -6.519  0.00  0.00    +0.003 C 
ATOM     15  C   UNL     1      -4.818   6.624  -5.096  0.00  0.00    +0.111 C 
ATOM     16  C   UNL     1      -6.195   8.169  -6.497  0.00  0.00    +0.009 C 
ENDROOT
BRANCH   3  17
ATOM     17  C   UNL     1      -2.620   3.811   0.048  0.00  0.00    +0.078 C 
BRANCH  17  18
ATOM     18  C   UNL     1      -1.358   2.988   0.010  0.00  0.00    -0.035 A 
ATOM     19  C   UNL     1      -0.782   2.672  -1.183  0.00  0.00    +0.004 A 
ATOM     20  C   UNL     1       0.381   1.907  -1.238  0.00  0.00    +0.001 A 
ATOM     21  C   UNL     1       0.983   1.464  -0.100  0.00  0.00    +0.008 A 
ATOM     22  C   UNL     1       0.421   1.775   1.150  0.00  0.00    -0.018 A 
ATOM     23  C   UNL     1      -0.766   2.548   1.206  0.00  0.00    -0.014 A 
ATOM     24  C   UNL     1      -1.327   2.859   2.456  0.00  0.00    +0.009 A 
ATOM     25  C   UNL     1      -0.726   2.416   3.593  0.00  0.00    +0.001 A 
ATOM     26  C   UNL     1       0.442   1.656   3.539  0.00  0.00    +0.001 A 
ATOM     27  C   UNL     1       1.014   1.335   2.346  0.00  0.00    +0.008 A 
ENDBRANCH  17  18
ENDBRANCH   3  17
TORSDOF 2
