REMARK  Name = ZINC52583971
REMARK  5 active torsions:
REMARK  status: ('A' for Active; 'I' for Inactive)
REMARK    1  A    between atoms: C_1  and  C_2
REMARK    2  A    between atoms: C_2  and  C_4
REMARK    3  A    between atoms: C_2  and  N_10
REMARK    4  A    between atoms: C_4  and  C_5
REMARK    5  A    between atoms: C_19  and  C_21
REMARK                            x       y       z     vdW  Elec       q    Type
REMARK                         _______ _______ _______ _____ _____    ______ ____
ROOT
ATOM      1  N   UNL     1      -1.387  -0.481   0.005  0.00  0.00    -0.296 N 
ATOM      2  C   UNL     1      -2.034  -0.648   1.175  0.00  0.00    +0.303 C 
ATOM      3  O   UNL     1      -1.449  -0.462   2.225  0.00  0.00    -0.253 OA
ATOM      4  N   UNL     1      -3.329  -1.021   1.182  0.00  0.00    -0.279 N 
ATOM      5  C   UNL     1      -3.970  -1.374  -0.099  0.00  0.00    +0.110 C 
ATOM      6  C   UNL     1      -4.865  -2.621   0.024  0.00  0.00    +0.019 C 
ATOM      7  C   UNL     1      -4.197  -3.654   0.898  0.00  0.00    +0.002 C 
ATOM      8  C   UNL     1      -4.645  -3.459   2.344  0.00  0.00    +0.002 C 
ATOM      9  C   UNL     1      -3.867  -2.458   3.089  0.00  0.00    +0.027 C 
ATOM     10  C   UNL     1      -4.030  -1.065   2.446  0.00  0.00    +0.108 C 
ATOM     11  H   UNL     1      -1.831  -0.698  -0.830  0.00  0.00    +0.151 HD
ENDROOT
BRANCH  10  12
ATOM     12  C   UNL     1      -3.462  -0.021   3.372  0.00  0.00    -0.024 A 
ATOM     13  C   UNL     1      -3.582   1.329   3.079  0.00  0.00    +0.025 A 
ATOM     14  C   UNL     1      -3.048   2.257   3.953  0.00  0.00    +0.111 A 
ATOM     15  N   UNL     1      -2.430   1.872   5.052  0.00  0.00    -0.263 NA
ATOM     16  C   UNL     1      -2.296   0.597   5.362  0.00  0.00    +0.111 A 
ATOM     17  C   UNL     1      -2.811  -0.388   4.540  0.00  0.00    +0.025 A 
ENDBRANCH  10  12
BRANCH   1  19
ATOM     18  C   UNL     1      -0.036   1.558   0.030  0.00  0.00    +0.028 C 
ATOM     19  C   UNL     1      -0.013   0.029  -0.007  0.00  0.00    +0.076 C 
BRANCH  19  20
ATOM     20  C   UNL     1       0.694  -0.440  -1.280  0.00  0.00    +0.057 C 
BRANCH  20  21
ATOM     21  C   UNL     1       0.826  -1.941  -1.258  0.00  0.00    -0.039 A 
ATOM     22  C   UNL     1       1.937  -2.539  -0.696  0.00  0.00    +0.011 A 
ATOM     23  C   UNL     1       2.025  -3.892  -0.693  0.00  0.00    +0.045 A 
ATOM     24  S   UNL     1       0.505  -4.362  -1.502  0.00  0.00    -0.105 S 
ATOM     25  C   UNL     1      -0.147  -2.724  -1.785  0.00  0.00    +0.049 A 
ENDBRANCH  20  21
ENDBRANCH  19  20
ENDBRANCH   1  19
TORSDOF 4
