REMARK  Name = ZINC40003826
REMARK  16 active torsions:
REMARK  status: ('A' for Active; 'I' for Inactive)
REMARK    1  A    between atoms: C_1  and  C_2
REMARK    2  A    between atoms: C_2  and  N_3
REMARK    3  A    between atoms: N_3  and  C_4
REMARK    4  A    between atoms: N_3  and  C_6
REMARK    5  A    between atoms: C_4  and  C_5
REMARK    6  A    between atoms: C_6  and  C_7
REMARK    7  A    between atoms: C_7  and  N_8
REMARK    8  A    between atoms: C_9  and  C_29
REMARK    9  A    between atoms: C_11  and  C_16
REMARK   10  A    between atoms: C_16  and  C_18
REMARK   11  A    between atoms: C_19  and  C_28
REMARK   12  A    between atoms: C_26  and  C_27
REMARK   13  A    between atoms: C_32  and  C_35
REMARK   14  A    between atoms: C_35  and  C_36
REMARK   15  A    between atoms: C_35  and  C_37
REMARK   16  A    between atoms: C_35  and  C_38
REMARK                            x       y       z     vdW  Elec       q    Type
REMARK                         _______ _______ _______ _____ _____    ______ ____
ROOT
ATOM      1  N   UNL     1      -0.918  -3.393  -1.951  0.00  0.00    -0.285 N 
ATOM      2  C   UNL     1      -0.970  -4.144  -3.212  0.00  0.00    +0.145 C 
ATOM      3  C   UNL     1      -1.165  -5.593  -2.830  0.00  0.00    +0.078 C 
ATOM      4  C   UNL     1      -1.216  -5.637  -1.479  0.00  0.00    +0.249 C 
ATOM      5  C   UNL     1      -1.058  -4.272  -0.942  0.00  0.00    +0.288 C 
ATOM      6  O   UNL     1      -1.055  -3.983   0.239  0.00  0.00    -0.266 OA
ATOM      7  O   UNL     1      -1.383  -6.757  -0.737  0.00  0.00    -0.282 OA
ENDROOT
BRANCH   2   8
ATOM      8  C   UNL     1       0.322  -3.975  -3.969  0.00  0.00    -0.022 A 
ATOM      9  C   UNL     1       1.531  -4.134  -3.317  0.00  0.00    +0.006 A 
ATOM     10  C   UNL     1       2.716  -3.979  -4.012  0.00  0.00    +0.004 A 
ATOM     11  C   UNL     1       2.692  -3.666  -5.358  0.00  0.00    -0.042 A 
ATOM     12  C   UNL     1       1.483  -3.507  -6.010  0.00  0.00    +0.004 A 
ATOM     13  C   UNL     1       0.298  -3.666  -5.316  0.00  0.00    +0.006 A 
BRANCH  11  14
ATOM     14  C   UNL     1       3.984  -3.496  -6.115  0.00  0.00    -0.013 C 
ATOM     15  C   UNL     1       4.786  -4.798  -6.053  0.00  0.00    +0.015 C 
ATOM     16  C   UNL     1       3.679  -3.155  -7.575  0.00  0.00    +0.015 C 
ATOM     17  C   UNL     1       4.799  -2.364  -5.486  0.00  0.00    +0.015 C 
ENDBRANCH  11  14
ENDBRANCH   2   8
BRANCH   3  18
ATOM     18  C   UNL     1      -1.278  -6.732  -3.748  0.00  0.00    +0.213 C 
ATOM     19  O   UNL     1      -0.273  -7.245  -4.211  0.00  0.00    -0.285 OA
BRANCH  18  20
ATOM     20  C   UNL     1      -2.555  -7.237  -4.097  0.00  0.00    +0.116 A 
ATOM     21  C   UNL     1      -3.787  -6.704  -3.739  0.00  0.00    +0.068 A 
ATOM     22  N   UNL     1      -4.733  -7.465  -4.261  0.00  0.00    -0.232 NA
ATOM     23  C   UNL     1      -4.182  -8.470  -4.943  0.00  0.00    +0.141 A 
ATOM     24  N   UNL     1      -2.823  -8.355  -4.866  0.00  0.00    -0.296 N 
ATOM     25  C   UNL     1      -2.015  -9.257  -5.484  0.00  0.00    +0.093 A 
ATOM     26  C   UNL     1      -2.541 -10.284  -6.191  0.00  0.00    +0.018 A 
ATOM     27  C   UNL     1      -3.931 -10.428  -6.292  0.00  0.00    +0.008 A 
ATOM     28  C   UNL     1      -4.749  -9.532  -5.668  0.00  0.00    -0.008 A 
ATOM     29  C   UNL     1      -6.246  -9.670  -5.768  0.00  0.00    +0.047 C 
ATOM     30  C   UNL     1      -4.007  -5.471  -2.901  0.00  0.00    +0.068 C 
ENDBRANCH  18  20
ENDBRANCH   3  18
BRANCH   1  31
ATOM     31  C   UNL     1      -0.740  -1.945  -1.816  0.00  0.00    +0.090 C 
BRANCH  31  32
ATOM     32  C   UNL     1       0.752  -1.621  -1.727  0.00  0.00    -0.060 C 
BRANCH  32  33
ATOM     33  N   UNL     1       0.931  -0.170  -1.592  0.00  0.00    +0.380 N 
ATOM     34  H   UNL     1       0.462   0.300  -2.352  0.00  0.00    -0.082 HD
BRANCH  33  36
ATOM     35  C   UNL     1       0.427   1.803  -0.231  0.00  0.00    -0.017 C 
ATOM     36  C   UNL     1       0.360   0.277  -0.314  0.00  0.00    -0.082 C 
ENDBRANCH  33  36
BRANCH  33  37
ATOM     37  C   UNL     1       2.364   0.153  -1.627  0.00  0.00    -0.082 C 
ATOM     38  C   UNL     1       2.930  -0.188  -3.007  0.00  0.00    -0.017 C 
ENDBRANCH  33  37
ENDBRANCH  32  33
ENDBRANCH  31  32
ENDBRANCH   1  31
TORSDOF 9
