REMARK  Name = ZINC00178506
REMARK  6 active torsions:
REMARK  status: ('A' for Active; 'I' for Inactive)
REMARK    1  A    between atoms: C_1  and  C_2
REMARK    2  A    between atoms: C_5  and  C_8
REMARK    3  A    between atoms: C_13  and  C_15
REMARK    4  A    between atoms: C_16  and  C_17
REMARK    5  A    between atoms: C_22  and  O_23
REMARK    6  A    between atoms: O_23  and  C_24
REMARK                            x       y       z     vdW  Elec       q    Type
REMARK                         _______ _______ _______ _____ _____    ______ ____
ROOT
ATOM      1  C   UNL     1      -2.973   9.400   0.078  0.00  0.00    +0.043 C 
ATOM      2  C   UNL     1      -2.506   8.103   0.086  0.00  0.00    +0.152 C 
ATOM      3  C   UNL     1      -3.310   6.864   0.094  0.00  0.00    +0.364 C 
ATOM      4  O   UNL     1      -4.522   6.771   0.093  0.00  0.00    -0.243 OA
ATOM      5  O   UNL     1      -2.411   5.857   0.096  0.00  0.00    -0.403 OA
ATOM      6  C   UNL     1      -1.170   6.385   0.099  0.00  0.00    +0.225 C 
ATOM      7  N   UNL     1      -1.207   7.694   0.091  0.00  0.00    -0.206 NA
ENDROOT
BRANCH   1  12
ATOM      8  C   UNL     1       0.716  13.783   0.503  0.00  0.00    +0.044 C 
ATOM      9  C   UNL     1      -0.252  12.633   0.392  0.00  0.00    -0.050 A 
ATOM     10  C   UNL     1       0.227  11.339   0.276  0.00  0.00    +0.004 A 
ATOM     11  C   UNL     1      -0.650  10.281   0.174  0.00  0.00    +0.008 A 
ATOM     12  C   UNL     1      -2.031  10.519   0.187  0.00  0.00    -0.023 A 
ATOM     13  C   UNL     1      -2.507  11.832   0.299  0.00  0.00    +0.008 A 
ATOM     14  C   UNL     1      -1.615  12.877   0.405  0.00  0.00    +0.004 A 
ENDBRANCH   1  12
BRANCH   6  15
ATOM     15  C   UNL     1       0.060   5.597   0.106  0.00  0.00    +0.068 C 
ATOM     16  C   UNL     1      -0.003   4.248   0.115  0.00  0.00    +0.017 C 
BRANCH  16  17
ATOM     17  C   UNL     1       1.235   3.454   0.121  0.00  0.00    +0.017 A 
ATOM     18  C   UNL     1       2.480   4.093   0.118  0.00  0.00    +0.011 A 
ATOM     19  C   UNL     1       3.635   3.342   0.124  0.00  0.00    +0.001 A 
ATOM     20  C   UNL     1       3.571   1.958   0.133  0.00  0.00    +0.004 A 
ATOM     21  C   UNL     1       2.348   1.315   0.142  0.00  0.00    +0.046 A 
ATOM     22  C   UNL     1       1.175   2.052   0.131  0.00  0.00    +0.127 A 
BRANCH  22  23
ATOM     23  O   UNL     1      -0.027   1.421   0.134  0.00  0.00    -0.495 OA
ATOM     24  C   UNL     1      -0.010  -0.008   0.143  0.00  0.00    +0.277 C 
ENDBRANCH  22  23
ENDBRANCH  16  17
ENDBRANCH   6  15
TORSDOF 4
