REMARK  Name = ZINC08928166
REMARK  3 active torsions:
REMARK  status: ('A' for Active; 'I' for Inactive)
REMARK    1  A    between atoms: C_6  and  S_7
REMARK    2  A    between atoms: S_7  and  N_10
REMARK    3  A    between atoms: C_14  and  C_16
REMARK                            x       y       z     vdW  Elec       q    Type
REMARK                         _______ _______ _______ _____ _____    ______ ____
ROOT
ATOM      1  N   UNL     1       6.075  -2.240  -0.066  0.00  0.00    -0.165 NA
ATOM      2  C   UNL     1       6.682  -2.820  -1.278  0.00  0.00    +0.110 C 
ATOM      3  C   UNL     1       5.509  -2.962  -2.280  0.00  0.00    +0.019 C 
ATOM      4  C   UNL     1       4.344  -3.367  -1.340  0.00  0.00    +0.031 C 
ATOM      5  C   UNL     1       4.642  -2.567  -0.054  0.00  0.00    +0.166 C 
ENDROOT
BRANCH   5   6
ATOM      6  C   UNL     1       3.828  -1.299  -0.040  0.00  0.00    +0.238 C 
ATOM      7  O   UNL     1       4.383  -0.221  -0.040  0.00  0.00    -0.274 OA
ATOM      8  N   UNL     1       2.481  -1.363  -0.028  0.00  0.00    -0.263 N 
ATOM      9  C   UNL     1       1.730  -0.193  -0.015  0.00  0.00    +0.165 A 
ATOM     10  N   UNL     1       2.145   1.057  -0.012  0.00  0.00    -0.229 NA
ATOM     11  C   UNL     1       1.299   2.084   0.001  0.00  0.00    +0.054 A 
ATOM     12  C   UNL     1      -0.022   1.768   0.012  0.00  0.00    +0.014 A 
ATOM     13  S   UNL     1       0.002  -0.004   0.002  0.00  0.00    -0.057 S 
ATOM     14  C   UNL     1      -1.186   2.700   0.033  0.00  0.00    +0.044 C 
ATOM     15  C   UNL     1      -0.674   4.102   0.399  0.00  0.00    +0.006 C 
ATOM     16  C   UNL     1       0.564   4.413  -0.447  0.00  0.00    +0.006 C 
ATOM     17  C   UNL     1       1.740   3.544   0.002  0.00  0.00    +0.056 C 
ATOM     18  H   UNL     1       2.037  -2.225  -0.029  0.00  0.00    +0.157 HD
ENDBRANCH   5   6
BRANCH   1  19
ATOM     19  S   UNL     1       6.875  -1.366   1.091  0.00  0.00    +0.062 S 
ATOM     20  O   UNL     1       8.026  -0.819   0.462  0.00  0.00    -0.153 OA
ATOM     21  O   UNL     1       5.901  -0.556   1.734  0.00  0.00    -0.153 OA
BRANCH  19  27
ATOM     22  C   UNL     1       6.665  -2.827   3.387  0.00  0.00    +0.030 A 
ATOM     23  C   UNL     1       7.119  -3.728   4.332  0.00  0.00    +0.022 A 
ATOM     24  C   UNL     1       8.370  -4.303   4.195  0.00  0.00    +0.041 A 
ATOM     25  C   UNL     1       9.164  -3.980   3.109  0.00  0.00    +0.022 A 
ATOM     26  C   UNL     1       8.707  -3.084   2.161  0.00  0.00    +0.030 A 
ATOM     27  C   UNL     1       7.457  -2.509   2.299  0.00  0.00    +0.106 A 
ATOM     28 CL   UNL     1       8.943  -5.428   5.386  0.00  0.00    -0.084 Cl
ENDBRANCH  19  27
ENDBRANCH   1  19
TORSDOF 3
