REMARK  Name = ZINC06162921
REMARK  10 active torsions:
REMARK  status: ('A' for Active; 'I' for Inactive)
REMARK    1  A    between atoms: C_1  and  O_2
REMARK    2  A    between atoms: O_2  and  C_3
REMARK    3  A    between atoms: C_10  and  C_15
REMARK    4  A    between atoms: C_15  and  C_17
REMARK    5  A    between atoms: C_15  and  N_72
REMARK    6  A    between atoms: N_21  and  C_22
REMARK    7  A    between atoms: C_22  and  C_23
REMARK    8  A    between atoms: N_31  and  C_34
REMARK    9  A    between atoms: C_39  and  O_40
REMARK   10  A    between atoms: O_40  and  C_41
REMARK                            x       y       z     vdW  Elec       q    Type
REMARK                         _______ _______ _______ _____ _____    ______ ____
ROOT
ATOM      1  C   UNL     1      -5.241   4.732   4.628  0.00  0.00    +0.039 C 
ENDROOT
BRANCH   1   9
ATOM      2  C   UNL     1      -5.073  10.847   5.635  0.00  0.00    +0.121 A 
ATOM      3  C   UNL     1      -4.509  10.774   6.907  0.00  0.00    +0.047 A 
ATOM      4  C   UNL     1      -4.205   9.555   7.471  0.00  0.00    +0.030 A 
ATOM      5  C   UNL     1      -4.462   8.381   6.769  0.00  0.00    +0.049 A 
ATOM      6  C   UNL     1      -5.031   8.450   5.484  0.00  0.00    +0.002 A 
ATOM      7  C   UNL     1      -5.335   9.695   4.922  0.00  0.00    +0.055 A 
ATOM      8  C   UNL     1      -5.291   7.208   4.755  0.00  0.00    +0.017 A 
ATOM      9  C   UNL     1      -4.981   6.030   5.350  0.00  0.00    +0.011 A 
ATOM     10  C   UNL     1      -4.412   6.014   6.641  0.00  0.00    +0.251 A 
ATOM     11  O   UNL     1      -4.137   4.944   7.156  0.00  0.00    -0.268 OA
ATOM     12  N   UNL     1      -4.165   7.150   7.317  0.00  0.00    -0.322 N 
ATOM     13  H   UNL     1      -3.772   7.103   8.203  0.00  0.00    +0.169 HD
BRANCH   2  15
ATOM     14  C   UNL     1      -5.069  13.212   5.885  0.00  0.00    +0.277 C 
ATOM     15  O   UNL     1      -5.365  12.059   5.094  0.00  0.00    -0.495 OA
ENDBRANCH   2  15
ENDBRANCH   1   9
BRANCH   1  21
ATOM     16  C   UNL     1      -4.172   2.796   3.643  0.00  0.00    -0.058 C 
ATOM     17  C   UNL     1      -2.844   2.043   3.529  0.00  0.00    +0.086 C 
ATOM     18  N   UNL     1      -1.843   2.914   2.898  0.00  0.00    -0.331 N 
ATOM     19  C   UNL     1      -1.642   4.138   3.687  0.00  0.00    +0.086 C 
ATOM     20  C   UNL     1      -2.970   4.891   3.802  0.00  0.00    -0.058 C 
ATOM     21  N   UNL     1      -3.961   4.012   4.457  0.00  0.00    +0.391 N 
ATOM     22  H   UNL     1      -3.606   3.738   5.380  0.00  0.00    -0.080 HD
BRANCH  18  23
ATOM     23  C   UNL     1      -0.633   2.234   2.711  0.00  0.00    +0.072 A 
ATOM     24  C   UNL     1       0.049   1.715   3.802  0.00  0.00    +0.027 A 
ATOM     25  C   UNL     1       1.243   1.045   3.615  0.00  0.00    +0.002 A 
ATOM     26  C   UNL     1       1.760   0.890   2.342  0.00  0.00    +0.004 A 
ATOM     27  C   UNL     1       1.083   1.400   1.249  0.00  0.00    +0.047 A 
ATOM     28  C   UNL     1      -0.111   2.078   1.429  0.00  0.00    +0.141 A 
BRANCH  28  29
ATOM     29  O   UNL     1      -0.775   2.585   0.356  0.00  0.00    -0.493 OA
ATOM     30  C   UNL     1      -0.181   2.387  -0.928  0.00  0.00    +0.277 C 
ENDBRANCH  28  29
ENDBRANCH  18  23
ENDBRANCH   1  21
BRANCH   1  31
ATOM     31  C   UNL     1      -5.868   5.020   3.288  0.00  0.00    +0.143 A 
ATOM     32  N   UNL     1      -5.261   5.486   2.224  0.00  0.00    -0.115 NA
ATOM     33  N   UNL     1      -6.135   5.594   1.283  0.00  0.00    -0.023 NA
ATOM     34  N   UNL     1      -7.284   5.209   1.720  0.00  0.00    -0.044 NA
ATOM     35  N   UNL     1      -7.159   4.843   2.951  0.00  0.00    -0.228 N 
BRANCH  35  36
ATOM     36  C   UNL     1      -8.223   4.333   3.819  0.00  0.00    +0.178 C 
BRANCH  36  37
ATOM     37  C   UNL     1      -8.890   5.501   4.548  0.00  0.00    +0.140 C 
ATOM     38  C   UNL     1     -10.056   4.989   5.431  0.00  0.00    +0.035 C 
ATOM     39  C   UNL     1     -10.134   6.115   6.498  0.00  0.00    +0.031 C 
ATOM     40  C   UNL     1      -8.654   6.527   6.649  0.00  0.00    +0.160 C 
ATOM     41  O   UNL     1      -7.966   6.111   5.463  0.00  0.00    -0.375 OA
ENDBRANCH  36  37
ENDBRANCH  35  36
ENDBRANCH   1  31
TORSDOF 8
