REMARK  Name = ZINC08819817
REMARK  10 active torsions:
REMARK  status: ('A' for Active; 'I' for Inactive)
REMARK    1  A    between atoms: C_1  and  C_2
REMARK    2  A    between atoms: C_5  and  C_8
REMARK    3  A    between atoms: N_12  and  C_16
REMARK    4  A    between atoms: C_16  and  C_17
REMARK    5  A    between atoms: C_17  and  C_18
REMARK    6  A    between atoms: C_18  and  C_19
REMARK    7  A    between atoms: C_19  and  C_20
REMARK    8  A    between atoms: C_20  and  C_21
REMARK    9  A    between atoms: N_23  and  N_24
REMARK   10  A    between atoms: C_25  and  C_27
REMARK                            x       y       z     vdW  Elec       q    Type
REMARK                         _______ _______ _______ _____ _____    ______ ____
ROOT
ATOM      1  C   UNL     1      -0.269  -1.054   0.430  0.00  0.00    +0.002 C 
ENDROOT
BRANCH   1   2
ATOM      2  C   UNL     1       0.413  -1.416  -0.891  0.00  0.00    +0.019 C 
BRANCH   2   3
ATOM      3  C   UNL     1       0.804  -2.895  -0.875  0.00  0.00    +0.115 C 
BRANCH   3   8
ATOM      4  C   UNL     1       4.663  -3.461  -3.941  0.00  0.00    +0.028 C 
ATOM      5  C   UNL     1       3.366  -3.485  -3.547  0.00  0.00    +0.077 C 
ATOM      6  C   UNL     1       2.769  -3.118  -2.244  0.00  0.00    +0.258 C 
ATOM      7  O   UNL     1       3.451  -2.723  -1.317  0.00  0.00    -0.269 OA
ATOM      8  N   UNL     1       1.457  -3.241  -2.140  0.00  0.00    -0.255 N 
ATOM      9  C   UNL     1       0.706  -3.684  -3.168  0.00  0.00    +0.121 C 
ATOM     10  S   UNL     1      -0.989  -3.916  -3.224  0.00  0.00    -0.027 S 
ATOM     11  S   UNL     1       1.907  -3.968  -4.459  0.00  0.00    -0.061 S 
BRANCH   4  16
ATOM     12  C   UNL     1       6.167  -5.692  -9.020  0.00  0.00    +0.044 C 
ATOM     13  C   UNL     1       5.772  -5.106  -7.688  0.00  0.00    -0.050 A 
ATOM     14  C   UNL     1       6.699  -4.392  -6.948  0.00  0.00    +0.004 A 
ATOM     15  C   UNL     1       6.347  -3.854  -5.729  0.00  0.00    +0.008 A 
ATOM     16  C   UNL     1       5.048  -4.031  -5.240  0.00  0.00    -0.024 A 
ATOM     17  C   UNL     1       4.118  -4.759  -5.991  0.00  0.00    +0.008 A 
ATOM     18  C   UNL     1       4.485  -5.286  -7.211  0.00  0.00    +0.004 A 
ENDBRANCH   4  16
ENDBRANCH   3   8
ENDBRANCH   2   3
ENDBRANCH   1   2
BRANCH   1  19
ATOM     19  C   UNL     1      -0.660   0.425   0.413  0.00  0.00    +0.009 C 
BRANCH  19  20
ATOM     20  C   UNL     1      -1.342   0.787   1.734  0.00  0.00    +0.097 C 
BRANCH  20  21
ATOM     21  C   UNL     1      -1.727   2.244   1.718  0.00  0.00    +0.229 C 
ATOM     22  O   UNL     1      -1.481   2.926   0.745  0.00  0.00    -0.274 OA
ATOM     23  N   UNL     1      -2.345   2.790   2.784  0.00  0.00    -0.234 N 
ATOM     24  H   UNL     1      -2.542   2.244   3.562  0.00  0.00    +0.173 HD
BRANCH  23  25
ATOM     25  N   UNL     1      -2.704   4.144   2.769  0.00  0.00    -0.230 N 
ATOM     26  C   UNL     1      -3.322   4.689   3.835  0.00  0.00    +0.262 C 
ATOM     27  O   UNL     1      -3.569   4.006   4.810  0.00  0.00    -0.269 OA
ATOM     28  H   UNL     1      -2.507   4.689   1.991  0.00  0.00    +0.173 HD
BRANCH  26  29
ATOM     29  C   UNL     1      -3.700   6.118   3.819  0.00  0.00    +0.056 A 
ATOM     30  C   UNL     1      -3.413   6.907   2.703  0.00  0.00    +0.014 A 
ATOM     31  C   UNL     1      -3.774   8.238   2.692  0.00  0.00    +0.001 A 
ATOM     32  C   UNL     1      -4.409   8.796   3.788  0.00  0.00    +0.001 A 
ATOM     33  C   UNL     1      -4.692   8.023   4.900  0.00  0.00    +0.021 A 
ATOM     34  C   UNL     1      -4.341   6.686   4.922  0.00  0.00    +0.053 A 
ATOM     35 CL   UNL     1      -4.696   5.717   6.318  0.00  0.00    -0.083 Cl
ENDBRANCH  26  29
ENDBRANCH  23  25
ENDBRANCH  20  21
ENDBRANCH  19  20
ENDBRANCH   1  19
TORSDOF 9
