REMARK  Name = ZINC36660396
REMARK  12 active torsions:
REMARK  status: ('A' for Active; 'I' for Inactive)
REMARK    1  A    between atoms: C_1  and  C_2
REMARK    2  A    between atoms: N_11  and  C_12
REMARK    3  A    between atoms: C_12  and  C_13
REMARK    4  A    between atoms: C_13  and  C_14
REMARK    5  A    between atoms: C_14  and  N_15
REMARK    6  A    between atoms: N_15  and  C_16
REMARK    7  A    between atoms: N_15  and  C_17
REMARK    8  A    between atoms: C_18  and  C_20
REMARK    9  A    between atoms: N_25  and  S_26
REMARK   10  A    between atoms: S_26  and  C_29
REMARK   11  A    between atoms: C_32  and  O_35
REMARK   12  A    between atoms: O_35  and  C_36
REMARK                            x       y       z     vdW  Elec       q    Type
REMARK                         _______ _______ _______ _____ _____    ______ ____
ROOT
ATOM      1  C   UNL     1      -0.584   0.525  -1.347  0.00  0.00    +0.044 C 
ATOM      2  C   UNL     1      -0.431  -0.953  -1.100  0.00  0.00    -0.049 A 
ATOM      3  C   UNL     1      -0.226  -1.823  -2.161  0.00  0.00    +0.005 A 
ATOM      4  C   UNL     1      -0.084  -3.172  -1.964  0.00  0.00    +0.029 A 
ATOM      5  C   UNL     1      -0.143  -3.723  -0.663  0.00  0.00    +0.080 A 
ATOM      6  C   UNL     1      -0.353  -2.807   0.393  0.00  0.00    +0.041 A 
ATOM      7  C   UNL     1      -0.489  -1.456   0.187  0.00  0.00    +0.020 A 
ATOM      8  S   UNL     1      -0.363  -3.868   1.818  0.00  0.00    -0.052 S 
ATOM      9  C   UNL     1      -0.096  -5.409   0.952  0.00  0.00    +0.168 A 
ATOM     10  N   UNL     1      -0.023  -5.018  -0.299  0.00  0.00    -0.224 NA
ATOM     11  N   UNL     1       0.007  -6.690   1.469  0.00  0.00    -0.249 N 
ATOM     12  C   UNL     1      -0.097  -6.890   2.798  0.00  0.00    +0.240 C 
ATOM     13  O   UNL     1      -0.373  -5.965   3.531  0.00  0.00    -0.273 OA
ENDROOT
BRANCH  12  14
ATOM     14  C   UNL     1       0.131  -8.265   3.373  0.00  0.00    +0.166 C 
ATOM     15  C   UNL     1      -1.204  -9.037   3.429  0.00  0.00    +0.031 C 
ATOM     16  C   UNL     1      -1.101  -9.811   4.770  0.00  0.00    +0.019 C 
ATOM     17  C   UNL     1      -0.340  -8.795   5.658  0.00  0.00    +0.110 C 
ATOM     18  N   UNL     1       0.633  -8.154   4.750  0.00  0.00    -0.165 NA
BRANCH  18  19
ATOM     19  S   UNL     1       2.052  -7.431   5.204  0.00  0.00    +0.062 S 
ATOM     20  O   UNL     1       2.498  -8.109   6.371  0.00  0.00    -0.153 OA
ATOM     21  O   UNL     1       2.849  -7.329   4.032  0.00  0.00    -0.153 OA
BRANCH  19  22
ATOM     22  C   UNL     1       1.664  -5.785   5.695  0.00  0.00    +0.106 A 
ATOM     23  C   UNL     1       1.783  -4.748   4.788  0.00  0.00    +0.032 A 
ATOM     24  C   UNL     1       1.480  -3.455   5.171  0.00  0.00    +0.047 A 
ATOM     25  C   UNL     1       1.056  -3.198   6.466  0.00  0.00    +0.120 A 
ATOM     26  C   UNL     1       0.937  -4.240   7.375  0.00  0.00    +0.047 A 
ATOM     27  C   UNL     1       1.236  -5.532   6.985  0.00  0.00    +0.032 A 
BRANCH  25  28
ATOM     28  O   UNL     1       0.757  -1.928   6.846  0.00  0.00    -0.495 OA
ATOM     29  C   UNL     1       0.327  -1.738   8.195  0.00  0.00    +0.277 C 
ENDBRANCH  25  28
ENDBRANCH  19  22
ENDBRANCH  18  19
ENDBRANCH  12  14
BRANCH  11  30
ATOM     30  C   UNL     1       0.229  -7.826   0.572  0.00  0.00    +0.114 C 
BRANCH  30  31
ATOM     31  C   UNL     1       1.731  -8.018   0.353  0.00  0.00    +0.001 C 
BRANCH  31  32
ATOM     32  C   UNL     1       1.963  -9.205  -0.584  0.00  0.00    -0.078 C 
BRANCH  32  33
ATOM     33  N   UNL     1       3.405  -9.388  -0.794  0.00  0.00    +0.376 N 
ATOM     34  C   UNL     1       4.041  -9.765   0.475  0.00  0.00    -0.097 C 
ATOM     35  C   UNL     1       3.624 -10.450  -1.786  0.00  0.00    -0.097 C 
ATOM     36  H   UNL     1       3.809  -8.527  -1.129  0.00  0.00    -0.083 HD
ENDBRANCH  32  33
ENDBRANCH  31  32
ENDBRANCH  30  31
ENDBRANCH  11  30
TORSDOF 8
