REMARK  Name = ZINC59019892
REMARK  8 active torsions:
REMARK  status: ('A' for Active; 'I' for Inactive)
REMARK    1  A    between atoms: C_1  and  C_2
REMARK    2  A    between atoms: C_7  and  N_8
REMARK    3  A    between atoms: C_9  and  C_11
REMARK    4  A    between atoms: C_11  and  S_12
REMARK    5  A    between atoms: S_12  and  C_13
REMARK    6  A    between atoms: N_18  and  N_19
REMARK    7  A    between atoms: C_20  and  C_21
REMARK    8  A    between atoms: C_24  and  C_26
REMARK                            x       y       z     vdW  Elec       q    Type
REMARK                         _______ _______ _______ _____ _____    ______ ____
ROOT
ATOM      1  C   UNL     1      -0.384  -0.118   7.687  0.00  0.00    +0.211 A 
ATOM      2  N   UNL     1      -0.471  -0.560   8.946  0.00  0.00    -0.186 NA
ATOM      3  C   UNL     1      -0.549   0.464   9.770  0.00  0.00    +0.232 A 
ATOM      4  N   UNL     1      -0.513   1.595   9.034  0.00  0.00    -0.245 N 
ATOM      5  N   UNL     1      -0.401   1.194   7.693  0.00  0.00    -0.144 NA
ATOM      6  N   UNL     1      -0.651   0.393  11.147  0.00  0.00    -0.205 N 
ATOM      7  H   UNL     1      -0.704   1.207  11.672  0.00  0.00    +0.177 HD
ATOM      8  H   UNL     1      -0.553   2.506   9.366  0.00  0.00    +0.192 HD
ENDROOT
BRANCH   6   9
ATOM      9  N   UNL     1      -0.678  -0.855  11.784  0.00  0.00    -0.184 NA
ATOM     10  C   UNL     1      -0.773  -0.921  13.080  0.00  0.00    +0.176 C 
BRANCH  10  11
ATOM     11  C   UNL     1      -0.801  -2.227  13.746  0.00  0.00    +0.148 A 
ATOM     12  C   UNL     1      -0.904  -2.439  15.091  0.00  0.00    +0.051 A 
ATOM     13  C   UNL     1      -0.893  -3.833  15.283  0.00  0.00    +0.045 A 
ATOM     14  C   UNL     1      -0.786  -4.400  14.064  0.00  0.00    +0.103 A 
ATOM     15  O   UNL     1      -0.736  -3.428  13.138  0.00  0.00    -0.459 OA
ATOM     16  C   UNL     1      -0.736  -5.881  13.787  0.00  0.00    +0.086 C 
ENDBRANCH  10  11
ENDBRANCH   6   9
BRANCH   1  17
ATOM     17  S   UNL     1      -0.259  -1.133   6.252  0.00  0.00    -0.075 S 
BRANCH  17  18
ATOM     18  C   UNL     1      -0.168   0.052   4.882  0.00  0.00    +0.173 C 
BRANCH  18  20
ATOM     19  N   UNL     1       0.025  -0.015   2.417  0.00  0.00    -0.285 N 
ATOM     20  C   UNL     1      -0.056  -0.694   3.578  0.00  0.00    +0.227 C 
ATOM     21  O   UNL     1      -0.040  -1.907   3.573  0.00  0.00    -0.275 OA
ATOM     22  H   UNL     1       0.078   0.954   2.425  0.00  0.00    +0.155 HD
BRANCH  19  29
ATOM     23  C   UNL     1      -1.264   1.184   0.181  0.00  0.00    +0.045 C 
ATOM     24  C   UNL     1      -0.584  -0.158   0.084  0.00  0.00    -0.029 A 
ATOM     25  C   UNL     1      -0.568  -0.840  -1.117  0.00  0.00    +0.005 A 
ATOM     26  C   UNL     1       0.055  -2.071  -1.206  0.00  0.00    +0.000 A 
ATOM     27  C   UNL     1       0.666  -2.622  -0.095  0.00  0.00    +0.002 A 
ATOM     28  C   UNL     1       0.655  -1.945   1.108  0.00  0.00    +0.023 A 
ATOM     29  C   UNL     1       0.034  -0.706   1.201  0.00  0.00    +0.036 A 
ENDBRANCH  19  29
ENDBRANCH  18  20
ENDBRANCH  17  18
ENDBRANCH   1  17
TORSDOF 6
