REMARK  Name = ZINC07990960
REMARK  9 active torsions:
REMARK  status: ('A' for Active; 'I' for Inactive)
REMARK    1  A    between atoms: C_1  and  C_2
REMARK    2  A    between atoms: C_2  and  C_3
REMARK    3  A    between atoms: C_3  and  S_4
REMARK    4  A    between atoms: S_4  and  C_5
REMARK    5  A    between atoms: C_14  and  C_27
REMARK    6  A    between atoms: C_15  and  C_23
REMARK    7  A    between atoms: C_16  and  C_18
REMARK    8  A    between atoms: C_23  and  O_25
REMARK    9  A    between atoms: O_25  and  C_26
REMARK                            x       y       z     vdW  Elec       q    Type
REMARK                         _______ _______ _______ _____ _____    ______ ____
ROOT
ATOM      1  C   UNL     1       4.621   5.148   1.391  0.00  0.00    +0.171 A 
ATOM      2  N   UNL     1       3.538   5.937   1.149  0.00  0.00    -0.302 N 
ATOM      3  H   UNL     1       3.569   6.911   1.374  0.00  0.00    +0.171 HD
ATOM      4  C   UNL     1       2.422   5.407   0.605  0.00  0.00    +0.258 A 
ATOM      5  O   UNL     1       1.446   6.106   0.382  0.00  0.00    -0.267 OA
ATOM      6  C   UNL     1       2.404   4.041   0.301  0.00  0.00    +0.069 A 
ATOM      7  C   UNL     1       3.530   3.282   0.570  0.00  0.00    +0.135 A 
ATOM      8  N   UNL     1       4.610   3.862   1.108  0.00  0.00    -0.208 NA
ATOM      9  N   UNL     1       3.536   1.928   0.289  0.00  0.00    -0.302 N 
ATOM     10  C   UNL     1       2.358   1.263   0.094  0.00  0.00    +0.017 C 
ATOM     11  C   UNL     1       1.224   1.923  -0.189  0.00  0.00    +0.066 C 
ATOM     12  C   UNL     1       1.180   3.419  -0.307  0.00  0.00    +0.103 C 
ATOM     13  C   UNL     1       2.333  -0.240   0.194  0.00  0.00    +0.061 C 
ATOM     14  H   UNL     1       4.378   1.449   0.234  0.00  0.00    +0.153 HD
ENDROOT
BRANCH  12  15
ATOM     15  C   UNL     1       1.103   3.799  -1.763  0.00  0.00    +0.002 A 
ATOM     16  C   UNL     1       0.140   4.496  -2.414  0.00  0.00    +0.012 A 
ATOM     17  C   UNL     1       0.282   4.733  -3.768  0.00  0.00    +0.008 A 
ATOM     18  C   UNL     1       1.377   4.252  -4.407  0.00  0.00    +0.045 A 
ATOM     19  S   UNL     1       2.254   3.443  -3.080  0.00  0.00    -0.101 S 
ENDBRANCH  12  15
BRANCH  11  20
ATOM     20  C   UNL     1       0.032   1.186  -0.377  0.00  0.00    +0.337 C 
ATOM     21  O   UNL     1      -0.829   1.191   0.483  0.00  0.00    -0.245 OA
BRANCH  20  22
ATOM     22  O   UNL     1      -0.149   0.473  -1.509  0.00  0.00    -0.465 OA
ATOM     23  C   UNL     1      -1.374  -0.252  -1.629  0.00  0.00    +0.280 C 
ENDBRANCH  20  22
ENDBRANCH  11  20
BRANCH   1  24
ATOM     24  S   UNL     1       6.068   5.863   2.100  0.00  0.00    -0.088 S 
BRANCH  24  25
ATOM     25  C   UNL     1       7.130   4.400   2.188  0.00  0.00    +0.077 C 
BRANCH  25  27
ATOM     26  C   UNL     1       9.381   3.551   2.863  0.00  0.00    +0.004 C 
ATOM     27  C   UNL     1       8.483   4.787   2.789  0.00  0.00    +0.008 C 
ENDBRANCH  25  27
ENDBRANCH  24  25
ENDBRANCH   1  24
TORSDOF 6
