REMARK  Name = ZINC16754898
REMARK  6 active torsions:
REMARK  status: ('A' for Active; 'I' for Inactive)
REMARK    1  A    between atoms: C_4  and  N_7
REMARK    2  A    between atoms: C_10  and  C_23
REMARK    3  A    between atoms: N_14  and  S_15
REMARK    4  A    between atoms: S_15  and  C_18
REMARK    5  A    between atoms: C_23  and  C_24
REMARK    6  A    between atoms: N_26  and  C_27
REMARK                            x       y       z     vdW  Elec       q    Type
REMARK                         _______ _______ _______ _____ _____    ______ ____
ROOT
ATOM      1  N   UNL     1       3.591  -0.686  -0.012  0.00  0.00    -0.217 N 
ATOM      2  C   UNL     1       3.598  -2.005   0.072  0.00  0.00    +0.239 C 
ATOM      3  O   UNL     1       2.575  -2.650   0.168  0.00  0.00    -0.274 OA
ATOM      4  C   UNL     1       4.968  -2.664   0.042  0.00  0.00    +0.149 C 
ATOM      5  S   UNL     1       6.045  -1.180  -0.112  0.00  0.00    -0.075 S 
ATOM      6  C   UNL     1       4.754   0.054  -0.128  0.00  0.00    +0.189 C 
ATOM      7  N   UNL     1       4.878   1.348  -0.224  0.00  0.00    -0.105 NA
ENDROOT
BRANCH   1  11
ATOM      8  C   UNL     1      -0.067   1.312   0.054  0.00  0.00    +0.000 A 
ATOM      9  C   UNL     1       0.803   1.500  -1.004  0.00  0.00    +0.002 A 
ATOM     10  C   UNL     1       2.016   0.840  -1.029  0.00  0.00    +0.024 A 
ATOM     11  C   UNL     1       2.361  -0.014   0.010  0.00  0.00    +0.043 A 
ATOM     12  C   UNL     1       1.486  -0.201   1.071  0.00  0.00    +0.024 A 
ATOM     13  C   UNL     1       0.274   0.462   1.090  0.00  0.00    +0.002 A 
ENDBRANCH   1  11
BRANCH   7  14
ATOM     14  S   UNL     1       6.382   2.027  -0.354  0.00  0.00    +0.107 S 
ATOM     15  O   UNL     1       7.049   1.779   0.876  0.00  0.00    -0.146 OA
ATOM     16  O   UNL     1       6.910   1.608  -1.605  0.00  0.00    -0.146 OA
BRANCH  14  17
ATOM     17  C   UNL     1       6.158   3.772  -0.462  0.00  0.00    +0.150 A 
ATOM     18  C   UNL     1       6.113   4.690   0.534  0.00  0.00    +0.037 A 
ATOM     19  C   UNL     1       5.926   6.021   0.212  0.00  0.00    +0.010 A 
ATOM     20  C   UNL     1       5.793   6.369  -1.091  0.00  0.00    +0.047 A 
ATOM     21  S   UNL     1       5.939   4.790  -1.912  0.00  0.00    -0.076 S 
ENDBRANCH  14  17
ENDBRANCH   7  14
BRANCH   4  22
ATOM     22  C   UNL     1       5.113  -3.584  -1.172  0.00  0.00    +0.120 C 
BRANCH  22  23
ATOM     23  C   UNL     1       6.432  -4.308  -1.099  0.00  0.00    +0.219 C 
ATOM     24  O   UNL     1       7.183  -4.109  -0.167  0.00  0.00    -0.275 OA
ATOM     25  N   UNL     1       6.779  -5.178  -2.068  0.00  0.00    -0.285 N 
ATOM     26  H   UNL     1       6.218  -5.277  -2.854  0.00  0.00    +0.155 HD
BRANCH  25  27
ATOM     27  C   UNL     1       7.948  -5.938  -1.942  0.00  0.00    +0.034 A 
ATOM     28  C   UNL     1       8.701  -6.247  -3.067  0.00  0.00    +0.026 A 
ATOM     29  C   UNL     1       9.854  -6.997  -2.940  0.00  0.00    +0.040 A 
ATOM     30  C   UNL     1      10.258  -7.442  -1.692  0.00  0.00    +0.124 A 
ATOM     31  C   UNL     1       9.508  -7.135  -0.569  0.00  0.00    +0.040 A 
ATOM     32  C   UNL     1       8.358  -6.380  -0.691  0.00  0.00    +0.026 A 
ATOM     33  F   UNL     1      11.386  -8.176  -1.570  0.00  0.00    -0.205 F 
ENDBRANCH  25  27
ENDBRANCH  22  23
ENDBRANCH   4  22
TORSDOF 6
