REMARK  Name = ZINC63725877
REMARK  6 active torsions:
REMARK  status: ('A' for Active; 'I' for Inactive)
REMARK    1  A    between atoms: C_1  and  C_2
REMARK    2  A    between atoms: C_2  and  C_3
REMARK    3  A    between atoms: C_2  and  C_4
REMARK    4  A    between atoms: C_2  and  N_5
REMARK    5  A    between atoms: C_12  and  C_14
REMARK    6  A    between atoms: C_15  and  C_16
REMARK                            x       y       z     vdW  Elec       q    Type
REMARK                         _______ _______ _______ _____ _____    ______ ____
ROOT
ATOM      1  N   UNL     1       0.628  -0.206  -1.123  0.00  0.00    +0.384 N 
ATOM      2  C   UNL     1       0.475  -1.634  -1.393  0.00  0.00    -0.076 C 
ATOM      3  C   UNL     1       0.405  -1.855  -2.888  0.00  0.00    +0.000 C 
ATOM      4  C   UNL     1       1.813  -2.162  -3.427  0.00  0.00    +0.106 C 
ATOM      5  N   UNL     1       2.830  -1.316  -2.769  0.00  0.00    -0.300 N 
ATOM      6  C   UNL     1       2.610   0.089  -2.495  0.00  0.00    +0.089 C 
ATOM      7  C   UNL     1       1.962   0.256  -1.101  0.00  0.00    -0.059 C 
ATOM      8  C   UNL     1       4.004  -1.872  -2.411  0.00  0.00    +0.239 C 
ATOM      9  O   UNL     1       4.176  -3.070  -2.543  0.00  0.00    -0.271 OA
ATOM     10  H   UNL     1       0.126   0.305  -1.834  0.00  0.00    -0.081 HD
ENDROOT
BRANCH   1  12
ATOM     11  C   UNL     1       0.185   1.574   0.499  0.00  0.00    -0.010 C 
ATOM     12  C   UNL     1       0.013   0.088   0.178  0.00  0.00    -0.074 C 
ATOM     13  C   UNL     1       0.692  -0.750   1.264  0.00  0.00    -0.010 C 
ATOM     14  C   UNL     1      -1.477  -0.254   0.128  0.00  0.00    -0.010 C 
ENDBRANCH   1  12
BRANCH   8  15
ATOM     15  C   UNL     1       5.037  -1.063  -1.880  0.00  0.00    +0.068 C 
ATOM     16  C   UNL     1       6.256  -1.601  -1.624  0.00  0.00    +0.020 C 
BRANCH  16  17
ATOM     17  C   UNL     1       7.289  -0.792  -1.093  0.00  0.00    +0.012 A 
ATOM     18  C   UNL     1       8.595  -1.140  -0.768  0.00  0.00    +0.015 A 
ATOM     19  C   UNL     1       9.374  -0.125  -0.266  0.00  0.00    +0.008 A 
ATOM     20  C   UNL     1       8.835   1.111  -0.124  0.00  0.00    +0.046 A 
ATOM     21  S   UNL     1       7.257   0.941  -0.674  0.00  0.00    -0.097 S 
ENDBRANCH  16  17
ENDBRANCH   8  15
TORSDOF 3
