REMARK  Name = ZINC01978766
REMARK  6 active torsions:
REMARK  status: ('A' for Active; 'I' for Inactive)
REMARK    1  A    between atoms: C_9  and  O_19
REMARK    2  A    between atoms: C_10  and  C_12
REMARK    3  A    between atoms: O_19  and  C_20
REMARK    4  A    between atoms: C_20  and  C_21
REMARK    5  A    between atoms: N_23  and  C_24
REMARK    6  A    between atoms: C_25  and  C_33
REMARK                            x       y       z     vdW  Elec       q    Type
REMARK                         _______ _______ _______ _____ _____    ______ ____
ROOT
ATOM      1  C   UNL     1      -1.244   1.766  -0.176  0.00  0.00    +0.001 A 
ATOM      2  C   UNL     1      -0.038   1.104  -0.359  0.00  0.00    +0.004 A 
ATOM      3  C   UNL     1       1.153   1.799  -0.362  0.00  0.00    +0.047 A 
ATOM      4  C   UNL     1       1.152   3.177  -0.176  0.00  0.00    +0.140 A 
ATOM      5  C   UNL     1      -0.068   3.844   0.015  0.00  0.00    +0.068 A 
ATOM      6  C   UNL     1      -1.266   3.130   0.016  0.00  0.00    +0.015 A 
ATOM      7  C   UNL     1      -0.048   5.306   0.211  0.00  0.00    +0.235 A 
ATOM      8  O   UNL     1      -1.078   5.938   0.380  0.00  0.00    -0.283 OA
ATOM      9  C   UNL     1       1.217   5.949   0.194  0.00  0.00    +0.211 A 
ATOM     10  C   UNL     1       2.343   5.205   0.001  0.00  0.00    +0.181 A 
ATOM     11  O   UNL     1       2.307   3.874  -0.175  0.00  0.00    -0.451 OA
ENDROOT
BRANCH  10  12
ATOM     12  C   UNL     1       3.651   5.888  -0.013  0.00  0.00    +0.021 A 
ATOM     13  C   UNL     1       3.835   7.034  -0.791  0.00  0.00    +0.013 A 
ATOM     14  C   UNL     1       5.058   7.670  -0.797  0.00  0.00    +0.021 A 
ATOM     15  C   UNL     1       6.106   7.170  -0.042  0.00  0.00    +0.041 A 
ATOM     16  C   UNL     1       5.931   6.031   0.728  0.00  0.00    +0.021 A 
ATOM     17  C   UNL     1       4.712   5.388   0.747  0.00  0.00    +0.013 A 
ATOM     18 CL   UNL     1       7.645   7.973  -0.059  0.00  0.00    -0.084 Cl
ENDBRANCH  10  12
BRANCH   9  19
ATOM     19  O   UNL     1       1.305   7.295   0.370  0.00  0.00    -0.476 OA
BRANCH  19  20
ATOM     20  C   UNL     1       1.334   7.773   1.716  0.00  0.00    +0.325 C 
BRANCH  20  21
ATOM     21  C   UNL     1       1.433   9.277   1.713  0.00  0.00    +0.255 C 
ATOM     22  O   UNL     1       1.474   9.880   0.661  0.00  0.00    -0.272 OA
ATOM     23  N   UNL     1       1.476   9.952   2.879  0.00  0.00    -0.276 N 
ATOM     24  H   UNL     1       1.443   9.469   3.720  0.00  0.00    +0.155 HD
BRANCH  23  25
ATOM     25  C   UNL     1       1.567  11.337   2.876  0.00  0.00    +0.090 A 
ATOM     26  C   UNL     1       1.616  12.199   3.961  0.00  0.00    +0.084 A 
ATOM     27  C   UNL     1       1.715  13.622   3.685  0.00  0.00    -0.018 A 
ATOM     28  C   UNL     1       1.738  13.953   2.375  0.00  0.00    -0.004 A 
ATOM     29  S   UNL     1       1.639  12.408   1.516  0.00  0.00    -0.077 S 
ATOM     30  C   UNL     1       1.828  15.330   1.793  0.00  0.00    +0.043 C 
ATOM     31  C   UNL     1       1.514  16.345   2.902  0.00  0.00    +0.005 C 
ATOM     32  C   UNL     1       2.327  15.982   4.148  0.00  0.00    +0.005 C 
ATOM     33  C   UNL     1       1.785  14.693   4.766  0.00  0.00    +0.037 C 
BRANCH  26  34
ATOM     34  C   UNL     1       1.575  11.705   5.304  0.00  0.00    +0.102 C 
ATOM     35  N   UNL     1       1.543  11.313   6.370  0.00  0.00    -0.191 NA
ENDBRANCH  26  34
ENDBRANCH  23  25
ENDBRANCH  20  21
ENDBRANCH  19  20
ENDBRANCH   9  19
TORSDOF 6
