REMARK  Name = ZINC30763425
REMARK  9 active torsions:
REMARK  status: ('A' for Active; 'I' for Inactive)
REMARK    1  A    between atoms: C_1  and  C_2
REMARK    2  A    between atoms: C_5  and  C_29
REMARK    3  A    between atoms: C_6  and  C_8
REMARK    4  A    between atoms: C_8  and  C_10
REMARK    5  A    between atoms: C_8  and  N_11
REMARK    6  A    between atoms: C_12  and  C_14
REMARK    7  A    between atoms: C_14  and  N_15
REMARK    8  A    between atoms: C_18  and  C_22
REMARK    9  A    between atoms: C_18  and  C_23
REMARK                            x       y       z     vdW  Elec       q    Type
REMARK                         _______ _______ _______ _____ _____    ______ ____
ROOT
ATOM      1  C   UNL     1      -1.695  -1.750   5.713  0.00  0.00    +0.213 C 
ENDROOT
BRANCH   1   2
ATOM      2  N   UNL     1      -2.226  -2.614   6.771  0.00  0.00    -0.215 N 
ATOM      3  C   UNL     1      -3.483  -3.099   6.792  0.00  0.00    +0.251 C 
ATOM      4  O   UNL     1      -4.355  -2.910   5.971  0.00  0.00    -0.272 OA
ATOM      5  C   UNL     1      -3.579  -3.932   8.056  0.00  0.00    +0.135 C 
ATOM      6  N   UNL     1      -2.240  -3.807   8.656  0.00  0.00    -0.281 N 
ATOM      7  C   UNL     1      -1.520  -3.024   7.831  0.00  0.00    +0.310 C 
ATOM      8  O   UNL     1      -0.360  -2.720   8.030  0.00  0.00    -0.252 OA
ATOM      9  C   UNL     1      -4.645  -3.362   8.995  0.00  0.00    +0.047 C 
ATOM     10  H   UNL     1      -1.935  -4.213   9.482  0.00  0.00    +0.152 HD
BRANCH   5  11
ATOM     11  C   UNL     1      -3.879  -5.370   7.721  0.00  0.00    -0.016 A 
ATOM     12  C   UNL     1      -4.605  -5.679   6.587  0.00  0.00    +0.006 A 
ATOM     13  C   UNL     1      -4.880  -6.999   6.280  0.00  0.00    +0.000 A 
ATOM     14  C   UNL     1      -4.428  -8.009   7.108  0.00  0.00    +0.000 A 
ATOM     15  C   UNL     1      -3.701  -7.700   8.243  0.00  0.00    +0.000 A 
ATOM     16  C   UNL     1      -3.423  -6.381   8.547  0.00  0.00    +0.006 A 
ENDBRANCH   5  11
ENDBRANCH   1   2
BRANCH   1  18
ATOM     17  N   UNL     1      -0.535  -2.018   3.545  0.00  0.00    -0.307 N 
ATOM     18  C   UNL     1      -1.089  -2.601   4.627  0.00  0.00    +0.231 C 
ATOM     19  O   UNL     1      -1.099  -3.809   4.726  0.00  0.00    -0.274 OA
ATOM     20  H   UNL     1      -0.527  -1.051   3.466  0.00  0.00    +0.149 HD
BRANCH  17  21
ATOM     21  C   UNL     1       0.054  -2.845   2.489  0.00  0.00    +0.100 C 
ATOM     22  C   UNL     1       1.497  -3.192   2.858  0.00  0.00    +0.033 C 
BRANCH  21  28
ATOM     23  C   UNL     1      -0.018   1.503   0.010  0.00  0.00    +0.044 C 
ATOM     24  C   UNL     1       0.002  -0.004   0.002  0.00  0.00    -0.050 A 
ATOM     25  C   UNL     1       0.006  -0.689  -1.199  0.00  0.00    +0.003 A 
ATOM     26  C   UNL     1       0.025  -2.071  -1.207  0.00  0.00    +0.004 A 
ATOM     27  C   UNL     1       0.040  -2.768  -0.013  0.00  0.00    -0.046 A 
ATOM     28  C   UNL     1       0.037  -2.084   1.188  0.00  0.00    -0.024 A 
ATOM     29  C   UNL     1       0.023  -0.702   1.195  0.00  0.00    +0.009 A 
ATOM     30  C   UNL     1       0.059  -4.275  -0.021  0.00  0.00    +0.044 C 
ENDBRANCH  21  28
ENDBRANCH  17  21
ENDBRANCH   1  18
TORSDOF 5
