REMARK  Name = ZINC31934522
REMARK  7 active torsions:
REMARK  status: ('A' for Active; 'I' for Inactive)
REMARK    1  A    between atoms: C_1  and  C_2
REMARK    2  A    between atoms: C_2  and  C_3
REMARK    3  A    between atoms: C_3  and  C_5
REMARK    4  A    between atoms: C_3  and  N_6
REMARK    5  A    between atoms: N_6  and  C_7
REMARK    6  A    between atoms: C_7  and  C_8
REMARK    7  A    between atoms: C_20  and  C_24
REMARK                            x       y       z     vdW  Elec       q    Type
REMARK                         _______ _______ _______ _____ _____    ______ ____
ROOT
ATOM      1  C   UNL     1       0.933  -4.246  -2.935  0.00  0.00    +0.094 A 
ATOM      2  N   UNL     1       0.064  -4.062  -1.911  0.00  0.00    -0.312 N 
ATOM      3  H   UNL     1      -0.584  -4.888  -1.585  0.00  0.00    +0.170 HD
ATOM      4  C   UNL     1      -0.057  -2.888  -1.247  0.00  0.00    +0.260 A 
ATOM      5  O   UNL     1      -0.845  -2.741  -0.329  0.00  0.00    -0.267 OA
ATOM      6  C   UNL     1       0.802  -1.828  -1.694  0.00  0.00    +0.075 A 
ATOM      7  C   UNL     1       0.873  -0.481  -1.157  0.00  0.00    -0.023 A 
ATOM      8  C   UNL     1       1.763   0.357  -1.738  0.00  0.00    -0.004 A 
ATOM      9  S   UNL     1       2.540  -0.601  -3.015  0.00  0.00    -0.073 S 
ATOM     10  C   UNL     1       1.673  -2.118  -2.768  0.00  0.00    +0.116 A 
ATOM     11  N   UNL     1       1.735  -3.301  -3.372  0.00  0.00    -0.229 NA
ATOM     12  C   UNL     1       2.034   1.785  -1.377  0.00  0.00    +0.046 C 
ATOM     13  C   UNL     1       1.414   2.064  -0.000  0.00  0.00    -0.009 C 
ATOM     14  C   UNL     1      -0.019   1.524   0.010  0.00  0.00    +0.008 C 
ATOM     15  C   UNL     1       0.002  -0.004   0.002  0.00  0.00    +0.037 C 
ATOM     16  C   UNL     1       1.397   3.572   0.259  0.00  0.00    +0.008 C 
ENDROOT
BRANCH   1  17
ATOM     17  C   UNL     1       0.983  -5.597  -3.601  0.00  0.00    -0.007 C 
BRANCH  17  18
ATOM     18  N   UNL     1       1.985  -5.576  -4.675  0.00  0.00    +0.385 N 
ATOM     19  H   UNL     1       2.965  -5.331  -4.239  0.00  0.00    -0.085 HD
ATOM     20  H   UNL     1       1.704  -4.802  -5.404  0.00  0.00    -0.085 HD
BRANCH  18  21
ATOM     21  C   UNL     1       2.062  -6.879  -5.349  0.00  0.00    -0.075 C 
ATOM     22  C   UNL     1       0.991  -6.954  -6.439  0.00  0.00    -0.014 C 
BRANCH  21  24
ATOM     23  C   UNL     1       4.506  -7.097  -4.879  0.00  0.00    +0.002 C 
ATOM     24  C   UNL     1       3.445  -7.046  -5.981  0.00  0.00    -0.019 C 
ENDBRANCH  21  24
ENDBRANCH  18  21
ENDBRANCH  17  18
ENDBRANCH   1  17
TORSDOF 4
