REMARK  Name = ZINC43741004
REMARK  7 active torsions:
REMARK  status: ('A' for Active; 'I' for Inactive)
REMARK    1  A    between atoms: C_1  and  C_2
REMARK    2  A    between atoms: C_17  and  C_36
REMARK    3  A    between atoms: C_22  and  C_23
REMARK    4  A    between atoms: C_22  and  O_35
REMARK    5  A    between atoms: C_23  and  N_24
REMARK    6  A    between atoms: C_25  and  C_26
REMARK    7  A    between atoms: C_31  and  O_32
REMARK                            x       y       z     vdW  Elec       q    Type
REMARK                         _______ _______ _______ _____ _____    ______ ____
ROOT
ATOM      1  C   UNL     1       0.144   1.484   0.465  0.00  0.00    +0.012 C 
ATOM      2  C   UNL     1       0.086  -0.037   0.281  0.00  0.00    -0.026 C 
ATOM      3  C   UNL     1       0.791  -0.400  -1.030  0.00  0.00    +0.007 C 
ATOM      4  C   UNL     1       2.265   0.001  -0.969  0.00  0.00    +0.001 C 
ATOM      5  C   UNL     1       2.951  -0.701   0.203  0.00  0.00    +0.000 C 
ATOM      6  C   UNL     1       2.250  -0.340   1.514  0.00  0.00    +0.004 C 
ATOM      7  C   UNL     1       0.779  -0.745   1.437  0.00  0.00    -0.005 C 
ATOM      8  C   UNL     1       0.071  -0.416   2.750  0.00  0.00    +0.004 C 
ATOM      9  C   UNL     1      -1.370  -0.908   2.664  0.00  0.00    +0.004 C 
ATOM     10  C   UNL     1      -2.122  -0.230   1.506  0.00  0.00    -0.004 C 
ATOM     11  C   UNL     1      -1.388  -0.443   0.192  0.00  0.00    -0.001 C 
ATOM     12  C   UNL     1      -1.542  -1.845  -0.363  0.00  0.00    +0.005 C 
ATOM     13  C   UNL     1      -3.001  -2.302  -0.496  0.00  0.00    +0.010 C 
ATOM     14  C   UNL     1      -3.949  -1.280   0.062  0.00  0.00    +0.001 C 
ATOM     15  C   UNL     1      -3.503  -0.848   1.469  0.00  0.00    +0.001 C 
ATOM     16  C   UNL     1      -4.668   0.050   1.911  0.00  0.00    +0.007 C 
ATOM     17  C   UNL     1      -5.914  -0.699   1.364  0.00  0.00    +0.037 C 
ATOM     18  C   UNL     1      -5.388  -1.754   0.354  0.00  0.00    +0.089 C 
ATOM     19  C   UNL     1      -4.109  -0.094  -0.899  0.00  0.00    +0.014 C 
ENDROOT
BRANCH  18  20
ATOM     20  O   UNL     1      -6.157  -1.713  -0.848  0.00  0.00    -0.386 OA
ATOM     21  H   UNL     1      -7.074  -1.999  -0.737  0.00  0.00    +0.210 HD
ENDBRANCH  18  20
BRANCH  18  22
ATOM     22  C   UNL     1      -5.423  -3.144   0.972  0.00  0.00    +0.147 C 
BRANCH  22  23
ATOM     23  N   UNL     1      -6.813  -3.532   1.223  0.00  0.00    -0.387 N 
ATOM     24  C   UNL     1      -7.332  -4.529   0.582  0.00  0.00    +0.090 C 
ATOM     25  H   UNL     1      -7.344  -3.042   1.870  0.00  0.00    +0.159 HD
BRANCH  24  26
ATOM     26  C   UNL     1      -8.770  -4.824   0.718  0.00  0.00    +0.035 A 
ATOM     27  C   UNL     1      -9.311  -5.969   0.128  0.00  0.00    +0.033 A 
ATOM     28  C   UNL     1     -10.656  -6.240   0.259  0.00  0.00    +0.043 A 
ATOM     29  C   UNL     1     -11.476  -5.381   0.974  0.00  0.00    +0.043 A 
ATOM     30  C   UNL     1     -10.953  -4.245   1.562  0.00  0.00    +0.084 A 
ATOM     31  C   UNL     1      -9.600  -3.961   1.445  0.00  0.00    +0.144 A 
ATOM     32 CL   UNL     1     -11.989  -3.176   2.455  0.00  0.00    -0.080 Cl
ATOM     33 CL   UNL     1     -11.327  -7.663  -0.476  0.00  0.00    -0.083 Cl
BRANCH  31  34
ATOM     34  O   UNL     1      -9.084  -2.849   2.028  0.00  0.00    -0.505 OA
ATOM     35  H   UNL     1      -9.099  -2.065   1.461  0.00  0.00    +0.292 HD
ENDBRANCH  31  34
ENDBRANCH  24  26
ENDBRANCH  22  23
ENDBRANCH  18  22
TORSDOF 5
