REMARK  Name = ZINC39631900
REMARK  16 active torsions:
REMARK  status: ('A' for Active; 'I' for Inactive)
REMARK    1  A    between atoms: C_1  and  C_2
REMARK    2  A    between atoms: C_2  and  C_3
REMARK    3  A    between atoms: C_3  and  C_4
REMARK    4  A    between atoms: C_4  and  C_5
REMARK    5  A    between atoms: C_5  and  C_7
REMARK    6  A    between atoms: C_5  and  C_8
REMARK    7  A    between atoms: C_12  and  C_21
REMARK    8  A    between atoms: N_23  and  C_24
REMARK    9  A    between atoms: C_24  and  C_26
REMARK   10  A    between atoms: C_24  and  C_27
REMARK   11  A    between atoms: C_27  and  C_28
REMARK   12  A    between atoms: C_28  and  C_29
REMARK   13  A    between atoms: C_29  and  C_30
REMARK   14  A    between atoms: C_30  and  C_31
REMARK   15  A    between atoms: C_30  and  C_32
REMARK   16  A    between atoms: C_30  and  O_33
REMARK                            x       y       z     vdW  Elec       q    Type
REMARK                         _______ _______ _______ _____ _____    ______ ____
ROOT
ATOM      1  C   UNL     1       1.863  -4.242   2.449  0.00  0.00    +0.218 C 
ATOM      2  O   UNL     1       1.577  -4.905   1.474  0.00  0.00    -0.275 OA
ATOM      3  N   UNL     1       2.333  -4.845   3.559  0.00  0.00    -0.300 N 
ATOM      4  C   UNL     1       2.631  -4.226   4.872  0.00  0.00    +0.121 C 
ATOM      5  C   UNL     1       2.152  -5.264   5.911  0.00  0.00    +0.100 C 
ATOM      6  C   UNL     1       2.181  -6.609   5.164  0.00  0.00    -0.004 C 
ATOM      7  C   UNL     1       2.664  -6.279   3.744  0.00  0.00    +0.115 C 
ATOM      8  C   UNL     1       3.153  -7.569   5.843  0.00  0.00    -0.010 C 
ATOM      9  C   UNL     1       3.121  -8.917   5.118  0.00  0.00    -0.082 C 
ATOM     10  N   UNL     1       1.759  -9.462   5.153  0.00  0.00    +0.379 N 
ATOM     11  C   UNL     1       0.847  -8.578   4.417  0.00  0.00    -0.082 C 
ATOM     12  C   UNL     1       0.782  -7.215   5.113  0.00  0.00    -0.010 C 
ATOM     13  H   UNL     1       1.753 -10.377   4.728  0.00  0.00    -0.086 HD
ATOM     14  H   UNL     1       1.452  -9.537   6.111  0.00  0.00    -0.086 HD
ENDROOT
BRANCH   5  15
ATOM     15  C   UNL     1       3.089  -5.296   7.091  0.00  0.00    +0.218 C 
ATOM     16  O   UNL     1       4.264  -5.037   6.940  0.00  0.00    -0.275 OA
ATOM     17  N   UNL     1       2.621  -5.613   8.315  0.00  0.00    -0.312 N 
ATOM     18  H   UNL     1       1.681  -5.821   8.435  0.00  0.00    +0.149 HD
BRANCH  17  19
ATOM     19  C   UNL     1       3.531  -5.644   9.462  0.00  0.00    +0.070 C 
ATOM     20  C   UNL     1       3.670  -4.235  10.041  0.00  0.00    +0.028 C 
BRANCH  19  21
ATOM     21  C   UNL     1       2.971  -6.582  10.532  0.00  0.00    +0.022 C 
BRANCH  21  22
ATOM     22  C   UNL     1       2.949  -8.015   9.994  0.00  0.00    +0.005 C 
BRANCH  22  23
ATOM     23  C   UNL     1       2.388  -8.953  11.065  0.00  0.00    +0.034 C 
BRANCH  23  24
ATOM     24  C   UNL     1       2.366 -10.385  10.527  0.00  0.00    +0.061 C 
ATOM     25  C   UNL     1       1.692 -11.303  11.548  0.00  0.00    +0.041 C 
ATOM     26  C   UNL     1       1.585 -10.424   9.212  0.00  0.00    +0.041 C 
BRANCH  24  27
ATOM     27  O   UNL     1       3.705 -10.829  10.299  0.00  0.00    -0.389 OA
ATOM     28  H   UNL     1       4.260 -10.830  11.091  0.00  0.00    +0.210 HD
ENDBRANCH  24  27
ENDBRANCH  23  24
ENDBRANCH  22  23
ENDBRANCH  21  22
ENDBRANCH  19  21
ENDBRANCH  17  19
ENDBRANCH   5  15
BRANCH   1  29
ATOM     29  C   UNL     1       1.694  -2.745   2.419  0.00  0.00    +0.072 C 
ATOM     30  C   UNL     1       0.283  -2.382   2.889  0.00  0.00    +0.017 C 
BRANCH  29  31
ATOM     31  C   UNL     1       1.902  -2.237   0.991  0.00  0.00    +0.012 C 
BRANCH  31  32
ATOM     32  C   UNL     1       1.853  -0.708   0.981  0.00  0.00    +0.000 C 
BRANCH  32  34
ATOM     33  C   UNL     1       2.013   1.329  -0.456  0.00  0.00    +0.004 C 
ATOM     34  C   UNL     1       2.061  -0.200  -0.447  0.00  0.00    -0.003 C 
ENDBRANCH  32  34
ENDBRANCH  31  32
ENDBRANCH  29  31
ENDBRANCH   1  29
TORSDOF 11
