REMARK  Name = ZINC10690793
REMARK  10 active torsions:
REMARK  status: ('A' for Active; 'I' for Inactive)
REMARK    1  A    between atoms: C_1  and  C_2
REMARK    2  A    between atoms: C_2  and  C_32
REMARK    3  A    between atoms: N_5  and  C_9
REMARK    4  A    between atoms: C_9  and  C_10
REMARK    5  A    between atoms: N_12  and  C_13
REMARK    6  A    between atoms: C_13  and  C_14
REMARK    7  A    between atoms: C_14  and  C_16
REMARK    8  A    between atoms: C_14  and  C_22
REMARK    9  A    between atoms: C_35  and  O_38
REMARK   10  A    between atoms: O_38  and  C_39
REMARK                            x       y       z     vdW  Elec       q    Type
REMARK                         _______ _______ _______ _____ _____    ______ ____
ROOT
ATOM      1  C   UNL     1      -4.640  -0.664   2.353  0.00  0.00    +0.231 C 
ATOM      2  O   UNL     1      -3.871  -1.031   3.217  0.00  0.00    -0.274 OA
ATOM      3  N   UNL     1      -4.195   0.096   1.333  0.00  0.00    -0.313 N 
ATOM      4  H   UNL     1      -4.811   0.389   0.642  0.00  0.00    +0.149 HD
ENDROOT
BRANCH   1   5
ATOM      5  C   UNL     1      -6.093  -1.060   2.421  0.00  0.00    +0.213 C 
BRANCH   5  10
ATOM      6  C   UNL     1      -8.217  -2.693   6.279  0.00  0.00    +0.047 C 
ATOM      7  C   UNL     1      -6.790  -2.581   5.737  0.00  0.00    +0.135 C 
ATOM      8  C   UNL     1      -6.662  -1.381   4.820  0.00  0.00    +0.251 C 
ATOM      9  O   UNL     1      -6.829  -0.216   5.111  0.00  0.00    -0.272 OA
ATOM     10  N   UNL     1      -6.321  -1.878   3.615  0.00  0.00    -0.215 N 
ATOM     11  C   UNL     1      -6.223  -3.212   3.641  0.00  0.00    +0.310 C 
ATOM     12  O   UNL     1      -5.931  -3.887   2.673  0.00  0.00    -0.252 OA
ATOM     13  N   UNL     1      -6.478  -3.722   4.859  0.00  0.00    -0.281 N 
ATOM     14  H   UNL     1      -6.463  -4.659   5.110  0.00  0.00    +0.152 HD
BRANCH   7  15
ATOM     15  C   UNL     1      -5.797  -2.494   6.867  0.00  0.00    -0.015 A 
ATOM     16  C   UNL     1      -5.389  -1.258   7.333  0.00  0.00    +0.010 A 
ATOM     17  C   UNL     1      -4.483  -1.175   8.373  0.00  0.00    +0.046 A 
ATOM     18  C   UNL     1      -3.974  -2.334   8.941  0.00  0.00    +0.120 A 
ATOM     19  C   UNL     1      -4.380  -3.573   8.468  0.00  0.00    +0.046 A 
ATOM     20  C   UNL     1      -5.291  -3.650   7.432  0.00  0.00    +0.010 A 
BRANCH  18  21
ATOM     21  O   UNL     1      -3.078  -2.255   9.960  0.00  0.00    -0.495 OA
ATOM     22  C   UNL     1      -2.704  -0.946  10.396  0.00  0.00    +0.277 C 
ENDBRANCH  18  21
ENDBRANCH   7  15
ENDBRANCH   5  10
ENDBRANCH   1   5
BRANCH   3  23
ATOM     23  C   UNL     1      -2.783   0.480   1.267  0.00  0.00    +0.117 C 
BRANCH  23  24
ATOM     24  C   UNL     1      -2.545   1.335   0.021  0.00  0.00    +0.068 C 
BRANCH  24  25
ATOM     25  C   UNL     1      -1.122   1.831   0.017  0.00  0.00    -0.013 A 
ATOM     26  C   UNL     1      -0.013   1.076   0.008  0.00  0.00    +0.088 A 
ATOM     27  N   UNL     1       1.097   1.876   0.002  0.00  0.00    -0.360 N 
ATOM     28  H   UNL     1       2.014   1.559  -0.009  0.00  0.00    +0.165 HD
ATOM     29  C   UNL     1       0.719   3.200   0.012  0.00  0.00    +0.047 A 
ATOM     30  C   UNL     1      -0.688   3.230   0.025  0.00  0.00    +0.003 A 
ATOM     31  C   UNL     1      -1.358   4.455   0.038  0.00  0.00    +0.010 A 
ATOM     32  C   UNL     1      -0.644   5.620   0.037  0.00  0.00    +0.001 A 
ATOM     33  C   UNL     1       0.744   5.595   0.024  0.00  0.00    +0.002 A 
ATOM     34  C   UNL     1       1.426   4.398   0.011  0.00  0.00    +0.026 A 
ENDBRANCH  24  25
BRANCH  24  35
ATOM     35  C   UNL     1      -2.790   0.504  -1.213  0.00  0.00    -0.038 A 
ATOM     36  C   UNL     1      -2.036  -0.631  -1.443  0.00  0.00    +0.004 A 
ATOM     37  C   UNL     1      -2.264  -1.395  -2.572  0.00  0.00    +0.000 A 
ATOM     38  C   UNL     1      -3.240  -1.020  -3.475  0.00  0.00    +0.000 A 
ATOM     39  C   UNL     1      -3.991   0.119  -3.248  0.00  0.00    +0.000 A 
ATOM     40  C   UNL     1      -3.766   0.880  -2.117  0.00  0.00    +0.004 A 
ENDBRANCH  24  35
ENDBRANCH  23  24
ENDBRANCH   3  23
TORSDOF 8
