REMARK  Name = ZINC36617102
REMARK  7 active torsions:
REMARK  status: ('A' for Active; 'I' for Inactive)
REMARK    1  A    between atoms: C_1  and  C_2
REMARK    2  A    between atoms: C_2  and  C_3
REMARK    3  A    between atoms: C_6  and  C_9
REMARK    4  A    between atoms: C_11  and  C_24
REMARK    5  A    between atoms: N_15  and  C_21
REMARK    6  A    between atoms: C_21  and  C_22
REMARK    7  A    between atoms: C_21  and  C_23
REMARK                            x       y       z     vdW  Elec       q    Type
REMARK                         _______ _______ _______ _____ _____    ______ ____
ROOT
ATOM      1  C   UNL     1       2.760  -2.400   4.760  0.00  0.00    +0.074 A 
ATOM      2  C   UNL     1       2.108  -2.602   5.978  0.00  0.00    +0.041 A 
ATOM      3  C   UNL     1       2.857  -2.833   7.116  0.00  0.00    +0.073 A 
ATOM      4  C   UNL     1       4.247  -2.855   6.994  0.00  0.00    +0.093 A 
ATOM      5  C   UNL     1       4.840  -2.644   5.734  0.00  0.00    +0.149 A 
ATOM      6  N   UNL     1       4.084  -2.432   4.672  0.00  0.00    -0.229 NA
ATOM      7  N   UNL     1       6.220  -2.671   5.641  0.00  0.00    -0.303 N 
ATOM      8  C   UNL     1       6.978  -2.894   6.728  0.00  0.00    +0.162 A 
ATOM      9  N   UNL     1       6.460  -3.100   7.949  0.00  0.00    -0.302 N 
ATOM     10  C   UNL     1       5.124  -3.094   8.151  0.00  0.00    +0.262 A 
ATOM     11  O   UNL     1       4.659  -3.281   9.259  0.00  0.00    -0.267 OA
ATOM     12  S   UNL     1       8.680  -2.917   6.547  0.00  0.00    -0.013 S 
ATOM     13  H   UNL     1       7.055  -3.256   8.699  0.00  0.00    +0.171 HD
ENDROOT
BRANCH   1  17
ATOM     14  C   UNL     1       0.456  -1.692   1.258  0.00  0.00    -0.048 A 
ATOM     15  C   UNL     1       1.837  -1.726   1.179  0.00  0.00    +0.004 A 
ATOM     16  C   UNL     1       2.590  -1.956   2.312  0.00  0.00    +0.010 A 
ATOM     17  C   UNL     1       1.956  -2.153   3.538  0.00  0.00    +0.000 A 
ATOM     18  C   UNL     1       0.565  -2.117   3.612  0.00  0.00    +0.010 A 
ATOM     19  C   UNL     1      -0.178  -1.882   2.472  0.00  0.00    +0.004 A 
BRANCH  14  21
ATOM     20  C   UNL     1      -0.581   0.063  -0.153  0.00  0.00    +0.009 C 
ATOM     21  C   UNL     1      -0.360  -1.441   0.016  0.00  0.00    +0.032 C 
ENDBRANCH  14  21
ENDBRANCH   1  17
BRANCH   3  22
ATOM     22  C   UNL     1       2.191  -3.054   8.450  0.00  0.00    +0.418 C 
ATOM     23  F   UNL     1       0.803  -2.982   8.297  0.00  0.00    -0.166 F 
ATOM     24  F   UNL     1       2.541  -4.316   8.942  0.00  0.00    -0.166 F 
ATOM     25  F   UNL     1       2.613  -2.070   9.351  0.00  0.00    -0.166 F 
ENDBRANCH   3  22
BRANCH   7  26
ATOM     26  C   UNL     1       6.863  -2.455   4.343  0.00  0.00    +0.085 C 
ATOM     27  C   UNL     1       6.378  -3.515   3.351  0.00  0.00    +0.030 C 
ATOM     28  C   UNL     1       6.500  -1.064   3.820  0.00  0.00    +0.030 C 
ENDBRANCH   7  26
TORSDOF 4
