REMARK  Name = ZINC03339730
REMARK  12 active torsions:
REMARK  status: ('A' for Active; 'I' for Inactive)
REMARK    1  A    between atoms: C_1  and  C_2
REMARK    2  A    between atoms: C_2  and  O_3
REMARK    3  A    between atoms: O_3  and  C_4
REMARK    4  A    between atoms: C_4  and  C_6
REMARK    5  A    between atoms: C_10  and  N_11
REMARK    6  A    between atoms: C_12  and  C_14
REMARK    7  A    between atoms: C_14  and  N_58
REMARK    8  A    between atoms: C_15  and  N_58
REMARK    9  A    between atoms: C_20  and  C_25
REMARK   10  A    between atoms: C_20  and  C_26
REMARK   11  A    between atoms: C_21  and  C_23
REMARK   12  A    between atoms: C_21  and  C_24
REMARK                            x       y       z     vdW  Elec       q    Type
REMARK                         _______ _______ _______ _____ _____    ______ ____
ROOT
ATOM      1  C   UNL     1       9.289   2.727   1.499  0.00  0.00    +0.091 A 
ATOM      2  C   UNL     1      10.558   2.581   0.819  0.00  0.00    -0.024 A 
ATOM      3  C   UNL     1      10.520   1.898  -0.349  0.00  0.00    -0.016 A 
ATOM      4  S   UNL     1       8.822   1.444  -0.545  0.00  0.00    -0.079 S 
ATOM      5  C   UNL     1       8.173   2.154   0.896  0.00  0.00    +0.086 A 
ATOM      6  C   UNL     1      11.677   1.615  -1.251  0.00  0.00    -0.041 C 
ATOM      7  C   UNL     1      12.985   2.154   0.807  0.00  0.00    -0.069 C 
ATOM      8  C   UNL     1      11.899   3.116   1.303  0.00  0.00    +0.024 C 
ATOM      9  C   UNL     1      12.834   0.810   1.525  0.00  0.00    -0.010 C 
ATOM     10  C   UNL     1      14.353   2.746   1.196  0.00  0.00    -0.010 C 
ATOM     11  C   UNL     1      11.677   0.126  -1.625  0.00  0.00    -0.005 C 
ATOM     12  C   UNL     1      11.492   2.430  -2.546  0.00  0.00    -0.005 C 
ATOM     13  N   UNL     1      12.997   1.991  -0.669  0.00  0.00    +0.389 N 
ATOM     14  H   UNL     1      13.294   2.879  -1.090  0.00  0.00    -0.084 HD
ATOM     15  H   UNL     1      13.675   1.257  -0.907  0.00  0.00    -0.084 HD
ENDROOT
BRANCH   5  16
ATOM     16  N   UNL     1       6.861   2.153   1.343  0.00  0.00    -0.281 N 
ATOM     17  C   UNL     1       5.903   1.541   0.619  0.00  0.00    +0.201 C 
ATOM     18  O   UNL     1       6.189   0.991  -0.424  0.00  0.00    -0.278 OA
ATOM     19  H   UNL     1       6.632   2.593   2.176  0.00  0.00    +0.155 HD
BRANCH  17  20
ATOM     20  C   UNL     1       4.477   1.540   1.104  0.00  0.00    +0.016 C 
BRANCH  20  21
ATOM     21  N   UNL     1       3.637   0.809   0.136  0.00  0.00    +0.387 N 
ATOM     22  H   UNL     1       3.978  -0.156   0.053  0.00  0.00    -0.085 HD
ATOM     23  H   UNL     1       3.694   1.272  -0.779  0.00  0.00    -0.085 HD
BRANCH  21  24
ATOM     24  C   UNL     1       2.232   0.792   0.586  0.00  0.00    -0.071 C 
ATOM     25  C   UNL     1       1.453   1.995  -0.001  0.00  0.00    -0.016 C 
ATOM     26  C   UNL     1      -0.019   1.534   0.011  0.00  0.00    -0.002 C 
ATOM     27  C   UNL     1       0.002  -0.004   0.002  0.00  0.00    -0.002 C 
ATOM     28  C   UNL     1       1.486  -0.425  -0.014  0.00  0.00    -0.016 C 
ENDBRANCH  21  24
ENDBRANCH  20  21
ENDBRANCH  17  20
ENDBRANCH   5  16
BRANCH   1  29
ATOM     29  C   UNL     1       9.169   3.447   2.769  0.00  0.00    +0.342 C 
ATOM     30  O   UNL     1       9.297   2.850   3.821  0.00  0.00    -0.245 OA
BRANCH  29  31
ATOM     31  O   UNL     1       8.918   4.772   2.771  0.00  0.00    -0.461 OA
BRANCH  31  33
ATOM     32  C   UNL     1       8.527   6.911   3.869  0.00  0.00    +0.048 C 
ATOM     33  C   UNL     1       8.813   5.421   4.066  0.00  0.00    +0.229 C 
ENDBRANCH  31  33
ENDBRANCH  29  31
ENDBRANCH   1  29
TORSDOF 7
