REMARK  Name = ZINC04953312
REMARK  5 active torsions:
REMARK  status: ('A' for Active; 'I' for Inactive)
REMARK    1  A    between atoms: C_1  and  C_2
REMARK    2  A    between atoms: C_7  and  N_8
REMARK    3  A    between atoms: C_9  and  C_11
REMARK    4  A    between atoms: C_12  and  C_26
REMARK    5  A    between atoms: C_17  and  C_19
REMARK                            x       y       z     vdW  Elec       q    Type
REMARK                         _______ _______ _______ _____ _____    ______ ____
ROOT
ATOM      1  C   UNL     1       3.683  -1.274   0.227  0.00  0.00    +0.056 C 
ATOM      2  C   UNL     1       3.788  -2.615   0.113  0.00  0.00    +0.019 C 
ATOM      3  N   UNL     1       5.008  -3.230   0.120  0.00  0.00    -0.273 N 
ATOM      4  C   UNL     1       6.169  -2.573   0.238  0.00  0.00    +0.304 C 
ATOM      5  O   UNL     1       7.206  -3.208   0.234  0.00  0.00    -0.252 OA
ATOM      6  N   UNL     1       6.226  -1.232   0.360  0.00  0.00    -0.288 N 
ATOM      7  C   UNL     1       4.963  -0.475   0.357  0.00  0.00    +0.142 C 
ATOM      8  C   UNL     1       2.539  -3.447  -0.025  0.00  0.00    +0.061 C 
ATOM      9  H   UNL     1       5.035  -4.196   0.036  0.00  0.00    +0.156 HD
ATOM     10  H   UNL     1       7.078  -0.777   0.443  0.00  0.00    +0.151 HD
ENDROOT
BRANCH   7  11
ATOM     11  C   UNL     1       4.893   0.308   1.643  0.00  0.00    -0.022 A 
ATOM     12  C   UNL     1       5.141  -0.321   2.849  0.00  0.00    +0.007 A 
ATOM     13  C   UNL     1       5.082   0.397   4.028  0.00  0.00    +0.020 A 
ATOM     14  C   UNL     1       4.764   1.744   4.003  0.00  0.00    +0.041 A 
ATOM     15  C   UNL     1       4.511   2.371   2.796  0.00  0.00    +0.020 A 
ATOM     16  C   UNL     1       4.575   1.653   1.617  0.00  0.00    +0.007 A 
ATOM     17 CL   UNL     1       4.683   2.645   5.484  0.00  0.00    -0.084 Cl
ENDBRANCH   7  11
BRANCH   1  19
ATOM     18  N   UNL     1       1.624  -0.700   1.305  0.00  0.00    -0.281 N 
ATOM     19  C   UNL     1       2.418  -0.636   0.218  0.00  0.00    +0.248 C 
ATOM     20  O   UNL     1       2.049  -0.029  -0.771  0.00  0.00    -0.270 OA
ATOM     21  H   UNL     1       1.955  -1.097   2.125  0.00  0.00    +0.155 HD
BRANCH  18  28
ATOM     22  C   UNL     1      -0.380  -1.969   2.876  0.00  0.00    +0.045 C 
ATOM     23  C   UNL     1      -0.687  -0.781   2.002  0.00  0.00    -0.029 A 
ATOM     24  C   UNL     1      -1.972  -0.277   1.946  0.00  0.00    +0.006 A 
ATOM     25  C   UNL     1      -2.255   0.813   1.144  0.00  0.00    +0.020 A 
ATOM     26  C   UNL     1      -1.251   1.406   0.398  0.00  0.00    +0.043 A 
ATOM     27  C   UNL     1       0.035   0.903   0.445  0.00  0.00    +0.043 A 
ATOM     28  C   UNL     1       0.322  -0.192   1.251  0.00  0.00    +0.038 A 
ATOM     29 CL   UNL     1      -1.610   2.778  -0.603  0.00  0.00    -0.083 Cl
ENDBRANCH  18  28
ENDBRANCH   1  19
TORSDOF 3
