REMARK  Name = ZINC12266518
REMARK  12 active torsions:
REMARK  status: ('A' for Active; 'I' for Inactive)
REMARK    1  A    between atoms: C_1  and  C_2
REMARK    2  A    between atoms: C_2  and  C_3
REMARK    3  A    between atoms: C_3  and  C_4
REMARK    4  A    between atoms: C_4  and  N_5
REMARK    5  A    between atoms: N_5  and  C_6
REMARK    6  A    between atoms: C_7  and  N_22
REMARK    7  A    between atoms: N_8  and  C_15
REMARK    8  A    between atoms: C_15  and  C_16
REMARK    9  A    between atoms: C_23  and  C_25
REMARK   10  A    between atoms: C_26  and  C_27
REMARK   11  A    between atoms: C_33  and  O_36
REMARK   12  A    between atoms: O_36  and  C_37
REMARK                            x       y       z     vdW  Elec       q    Type
REMARK                         _______ _______ _______ _____ _____    ______ ____
ROOT
ATOM      1  N   UNL     1      -2.390   1.112  -0.001  0.00  0.00    -0.261 N 
ATOM      2  C   UNL     1      -1.240   1.812  -0.037  0.00  0.00    +0.244 C 
ATOM      3  O   UNL     1      -1.264   3.015  -0.231  0.00  0.00    -0.270 OA
ENDROOT
BRANCH   1   4
ATOM      4  C   UNL     1      -3.627   1.782  -0.096  0.00  0.00    +0.140 A 
ATOM      5  C   UNL     1      -4.003   2.701   0.862  0.00  0.00    +0.128 A 
ATOM      6  N   UNL     1      -5.214   3.343   0.739  0.00  0.00    -0.276 N 
ATOM      7  C   UNL     1      -6.027   3.069  -0.298  0.00  0.00    +0.331 A 
ATOM      8  O   UNL     1      -7.095   3.643  -0.386  0.00  0.00    -0.246 OA
ATOM      9  N   UNL     1      -5.679   2.173  -1.238  0.00  0.00    -0.273 N 
ATOM     10  H   UNL     1      -6.302   1.988  -1.999  0.00  0.00    +0.173 HD
ATOM     11  C   UNL     1      -4.502   1.521  -1.168  0.00  0.00    +0.277 A 
ATOM     12  O   UNL     1      -4.197   0.710  -2.026  0.00  0.00    -0.266 OA
BRANCH   5  13
ATOM     13  N   UNL     1      -3.176   2.977   1.924  0.00  0.00    -0.343 N 
ATOM     14  H   UNL     1      -2.363   2.463   2.052  0.00  0.00    +0.144 HD
ATOM     15  H   UNL     1      -3.404   3.686   2.546  0.00  0.00    +0.144 HD
ENDBRANCH   5  13
BRANCH   6  16
ATOM     16  C   UNL     1      -5.624   4.324   1.746  0.00  0.00    +0.163 C 
BRANCH  16  17
ATOM     17  C   UNL     1      -6.381   3.628   2.847  0.00  0.00    -0.028 A 
ATOM     18  C   UNL     1      -7.755   3.493   2.763  0.00  0.00    +0.005 A 
ATOM     19  C   UNL     1      -8.449   2.851   3.771  0.00  0.00    +0.000 A 
ATOM     20  C   UNL     1      -7.771   2.352   4.867  0.00  0.00    +0.000 A 
ATOM     21  C   UNL     1      -6.399   2.492   4.954  0.00  0.00    +0.000 A 
ATOM     22  C   UNL     1      -5.704   3.130   3.944  0.00  0.00    +0.005 A 
ENDBRANCH  16  17
ENDBRANCH   6  16
ENDBRANCH   1   4
BRANCH   2  23
ATOM     23  C   UNL     1       0.000   1.150   0.151  0.00  0.00    +0.071 C 
ATOM     24  C   UNL     1       1.157   1.853   0.109  0.00  0.00    +0.051 C 
BRANCH  24  25
ATOM     25  C   UNL     1       2.435   1.169   0.296  0.00  0.00    +0.129 A 
ATOM     26  C   UNL     1       3.658   1.770   0.275  0.00  0.00    +0.058 A 
ATOM     27  C   UNL     1       4.635   0.708   0.505  0.00  0.00    +0.024 A 
ATOM     28  C   UNL     1       6.030   0.671   0.597  0.00  0.00    +0.012 A 
ATOM     29  C   UNL     1       6.665  -0.516   0.826  0.00  0.00    +0.004 A 
ATOM     30  C   UNL     1       5.935  -1.688   0.969  0.00  0.00    +0.049 A 
ATOM     31  C   UNL     1       4.555  -1.676   0.882  0.00  0.00    +0.163 A 
ATOM     32  C   UNL     1       3.887  -0.474   0.649  0.00  0.00    +0.177 A 
ATOM     33  O   UNL     1       2.584  -0.152   0.523  0.00  0.00    -0.452 OA
BRANCH  31  34
ATOM     34  O   UNL     1       3.852  -2.831   1.024  0.00  0.00    -0.491 OA
ATOM     35  C   UNL     1       4.603  -4.023   1.262  0.00  0.00    +0.277 C 
ENDBRANCH  31  34
ENDBRANCH  24  25
ENDBRANCH   2  23
BRANCH   1  36
ATOM     36  C   UNL     1      -2.356  -0.346   0.138  0.00  0.00    +0.114 C 
BRANCH  36  37
ATOM     37  C   UNL     1      -2.251  -0.715   1.619  0.00  0.00    +0.019 C 
BRANCH  37  39
ATOM     38  C   UNL     1      -2.110  -2.607   3.245  0.00  0.00    +0.004 C 
ATOM     39  C   UNL     1      -2.215  -2.238   1.764  0.00  0.00    -0.002 C 
ENDBRANCH  37  39
ENDBRANCH  36  37
ENDBRANCH   1  36
TORSDOF 10
