REMARK  Name = ZINC49644807
REMARK  8 active torsions:
REMARK  status: ('A' for Active; 'I' for Inactive)
REMARK    1  A    between atoms: C_1  and  C_2
REMARK    2  A    between atoms: C_2  and  C_3
REMARK    3  A    between atoms: C_3  and  C_30
REMARK    4  A    between atoms: N_6  and  C_10
REMARK    5  A    between atoms: C_10  and  C_11
REMARK    6  A    between atoms: C_11  and  N_13
REMARK    7  A    between atoms: N_20  and  C_23
REMARK    8  A    between atoms: C_23  and  C_24
REMARK                            x       y       z     vdW  Elec       q    Type
REMARK                         _______ _______ _______ _____ _____    ______ ____
ROOT
ATOM      1  C   UNL     1      -3.756   2.880   1.656  0.00  0.00    +0.256 C 
ATOM      2  O   UNL     1      -2.682   3.244   1.215  0.00  0.00    -0.272 OA
ENDROOT
BRANCH   1   3
ATOM      3  N   UNL     1      -4.512   3.726   2.343  0.00  0.00    -0.155 NA
ATOM      4  C   UNL     1      -4.095   4.976   2.551  0.00  0.00    +0.163 A 
ATOM      5  N   UNL     1      -2.940   5.561   2.137  0.00  0.00    -0.339 N 
ATOM      6  C   UNL     1      -2.692   6.867   2.455  0.00  0.00    +0.024 A 
ATOM      7  C   UNL     1      -3.650   7.474   3.176  0.00  0.00    -0.004 A 
ATOM      8  S   UNL     1      -4.874   6.214   3.385  0.00  0.00    -0.059 S 
ATOM      9  C   UNL     1      -3.644   8.885   3.664  0.00  0.00    -0.033 C 
ATOM     10  N   UNL     1      -2.268   9.407   3.559  0.00  0.00    +0.386 N 
ATOM     11  C   UNL     1      -1.744   9.137   2.213  0.00  0.00    -0.072 C 
ATOM     12  C   UNL     1      -1.445   7.644   2.051  0.00  0.00    +0.035 C 
ATOM     13  H   UNL     1      -2.295   5.054   1.619  0.00  0.00    +0.167 HD
ATOM     14  H   UNL     1      -1.683   8.954   4.245  0.00  0.00    -0.081 HD
BRANCH  10  15
ATOM     15  C   UNL     1      -2.275  10.856   3.801  0.00  0.00    -0.043 C 
BRANCH  15  16
ATOM     16  C   UNL     1      -2.696  11.126   5.222  0.00  0.00    -0.064 A 
ATOM     17  C   UNL     1      -4.033  11.297   5.526  0.00  0.00    +0.002 A 
ATOM     18  C   UNL     1      -4.420  11.545   6.830  0.00  0.00    +0.000 A 
ATOM     19  C   UNL     1      -3.468  11.621   7.830  0.00  0.00    +0.000 A 
ATOM     20  C   UNL     1      -2.131  11.448   7.527  0.00  0.00    +0.000 A 
ATOM     21  C   UNL     1      -1.745  11.196   6.223  0.00  0.00    +0.002 A 
ENDBRANCH  15  16
ENDBRANCH  10  15
ENDBRANCH   1   3
BRANCH   1  22
ATOM     22  C   UNL     1      -4.228   1.468   1.421  0.00  0.00    +0.215 C 
BRANCH  22  26
ATOM     23  C   UNL     1      -1.433  -0.534   0.013  0.00  0.00    +0.138 C 
ATOM     24  C   UNL     1      -2.205   0.042   1.184  0.00  0.00    +0.251 C 
ATOM     25  O   UNL     1      -1.958  -0.098   2.363  0.00  0.00    -0.272 OA
ATOM     26  N   UNL     1      -3.222   0.740   0.642  0.00  0.00    -0.215 N 
ATOM     27  C   UNL     1      -3.200   0.687  -0.695  0.00  0.00    +0.310 C 
ATOM     28  O   UNL     1      -4.016   1.240  -1.406  0.00  0.00    -0.252 OA
ATOM     29  N   UNL     1      -2.175  -0.046  -1.163  0.00  0.00    -0.281 N 
ATOM     30  H   UNL     1      -1.964  -0.220  -2.094  0.00  0.00    +0.152 HD
BRANCH  23  31
ATOM     31  C   UNL     1      -1.441  -2.040   0.057  0.00  0.00    -0.015 A 
ATOM     32  C   UNL     1      -0.412  -2.718   0.684  0.00  0.00    +0.006 A 
ATOM     33  C   UNL     1      -0.419  -4.100   0.725  0.00  0.00    +0.000 A 
ATOM     34  C   UNL     1      -1.454  -4.803   0.139  0.00  0.00    +0.000 A 
ATOM     35  C   UNL     1      -2.483  -4.125  -0.487  0.00  0.00    +0.000 A 
ATOM     36  C   UNL     1      -2.479  -2.744  -0.524  0.00  0.00    +0.006 A 
ENDBRANCH  23  31
BRANCH  23  38
ATOM     37  C   UNL     1      -0.019   1.526   0.010  0.00  0.00    +0.007 C 
ATOM     38  C   UNL     1       0.002  -0.004   0.002  0.00  0.00    +0.037 C 
ENDBRANCH  23  38
ENDBRANCH  22  26
ENDBRANCH   1  22
TORSDOF 7
