REMARK  Name = ZINC18257472
REMARK  6 active torsions:
REMARK  status: ('A' for Active; 'I' for Inactive)
REMARK    1  A    between atoms: C_3  and  N_8
REMARK    2  A    between atoms: C_9  and  C_11
REMARK    3  A    between atoms: C_11  and  S_12
REMARK    4  A    between atoms: S_12  and  C_13
REMARK    5  A    between atoms: C_16  and  C_19
REMARK    6  A    between atoms: N_17  and  N_18
REMARK                            x       y       z     vdW  Elec       q    Type
REMARK                         _______ _______ _______ _____ _____    ______ ____
ROOT
ATOM      1  C   UNL     1      -2.079   1.760  -1.060  0.00  0.00    +0.209 A 
ATOM      2  N   UNL     1      -2.365   2.206  -2.262  0.00  0.00    -0.121 NA
ATOM      3  N   UNL     1      -1.303   2.220  -2.986  0.00  0.00    -0.132 NA
ATOM      4  C   UNL     1      -0.284   1.794  -2.295  0.00  0.00    +0.154 A 
ATOM      5  N   UNL     1      -0.743   1.480  -1.045  0.00  0.00    -0.228 N 
ENDROOT
BRANCH   4   6
ATOM      6  C   UNL     1       1.136   1.667  -2.783  0.00  0.00    +0.059 C 
ATOM      7  C   UNL     1       1.651   3.041  -3.216  0.00  0.00    +0.011 C 
ATOM      8  C   UNL     1       3.093   2.912  -3.711  0.00  0.00    +0.001 C 
ATOM      9  C   UNL     1       3.139   1.951  -4.902  0.00  0.00    +0.000 C 
ATOM     10  C   UNL     1       2.624   0.577  -4.469  0.00  0.00    +0.001 C 
ATOM     11  C   UNL     1       1.182   0.706  -3.973  0.00  0.00    +0.011 C 
ENDBRANCH   4   6
BRANCH   5  12
ATOM     12  N   UNL     1      -0.014   0.994   0.003  0.00  0.00    -0.295 N 
ATOM     13  H   UNL     1      -0.002  -0.015  -0.003  0.00  0.00    +0.163 HD
ATOM     14  H   UNL     1       0.924   1.367  -0.005  0.00  0.00    +0.163 HD
ENDBRANCH   5  12
BRANCH   1  15
ATOM     15  S   UNL     1      -3.207   1.560   0.279  0.00  0.00    -0.075 S 
BRANCH  15  16
ATOM     16  C   UNL     1      -4.734   2.129  -0.509  0.00  0.00    +0.173 C 
BRANCH  16  18
ATOM     17  N   UNL     1      -7.111   2.418   0.110  0.00  0.00    -0.270 N 
ATOM     18  C   UNL     1      -5.870   2.044   0.478  0.00  0.00    +0.229 C 
ATOM     19  O   UNL     1      -5.667   1.640   1.603  0.00  0.00    -0.275 OA
ATOM     20  H   UNL     1      -7.260   2.811  -0.764  0.00  0.00    +0.156 HD
BRANCH  17  23
ATOM     21  C   UNL     1     -10.527   2.345   1.441  0.00  0.00    +0.025 A 
ATOM     22  C   UNL     1      -9.473   2.530   0.563  0.00  0.00    +0.045 A 
ATOM     23  C   UNL     1      -8.181   2.241   0.987  0.00  0.00    +0.125 A 
ATOM     24  N   UNL     1      -7.956   1.805   2.216  0.00  0.00    -0.239 NA
ATOM     25  C   UNL     1      -8.939   1.624   3.077  0.00  0.00    +0.132 A 
ATOM     26  C   UNL     1     -10.249   1.885   2.722  0.00  0.00    +0.059 A 
ATOM     27 CL   UNL     1     -11.533   1.642   3.865  0.00  0.00    -0.082 Cl
ENDBRANCH  17  23
ENDBRANCH  16  18
ENDBRANCH  15  16
ENDBRANCH   1  15
TORSDOF 6
