REMARK  Name = ZINC64110462
REMARK  6 active torsions:
REMARK  status: ('A' for Active; 'I' for Inactive)
REMARK    1  A    between atoms: C_1  and  C_2
REMARK    2  A    between atoms: C_5  and  N_17
REMARK    3  A    between atoms: C_6  and  C_8
REMARK    4  A    between atoms: C_11  and  C_14
REMARK    5  A    between atoms: C_18  and  C_20
REMARK    6  A    between atoms: C_23  and  C_25
REMARK                            x       y       z     vdW  Elec       q    Type
REMARK                         _______ _______ _______ _____ _____    ______ ____
ROOT
ATOM      1  C   UNL     1      -0.101   1.580   0.138  0.00  0.00    +0.044 C 
ATOM      2  C   UNL     1      -0.060   0.074   0.085  0.00  0.00    -0.050 A 
ATOM      3  C   UNL     1      -0.070  -0.572  -1.139  0.00  0.00    +0.005 A 
ATOM      4  C   UNL     1      -0.033  -1.952  -1.199  0.00  0.00    +0.024 A 
ATOM      5  C   UNL     1       0.015  -2.697  -0.029  0.00  0.00    +0.045 A 
ATOM      6  C   UNL     1       0.026  -2.045   1.209  0.00  0.00    +0.042 A 
ATOM      7  C   UNL     1      -0.006  -0.653   1.256  0.00  0.00    +0.016 A 
ENDROOT
BRANCH   6   8
ATOM      8  C   UNL     1       0.078  -2.832   2.465  0.00  0.00    +0.183 A 
ATOM      9  N   UNL     1      -0.004  -2.330   3.705  0.00  0.00    -0.211 NA
ATOM     10  H   UNL     1       0.295  -5.344   4.302  0.00  0.00    +0.190 HD
ATOM     11  C   UNL     1       0.075  -3.298   4.580  0.00  0.00    +0.129 A 
ATOM     12  N   UNL     1       0.212  -4.459   3.914  0.00  0.00    -0.262 N 
ATOM     13  N   UNL     1       0.206  -4.138   2.547  0.00  0.00    -0.152 NA
BRANCH  11  14
ATOM     14  C   UNL     1       0.023  -3.141   6.078  0.00  0.00    +0.056 C 
ATOM     15  C   UNL     1      -0.251  -4.394   6.911  0.00  0.00    +0.012 C 
ATOM     16  C   UNL     1      -1.333  -3.324   6.761  0.00  0.00    +0.012 C 
ENDBRANCH  11  14
ENDBRANCH   6   8
BRANCH   5  17
ATOM     17  N   UNL     1       0.052  -4.091  -0.088  0.00  0.00    -0.280 N 
ATOM     18  C   UNL     1       0.537  -4.707  -1.184  0.00  0.00    +0.265 C 
ATOM     19  O   UNL     1       1.034  -4.051  -2.080  0.00  0.00    -0.268 OA
ATOM     20  H   UNL     1      -0.271  -4.617   0.661  0.00  0.00    +0.155 HD
BRANCH  18  21
ATOM     21  C   UNL     1       0.465  -6.167  -1.296  0.00  0.00    +0.131 C 
ATOM     22  N   UNL     1      -0.039  -7.009  -0.432  0.00  0.00    -0.148 NA
ATOM     23  N   UNL     1       0.029  -8.232  -0.786  0.00  0.00    -0.153 NA
ATOM     24  C   UNL     1       0.594  -8.425  -1.955  0.00  0.00    +0.077 C 
ATOM     25  C   UNL     1       0.955  -7.032  -2.446  0.00  0.00    +0.120 C 
BRANCH  24  26
ATOM     26  C   UNL     1       0.823  -9.703  -2.639  0.00  0.00    -0.002 A 
ATOM     27  C   UNL     1       1.451  -9.729  -3.891  0.00  0.00    +0.010 A 
ATOM     28  C   UNL     1       1.662 -10.934  -4.526  0.00  0.00    +0.001 A 
ATOM     29  C   UNL     1       1.255 -12.116  -3.930  0.00  0.00    +0.000 A 
ATOM     30  C   UNL     1       0.634 -12.099  -2.693  0.00  0.00    +0.001 A 
ATOM     31  C   UNL     1       0.420 -10.904  -2.041  0.00  0.00    +0.010 A 
ENDBRANCH  24  26
ENDBRANCH  18  21
ENDBRANCH   5  17
TORSDOF 5
