REMARK  Name = ZINC63686473
REMARK  5 active torsions:
REMARK  status: ('A' for Active; 'I' for Inactive)
REMARK    1  A    between atoms: C_1  and  C_2
REMARK    2  A    between atoms: C_6  and  C_8
REMARK    3  A    between atoms: C_11  and  S_15
REMARK    4  A    between atoms: S_15  and  C_16
REMARK    5  A    between atoms: C_16  and  C_17
REMARK                            x       y       z     vdW  Elec       q    Type
REMARK                         _______ _______ _______ _____ _____    ______ ____
ROOT
ATOM      1  S   UNL     1       2.928  -5.083   3.713  0.00  0.00    -0.111 S 
ENDROOT
BRANCH   1   4
ATOM      2  C   UNL     1       0.054  -2.845   2.489  0.00  0.00    +0.198 C 
ATOM      3  N   UNL     1       0.798  -4.120   2.333  0.00  0.00    -0.261 NA
ATOM      4  C   UNL     1       2.154  -3.725   2.792  0.00  0.00    +0.254 C 
ATOM      5  N   UNL     1       1.930  -2.571   3.672  0.00  0.00    -0.184 NA
ATOM      6  N   UNL     1       0.799  -2.096   3.509  0.00  0.00    -0.290 N 
ATOM      7  H   UNL     1       0.411  -4.839   2.924  0.00  0.00    +0.127 HD
ATOM      8  H   UNL     1       0.449  -1.330   3.991  0.00  0.00    +0.184 HD
BRANCH   2  14
ATOM      9  C   UNL     1      -0.018   1.503   0.010  0.00  0.00    +0.044 C 
ATOM     10  C   UNL     1       0.002  -0.004   0.002  0.00  0.00    -0.050 A 
ATOM     11  C   UNL     1       0.006  -0.689  -1.199  0.00  0.00    +0.003 A 
ATOM     12  C   UNL     1       0.025  -2.071  -1.207  0.00  0.00    +0.001 A 
ATOM     13  C   UNL     1       0.040  -2.768  -0.013  0.00  0.00    +0.007 A 
ATOM     14  C   UNL     1       0.037  -2.084   1.188  0.00  0.00    -0.009 A 
ATOM     15  C   UNL     1       0.023  -0.702   1.195  0.00  0.00    +0.010 A 
ENDBRANCH   2  14
ENDBRANCH   1   4
BRANCH   1  16
ATOM     16  C   UNL     1       1.802  -5.367   5.106  0.00  0.00    +0.125 C 
BRANCH  16  17
ATOM     17  C   UNL     1       2.335  -6.486   5.963  0.00  0.00    +0.030 A 
ATOM     18  N   UNL     1       2.226  -7.760   5.514  0.00  0.00    -0.355 N 
ATOM     19  C   UNL     1       2.693  -8.827   6.249  0.00  0.00    +0.086 A 
ATOM     20  C   UNL     1       3.299  -8.598   7.496  0.00  0.00    +0.048 A 
ATOM     21  C   UNL     1       3.775  -9.671   8.249  0.00  0.00    +0.014 A 
ATOM     22  C   UNL     1       3.649 -10.945   7.770  0.00  0.00    +0.004 A 
ATOM     23  C   UNL     1       3.051 -11.180   6.540  0.00  0.00    +0.040 A 
ATOM     24  C   UNL     1       2.574 -10.134   5.778  0.00  0.00    +0.147 A 
ATOM     25  F   UNL     1       1.994 -10.374   4.582  0.00  0.00    -0.203 F 
ATOM     26  C   UNL     1       3.415  -7.209   7.975  0.00  0.00    +0.190 A 
ATOM     27  O   UNL     1       3.933  -6.955   9.050  0.00  0.00    -0.287 OA
ATOM     28  C   UNL     1       2.908  -6.181   7.146  0.00  0.00    +0.073 A 
ATOM     29  H   UNL     1       1.808  -7.924   4.654  0.00  0.00    +0.166 HD
ENDBRANCH  16  17
ENDBRANCH   1  16
TORSDOF 4
