REMARK  Name = ZINC59888146
REMARK  13 active torsions:
REMARK  status: ('A' for Active; 'I' for Inactive)
REMARK    1  A    between atoms: C_1  and  C_2
REMARK    2  A    between atoms: C_3  and  C_11
REMARK    3  A    between atoms: C_4  and  C_10
REMARK    4  A    between atoms: N_5  and  C_7
REMARK    5  A    between atoms: C_7  and  C_8
REMARK    6  A    between atoms: C_8  and  O_9
REMARK    7  A    between atoms: N_12  and  N_13
REMARK    8  A    between atoms: C_16  and  S_19
REMARK    9  A    between atoms: S_19  and  C_20
REMARK   10  A    between atoms: C_20  and  C_21
REMARK   11  A    between atoms: C_21  and  C_22
REMARK   12  A    between atoms: N_24  and  C_25
REMARK   13  A    between atoms: N_24  and  C_31
REMARK                            x       y       z     vdW  Elec       q    Type
REMARK                         _______ _______ _______ _____ _____    ______ ____
ROOT
ATOM      1  N   UNL     1      -0.023   1.494  -3.121  0.00  0.00    -0.205 N 
ATOM      2  C   UNL     1      -0.036   2.809  -3.546  0.00  0.00    +0.232 A 
ATOM      3  N   UNL     1      -0.086   3.872  -2.771  0.00  0.00    -0.186 NA
ATOM      4  C   UNL     1      -0.082   4.978  -3.523  0.00  0.00    +0.210 A 
ATOM      5  N   UNL     1      -0.031   4.633  -4.788  0.00  0.00    -0.144 NA
ATOM      6  N   UNL     1       0.004   3.229  -4.828  0.00  0.00    -0.245 N 
ATOM      7  H   UNL     1       0.019   0.774  -3.770  0.00  0.00    +0.177 HD
ATOM      8  H   UNL     1       0.048   2.672  -5.621  0.00  0.00    +0.192 HD
ENDROOT
BRANCH   1  10
ATOM      9  C   UNL     1      -0.058  -0.035  -1.353  0.00  0.00    +0.141 C 
ATOM     10  N   UNL     1      -0.071   1.199  -1.752  0.00  0.00    -0.187 NA
BRANCH   9  13
ATOM     11  C   UNL     1      -0.201   2.089   0.997  0.00  0.00    +0.068 C 
ATOM     12  C   UNL     1      -0.172   0.589   1.145  0.00  0.00    +0.069 A 
ATOM     13  C   UNL     1      -0.108  -0.346   0.089  0.00  0.00    +0.038 A 
ATOM     14  C   UNL     1      -0.101  -1.602   0.655  0.00  0.00    +0.045 A 
ATOM     15  N   UNL     1      -0.158  -1.442   1.993  0.00  0.00    -0.266 N 
ATOM     16  N   UNL     1      -0.195  -0.070   2.271  0.00  0.00    -0.176 NA
ATOM     17  C   UNL     1      -0.041  -2.913  -0.084  0.00  0.00    +0.066 C 
BRANCH  15  18
ATOM     18  C   UNL     1      -0.172  -2.519   2.986  0.00  0.00    +0.171 C 
BRANCH  18  19
ATOM     19  C   UNL     1       1.264  -2.860   3.388  0.00  0.00    +0.179 C 
BRANCH  19  20
ATOM     20  O   UNL     1       1.250  -3.911   4.357  0.00  0.00    -0.393 OA
ATOM     21  H   UNL     1       2.129  -4.179   4.658  0.00  0.00    +0.209 HD
ENDBRANCH  19  20
ENDBRANCH  18  19
ENDBRANCH  15  18
ENDBRANCH   9  13
ENDBRANCH   1  10
BRANCH   4  22
ATOM     22  S   UNL     1      -0.139   6.630  -2.915  0.00  0.00    -0.084 S 
BRANCH  22  23
ATOM     23  C   UNL     1      -0.107   7.651  -4.414  0.00  0.00    +0.087 C 
BRANCH  23  24
ATOM     24  C   UNL     1      -0.152   9.130  -4.025  0.00  0.00    +0.108 C 
BRANCH  24  25
ATOM     25  C   UNL     1      -0.126   9.978  -5.271  0.00  0.00    +0.225 C 
ATOM     26  O   UNL     1       0.019   9.457  -6.356  0.00  0.00    -0.275 OA
ATOM     27  N   UNL     1      -0.264  11.316  -5.178  0.00  0.00    -0.240 N 
BRANCH  27  28
ATOM     28  C   UNL     1      -0.311  11.930  -3.920  0.00  0.00    +0.041 A 
ATOM     29  C   UNL     1       0.808  11.917  -3.098  0.00  0.00    +0.024 A 
ATOM     30  C   UNL     1       0.758  12.523  -1.858  0.00  0.00    +0.002 A 
ATOM     31  C   UNL     1      -0.404  13.142  -1.435  0.00  0.00    +0.000 A 
ATOM     32  C   UNL     1      -1.519  13.156  -2.252  0.00  0.00    +0.002 A 
ATOM     33  C   UNL     1      -1.474  12.557  -3.495  0.00  0.00    +0.024 A 
ENDBRANCH  27  28
BRANCH  27  34
ATOM     34  C   UNL     1      -0.360  12.092  -6.340  0.00  0.00    +0.041 A 
ATOM     35  C   UNL     1      -1.356  11.829  -7.272  0.00  0.00    +0.024 A 
ATOM     36  C   UNL     1      -1.448  12.596  -8.416  0.00  0.00    +0.002 A 
ATOM     37  C   UNL     1      -0.550  13.624  -8.636  0.00  0.00    +0.000 A 
ATOM     38  C   UNL     1       0.443  13.889  -7.710  0.00  0.00    +0.002 A 
ATOM     39  C   UNL     1       0.536  13.129  -6.560  0.00  0.00    +0.024 A 
ENDBRANCH  27  34
ENDBRANCH  24  25
ENDBRANCH  23  24
ENDBRANCH  22  23
ENDBRANCH   4  22
TORSDOF 11
