REMARK  Name = ZINC03203834
REMARK  16 active torsions:
REMARK  status: ('A' for Active; 'I' for Inactive)
REMARK    1  A    between atoms: C_1  and  C_2
REMARK    2  A    between atoms: C_2  and  O_3
REMARK    3  A    between atoms: O_3  and  C_4
REMARK    4  A    between atoms: N_10  and  C_17
REMARK    5  A    between atoms: C_11  and  C_15
REMARK    6  A    between atoms: C_11  and  C_16
REMARK    7  A    between atoms: C_13  and  C_14
REMARK    8  A    between atoms: C_17  and  C_18
REMARK    9  A    between atoms: C_21  and  C_24
REMARK   10  A    between atoms: C_24  and  N_88
REMARK   11  A    between atoms: C_29  and  O_32
REMARK   12  A    between atoms: O_32  and  C_33
REMARK   13  A    between atoms: C_33  and  C_34
REMARK   14  A    between atoms: C_35  and  C_40
REMARK   15  A    between atoms: C_37  and  C_38
REMARK   16  A    between atoms: C_37  and  C_39
REMARK                            x       y       z     vdW  Elec       q    Type
REMARK                         _______ _______ _______ _____ _____    ______ ____
ROOT
ATOM      1  C   UNL     1      -1.531   1.511  -0.567  0.00  0.00    -0.030 A 
ATOM      2  C   UNL     1      -0.645   0.535  -0.150  0.00  0.00    +0.005 A 
ATOM      3  C   UNL     1       0.715   0.778  -0.178  0.00  0.00    +0.005 A 
ATOM      4  C   UNL     1       1.190   2.000  -0.617  0.00  0.00    -0.032 A 
ATOM      5  C   UNL     1       0.304   2.978  -1.029  0.00  0.00    +0.005 A 
ATOM      6  C   UNL     1      -1.056   2.734  -1.002  0.00  0.00    +0.005 A 
ENDROOT
BRANCH   1   7
ATOM      7  C   UNL     1      -3.014   1.244  -0.543  0.00  0.00    +0.141 C 
BRANCH   7  14
ATOM      8  C   UNL     1      -6.543  -0.718  -0.384  0.00  0.00    +0.122 A 
ATOM      9  C   UNL     1      -7.247  -0.837   0.807  0.00  0.00    +0.046 A 
ATOM     10  C   UNL     1      -6.683  -0.412   1.993  0.00  0.00    +0.013 A 
ATOM     11  C   UNL     1      -5.404   0.136   1.990  0.00  0.00    -0.001 A 
ATOM     12  C   UNL     1      -4.689   0.255   0.789  0.00  0.00    +0.042 A 
ATOM     13  C   UNL     1      -5.267  -0.173  -0.395  0.00  0.00    +0.069 A 
ATOM     14  N   UNL     1      -3.409   0.800   0.801  0.00  0.00    -0.316 N 
ATOM     15  C   UNL     1      -3.278   1.887   1.773  0.00  0.00    +0.049 C 
ATOM     16  C   UNL     1      -3.744   1.448   3.135  0.00  0.00    +0.002 C 
ATOM     17  C   UNL     1      -4.772   0.608   3.241  0.00  0.00    -0.043 C 
ATOM     18  C   UNL     1      -5.274   0.155   4.588  0.00  0.00    +0.044 C 
ATOM     19  C   UNL     1      -1.810   2.313   1.856  0.00  0.00    +0.036 C 
ATOM     20  C   UNL     1      -4.120   3.078   1.312  0.00  0.00    +0.036 C 
BRANCH   8  21
ATOM     21  O   UNL     1      -7.107  -1.136  -1.547  0.00  0.00    -0.492 OA
BRANCH  21  23
ATOM     22  C   UNL     1      -8.889  -2.099  -2.865  0.00  0.00    +0.048 C 
ATOM     23  C   UNL     1      -8.424  -1.687  -1.467  0.00  0.00    +0.225 C 
ENDBRANCH  21  23
ENDBRANCH   8  21
ENDBRANCH   7  14
ENDBRANCH   1   7
BRANCH   4  24
ATOM     24  C   UNL     1       2.673   2.266  -0.646  0.00  0.00    +0.121 C 
BRANCH  24  37
ATOM     25  C   UNL     1       3.234   2.421  -3.060  0.00  0.00    -0.003 C 
ATOM     26  C   UNL     1       4.247   2.249  -3.917  0.00  0.00    -0.029 C 
ATOM     27  C   UNL     1       4.327   2.963  -5.240  0.00  0.00    +0.039 C 
ATOM     28  C   UNL     1       3.405   4.181  -5.252  0.00  0.00    +0.036 C 
ATOM     29  C   UNL     1       2.013   3.736  -4.787  0.00  0.00    +0.124 C 
ATOM     30  C   UNL     1       2.098   3.370  -3.305  0.00  0.00    +0.081 C 
ATOM     31  C   UNL     1       5.331   1.310  -3.568  0.00  0.00    -0.048 C 
ATOM     32  C   UNL     1       5.155   0.412  -2.603  0.00  0.00    +0.000 C 
ATOM     33  C   UNL     1       3.839   0.356  -1.867  0.00  0.00    +0.032 C 
ATOM     34  C   UNL     1       4.075  -0.098  -0.425  0.00  0.00    +0.034 C 
ATOM     35  C   UNL     1       2.895  -0.624  -2.566  0.00  0.00    +0.034 C 
ATOM     36  C   UNL     1       6.643   1.371  -4.307  0.00  0.00    +0.044 C 
ATOM     37  N   UNL     1       3.568   1.839  -1.797  0.00  0.00    -0.386 NA
ATOM     38  H   UNL     1       4.480   2.253  -1.571  0.00  0.00    +0.127 HD
BRANCH  29  39
ATOM     39  O   UNL     1       1.081   4.804  -4.966  0.00  0.00    -0.376 OA
BRANCH  39  40
ATOM     40  C   UNL     1       0.438   4.806  -6.242  0.00  0.00    +0.157 C 
ATOM     41  C   UNL     1      -0.532   5.987  -6.323  0.00  0.00    +0.034 C 
ENDBRANCH  39  40
ENDBRANCH  29  39
ENDBRANCH  24  37
ENDBRANCH   4  24
TORSDOF 8
