REMARK  Name = ZINC67268809
REMARK  10 active torsions:
REMARK  status: ('A' for Active; 'I' for Inactive)
REMARK    1  A    between atoms: C_1  and  C_2
REMARK    2  A    between atoms: C_2  and  C_3
REMARK    3  A    between atoms: C_2  and  C_4
REMARK    4  A    between atoms: C_2  and  C_5
REMARK    5  A    between atoms: C_5  and  C_7
REMARK    6  A    between atoms: C_5  and  N_12
REMARK    7  A    between atoms: C_13  and  C_15
REMARK    8  A    between atoms: C_15  and  C_16
REMARK    9  A    between atoms: C_19  and  S_22
REMARK   10  A    between atoms: S_22  and  N_25
REMARK                            x       y       z     vdW  Elec       q    Type
REMARK                         _______ _______ _______ _____ _____    ______ ____
ROOT
ATOM      1  N   UNL     1       0.010  -0.012  -2.444  0.00  0.00    -0.307 N 
ATOM      2  C   UNL     1      -1.042  -0.701  -2.929  0.00  0.00    +0.218 C 
ATOM      3  O   UNL     1      -1.403  -1.722  -2.383  0.00  0.00    -0.275 OA
ATOM      4  H   UNL     1       0.298   0.805  -2.880  0.00  0.00    +0.149 HD
ENDROOT
BRANCH   1   5
ATOM      5  C   UNL     1       0.718  -0.497  -1.257  0.00  0.00    +0.115 C 
BRANCH   5   6
ATOM      6  C   UNL     1       2.132   0.024  -1.268  0.00  0.00    +0.010 A 
ATOM      7  C   UNL     1       3.279  -0.612  -0.927  0.00  0.00    +0.013 A 
ATOM      8  C   UNL     1       4.477   0.071  -1.016  0.00  0.00    +0.008 A 
ATOM      9  C   UNL     1       4.469   1.358  -1.442  0.00  0.00    +0.045 A 
ATOM     10  S   UNL     1       2.731   1.638  -1.739  0.00  0.00    -0.100 S 
ENDBRANCH   5   6
BRANCH   5  12
ATOM     11  C   UNL     1      -0.019   1.526   0.010  0.00  0.00    +0.013 C 
ATOM     12  C   UNL     1       0.002  -0.004   0.002  0.00  0.00    -0.015 C 
ATOM     13  C   UNL     1       0.742  -0.511   1.242  0.00  0.00    +0.013 C 
ATOM     14  C   UNL     1      -1.433  -0.534   0.013  0.00  0.00    +0.013 C 
ENDBRANCH   5  12
ENDBRANCH   1   5
BRANCH   2  15
ATOM     15  C   UNL     1      -1.771  -0.201  -4.150  0.00  0.00    +0.130 C 
BRANCH  15  16
ATOM     16  C   UNL     1      -2.898  -1.145  -4.483  0.00  0.00    -0.039 A 
ATOM     17  C   UNL     1      -2.677  -2.214  -5.330  0.00  0.00    +0.006 A 
ATOM     18  C   UNL     1      -3.711  -3.080  -5.635  0.00  0.00    +0.029 A 
ATOM     19  C   UNL     1      -4.966  -2.876  -5.093  0.00  0.00    +0.105 A 
ATOM     20  C   UNL     1      -5.187  -1.807  -4.245  0.00  0.00    +0.029 A 
ATOM     21  C   UNL     1      -4.152  -0.944  -3.936  0.00  0.00    +0.006 A 
BRANCH  19  22
ATOM     22  S   UNL     1      -6.284  -3.978  -5.484  0.00  0.00    +0.056 S 
ATOM     23  O   UNL     1      -7.491  -3.256  -5.282  0.00  0.00    -0.153 OA
ATOM     24  O   UNL     1      -5.955  -4.580  -6.728  0.00  0.00    -0.153 OA
BRANCH  22  25
ATOM     25  N   UNL     1      -6.261  -5.188  -4.353  0.00  0.00    -0.204 NA
ATOM     26  H   UNL     1      -7.087  -5.631  -4.100  0.00  0.00    +0.144 HD
ATOM     27  H   UNL     1      -5.423  -5.453  -3.943  0.00  0.00    +0.144 HD
ENDBRANCH  22  25
ENDBRANCH  19  22
ENDBRANCH  15  16
ENDBRANCH   2  15
TORSDOF 7
