REMARK  Name = ZINC34756697
REMARK  7 active torsions:
REMARK  status: ('A' for Active; 'I' for Inactive)
REMARK    1  A    between atoms: C_1  and  C_2
REMARK    2  A    between atoms: C_5  and  N_8
REMARK    3  A    between atoms: C_18  and  N_20
REMARK    4  A    between atoms: N_20  and  C_21
REMARK    5  A    between atoms: N_20  and  C_22
REMARK    6  A    between atoms: N_24  and  S_27
REMARK    7  A    between atoms: S_27  and  C_30
REMARK                            x       y       z     vdW  Elec       q    Type
REMARK                         _______ _______ _______ _____ _____    ______ ____
ROOT
ATOM      1  N   UNL     1       2.459  -4.139  -0.034  0.00  0.00    -0.327 N 
ATOM      2  C   UNL     1       2.591  -4.893   1.221  0.00  0.00    +0.124 C 
ATOM      3  C   UNL     1       1.413  -5.868   1.333  0.00  0.00    +0.127 C 
ATOM      4  N   UNL     1       1.297  -6.610   0.070  0.00  0.00    -0.298 N 
ATOM      5  C   UNL     1       1.165  -5.857  -1.185  0.00  0.00    +0.127 C 
ATOM      6  C   UNL     1       2.337  -4.881  -1.296  0.00  0.00    +0.124 C 
ATOM      7  C   UNL     1       1.311  -7.994   0.062  0.00  0.00    +0.198 A 
ATOM      8  N   UNL     1       1.312  -8.646   1.213  0.00  0.00    -0.331 N 
ATOM      9  C   UNL     1       1.322  -9.977   1.254  0.00  0.00    +0.028 A 
ATOM     10  C   UNL     1       1.326 -10.676   0.072  0.00  0.00    +0.027 A 
ATOM     11  C   UNL     1       1.333  -9.961  -1.132  0.00  0.00    +0.130 A 
ATOM     12  N   UNL     1       1.319  -8.634  -1.098  0.00  0.00    -0.201 NA
ATOM     13  C   UNL     1       1.309 -12.180   0.019  0.00  0.00    +0.149 C 
ATOM     14  N   UNL     1       1.569 -12.721   1.358  0.00  0.00    -0.172 NA
ATOM     15  C   UNL     1       0.864 -12.097   2.489  0.00  0.00    +0.116 C 
ATOM     16  C   UNL     1       1.338 -10.648   2.600  0.00  0.00    +0.071 C 
ATOM     17  H   UNL     1       1.305  -8.145   2.043  0.00  0.00    +0.168 HD
ENDROOT
BRANCH   1  22
ATOM     18  C   UNL     1       2.398   1.532  -0.002  0.00  0.00    +0.044 C 
ATOM     19  C   UNL     1       2.414   0.025  -0.010  0.00  0.00    -0.050 A 
ATOM     20  C   UNL     1       2.421  -0.658  -1.212  0.00  0.00    +0.005 A 
ATOM     21  C   UNL     1       2.436  -2.039  -1.224  0.00  0.00    +0.023 A 
ATOM     22  C   UNL     1       2.445  -2.742  -0.026  0.00  0.00    +0.030 A 
ATOM     23  C   UNL     1       2.438  -2.053   1.180  0.00  0.00    +0.023 A 
ATOM     24  C   UNL     1       2.429  -0.672   1.184  0.00  0.00    +0.005 A 
ENDBRANCH   1  22
BRANCH  11  25
ATOM     25  N   UNL     1       1.348 -10.631  -2.345  0.00  0.00    -0.321 N 
ATOM     26  C   UNL     1       0.092 -10.900  -3.049  0.00  0.00    +0.130 C 
ATOM     27  C   UNL     1       2.621 -11.071  -2.922  0.00  0.00    +0.130 C 
ENDBRANCH  11  25
BRANCH  14  28
ATOM     28  S   UNL     1       2.615 -13.985   1.587  0.00  0.00    +0.061 S 
ATOM     29  O   UNL     1       2.236 -14.610   2.806  0.00  0.00    -0.153 OA
ATOM     30  O   UNL     1       2.675 -14.691   0.356  0.00  0.00    -0.153 OA
BRANCH  28  31
ATOM     31  C   UNL     1       4.215 -13.296   1.851  0.00  0.00    +0.106 A 
ATOM     32  C   UNL     1       5.051 -13.060   0.776  0.00  0.00    +0.030 A 
ATOM     33  C   UNL     1       6.307 -12.520   0.983  0.00  0.00    +0.022 A 
ATOM     34  C   UNL     1       6.726 -12.215   2.265  0.00  0.00    +0.041 A 
ATOM     35  C   UNL     1       5.889 -12.452   3.341  0.00  0.00    +0.022 A 
ATOM     36  C   UNL     1       4.631 -12.987   3.133  0.00  0.00    +0.030 A 
ATOM     37 CL   UNL     1       8.303 -11.537   2.526  0.00  0.00    -0.084 Cl
ENDBRANCH  28  31
ENDBRANCH  14  28
TORSDOF 4
