REMARK  Name = ZINC02472359
REMARK  5 active torsions:
REMARK  status: ('A' for Active; 'I' for Inactive)
REMARK    1  A    between atoms: C_1  and  C_2
REMARK    2  A    between atoms: C_2  and  C_3
REMARK    3  A    between atoms: C_2  and  C_4
REMARK    4  A    between atoms: C_7  and  C_10
REMARK    5  A    between atoms: C_13  and  C_22
REMARK                            x       y       z     vdW  Elec       q    Type
REMARK                         _______ _______ _______ _____ _____    ______ ____
ROOT
ATOM      1  C   UNL     1       2.490   1.048  -0.016  0.00  0.00    +0.143 C 
ATOM      2  C   UNL     1       3.303   1.421   1.230  0.00  0.00    +0.059 C 
ATOM      3  C   UNL     1       4.738   0.900   1.086  0.00  0.00    +0.107 C 
ATOM      4  N   UNL     1       5.365   1.560  -0.075  0.00  0.00    -0.307 N 
ATOM      5  C   UNL     1       4.583   1.665  -1.218  0.00  0.00    +0.216 A 
ATOM      6  N   UNL     1       3.250   1.428  -1.207  0.00  0.00    -0.224 N 
ATOM      7  N   UNL     1       2.800   1.621  -2.514  0.00  0.00    -0.132 NA
ATOM      8  C   UNL     1       3.849   1.957  -3.230  0.00  0.00    +0.233 A 
ATOM      9  N   UNL     1       4.930   1.982  -2.437  0.00  0.00    -0.180 NA
ATOM     10  N   UNL     1       3.840   2.242  -4.596  0.00  0.00    -0.326 N 
ATOM     11  H   UNL     1       6.272   1.903  -0.042  0.00  0.00    +0.149 HD
ATOM     12  H   UNL     1       3.009   2.199  -5.095  0.00  0.00    +0.145 HD
ATOM     13  H   UNL     1       4.665   2.482  -5.047  0.00  0.00    +0.145 HD
ENDROOT
BRANCH   3  14
ATOM     14  C   UNL     1       4.715  -0.591   0.868  0.00  0.00    -0.009 A 
ATOM     15  C   UNL     1       4.858  -1.106  -0.407  0.00  0.00    +0.007 A 
ATOM     16  C   UNL     1       4.837  -2.474  -0.607  0.00  0.00    +0.000 A 
ATOM     17  C   UNL     1       4.674  -3.328   0.468  0.00  0.00    +0.001 A 
ATOM     18  C   UNL     1       4.532  -2.814   1.744  0.00  0.00    +0.020 A 
ATOM     19  C   UNL     1       4.558  -1.445   1.945  0.00  0.00    +0.046 A 
ATOM     20 CL   UNL     1       4.386  -0.800   3.547  0.00  0.00    -0.083 Cl
ENDBRANCH   3  14
BRANCH   1  24
ATOM     21  C   UNL     1      -1.238   3.133   0.030  0.00  0.00    -0.045 A 
ATOM     22  C   UNL     1      -1.219   1.751   0.017  0.00  0.00    +0.004 A 
ATOM     23  C   UNL     1      -0.013   1.076   0.008  0.00  0.00    +0.006 A 
ATOM     24  C   UNL     1       1.175   1.783   0.000  0.00  0.00    -0.023 A 
ATOM     25  C   UNL     1       1.156   3.165   0.008  0.00  0.00    +0.006 A 
ATOM     26  C   UNL     1      -0.050   3.840   0.022  0.00  0.00    +0.004 A 
BRANCH  21  28
ATOM     27  C   UNL     1      -3.361   3.494  -1.198  0.00  0.00    +0.012 C 
ATOM     28  C   UNL     1      -2.553   3.869   0.045  0.00  0.00    +0.013 C 
ATOM     29  C   UNL     1      -3.338   3.482   1.300  0.00  0.00    +0.012 C 
ENDBRANCH  21  28
ENDBRANCH   1  24
TORSDOF 3
