REMARK  Name = ZINC05746425
REMARK  5 active torsions:
REMARK  status: ('A' for Active; 'I' for Inactive)
REMARK    1  A    between atoms: C_1  and  C_2
REMARK    2  A    between atoms: C_5  and  S_8
REMARK    3  A    between atoms: S_8  and  N_11
REMARK    4  A    between atoms: N_11  and  N_12
REMARK    5  A    between atoms: C_13  and  C_15
REMARK                            x       y       z     vdW  Elec       q    Type
REMARK                         _______ _______ _______ _____ _____    ______ ____
ROOT
ATOM      1  N   UNL     1       3.587   2.150  -0.022  0.00  0.00    -0.227 N 
ATOM      2  C   UNL     1       2.552   1.286  -0.017  0.00  0.00    +0.265 C 
ATOM      3  O   UNL     1       2.761   0.087  -0.028  0.00  0.00    -0.268 OA
ATOM      4  H   UNL     1       3.420   3.106  -0.014  0.00  0.00    +0.171 HD
ENDROOT
BRANCH   2   5
ATOM      5  C   UNL     1       1.177   1.790   0.000  0.00  0.00    +0.076 A 
ATOM      6  C   UNL     1      -0.013   1.076   0.008  0.00  0.00    +0.025 A 
ATOM      7  C   UNL     1      -1.209   1.750   0.017  0.00  0.00    -0.032 A 
ATOM      8  C   UNL     1      -1.131   3.146   0.043  0.00  0.00    +0.023 A 
ATOM      9  S   UNL     1       0.600   3.482   0.017  0.00  0.00    -0.083 S 
ATOM     10  C   UNL     1      -2.300   4.020   0.065  0.00  0.00    -0.008 A 
ATOM     11  C   UNL     1      -2.234   5.386  -0.180  0.00  0.00    +0.009 A 
ATOM     12  C   UNL     1      -3.391   6.140  -0.168  0.00  0.00    +0.001 A 
ATOM     13  C   UNL     1      -4.608   5.537   0.096  0.00  0.00    +0.000 A 
ATOM     14  C   UNL     1      -4.676   4.183   0.369  0.00  0.00    +0.004 A 
ATOM     15  C   UNL     1      -3.529   3.417   0.379  0.00  0.00    -0.039 A 
ATOM     16  C   UNL     1      -3.580   1.966   0.766  0.00  0.00    +0.040 C 
ATOM     17  C   UNL     1      -2.588   1.104  -0.005  0.00  0.00    +0.041 C 
ENDBRANCH   2   5
BRANCH   1  18
ATOM     18  N   UNL     1       4.902   1.669  -0.039  0.00  0.00    -0.108 NA
ATOM     19  H   UNL     1       5.199   1.045   0.642  0.00  0.00    +0.172 HD
BRANCH  18  20
ATOM     20  S   UNL     1       5.950   2.164  -1.222  0.00  0.00    +0.074 S 
ATOM     21  O   UNL     1       7.222   1.626  -0.888  0.00  0.00    -0.152 OA
ATOM     22  O   UNL     1       5.314   1.902  -2.465  0.00  0.00    -0.152 OA
BRANCH  20  27
ATOM     23  C   UNL     1       6.444   8.161  -0.769  0.00  0.00    +0.044 C 
ATOM     24  C   UNL     1       6.321   6.663  -0.882  0.00  0.00    -0.050 A 
ATOM     25  C   UNL     1       7.181   5.844  -0.176  0.00  0.00    +0.005 A 
ATOM     26  C   UNL     1       7.068   4.470  -0.280  0.00  0.00    +0.029 A 
ATOM     27  C   UNL     1       6.094   3.916  -1.089  0.00  0.00    +0.107 A 
ATOM     28  C   UNL     1       5.237   4.735  -1.799  0.00  0.00    +0.029 A 
ATOM     29  C   UNL     1       5.347   6.109  -1.692  0.00  0.00    +0.005 A 
ENDBRANCH  20  27
ENDBRANCH  18  20
ENDBRANCH   1  18
TORSDOF 4
