REMARK  Name = ZINC06830874
REMARK  3 active torsions:
REMARK  status: ('A' for Active; 'I' for Inactive)
REMARK    1  A    between atoms: N_9  and  C_23
REMARK    2  A    between atoms: C_10  and  C_13
REMARK    3  A    between atoms: C_23  and  C_24
REMARK                            x       y       z     vdW  Elec       q    Type
REMARK                         _______ _______ _______ _____ _____    ______ ____
ROOT
ATOM      1  C   UNL     1       4.998   3.612  -5.174  0.00  0.00    +0.001 A 
ATOM      2  C   UNL     1       5.175   2.383  -5.790  0.00  0.00    +0.002 A 
ATOM      3  C   UNL     1       4.825   1.214  -5.141  0.00  0.00    +0.024 A 
ATOM      4  C   UNL     1       4.295   1.273  -3.864  0.00  0.00    +0.041 A 
ATOM      5  C   UNL     1       4.118   2.518  -3.234  0.00  0.00    +0.058 A 
ATOM      6  C   UNL     1       4.473   3.688  -3.901  0.00  0.00    +0.015 A 
ATOM      7  C   UNL     1       3.556   2.541  -1.871  0.00  0.00    +0.250 C 
ATOM      8  O   UNL     1       3.616   3.552  -1.198  0.00  0.00    -0.270 OA
ATOM      9  N   UNL     1       2.974   1.427  -1.379  0.00  0.00    -0.268 N 
ATOM     10  C   UNL     1       2.825   0.225  -2.199  0.00  0.00    +0.193 C 
ATOM     11  N   UNL     1       3.918   0.129  -3.170  0.00  0.00    -0.321 N 
ATOM     12  H   UNL     1       4.371  -0.715  -3.322  0.00  0.00    +0.148 HD
ENDROOT
BRANCH  10  13
ATOM     13  C   UNL     1       1.512   0.283  -2.937  0.00  0.00    -0.006 A 
ATOM     14  C   UNL     1       0.475   1.051  -2.441  0.00  0.00    +0.011 A 
ATOM     15  C   UNL     1      -0.730   1.107  -3.114  0.00  0.00    +0.050 A 
ATOM     16  C   UNL     1      -0.903   0.391  -4.290  0.00  0.00    +0.162 A 
ATOM     17  C   UNL     1       0.140  -0.379  -4.790  0.00  0.00    +0.162 A 
ATOM     18  C   UNL     1       1.349  -0.427  -4.111  0.00  0.00    +0.056 A 
ATOM     19  O   UNL     1      -0.006  -1.086  -5.944  0.00  0.00    -0.485 OA
ATOM     20  C   UNL     1      -1.346  -1.310  -6.395  0.00  0.00    +0.270 C 
ATOM     21  C   UNL     1      -2.112   0.017  -6.303  0.00  0.00    +0.270 C 
ATOM     22  O   UNL     1      -2.098   0.449  -4.938  0.00  0.00    -0.485 OA
ENDBRANCH  10  13
BRANCH   9  23
ATOM     23  C   UNL     1       2.487   1.421   0.003  0.00  0.00    +0.184 C 
BRANCH  23  24
ATOM     24  C   UNL     1       3.616   1.052   0.930  0.00  0.00    +0.122 A 
ATOM     25  C   UNL     1       4.521   1.903   1.446  0.00  0.00    +0.046 A 
ATOM     26  C   UNL     1       5.394   1.135   2.251  0.00  0.00    +0.041 A 
ATOM     27  C   UNL     1       4.964  -0.138   2.186  0.00  0.00    +0.195 A 
ATOM     28  O   UNL     1       3.890  -0.183   1.382  0.00  0.00    -0.466 OA
ENDBRANCH  23  24
ENDBRANCH   9  23
TORSDOF 3
