REMARK  Name = ZINC09461507
REMARK  6 active torsions:
REMARK  status: ('A' for Active; 'I' for Inactive)
REMARK    1  A    between atoms: C_1  and  C_2
REMARK    2  A    between atoms: C_5  and  N_8
REMARK    3  A    between atoms: C_12  and  N_16
REMARK    4  A    between atoms: C_17  and  C_29
REMARK    5  A    between atoms: C_20  and  C_22
REMARK    6  A    between atoms: C_20  and  O_28
REMARK                            x       y       z     vdW  Elec       q    Type
REMARK                         _______ _______ _______ _____ _____    ______ ____
ROOT
ATOM      1  N   UNL     1      -1.265  -6.633   1.203  0.00  0.00    -0.164 NA
ATOM      2  C   UNL     1      -1.275  -6.732   2.677  0.00  0.00    +0.121 C 
ATOM      3  C   UNL     1      -1.300  -8.247   2.983  0.00  0.00    +0.097 C 
ATOM      4  C   UNL     1      -1.845  -8.846   1.661  0.00  0.00    +0.215 C 
ATOM      5  O   UNL     1      -1.243  -7.999   0.657  0.00  0.00    -0.256 OA
ENDROOT
BRANCH   1  10
ATOM      6  N   UNL     1       0.974  -6.308  -1.276  0.00  0.00    -0.209 N 
ATOM      7  C   UNL     1       1.791  -6.843  -0.360  0.00  0.00    +0.228 C 
ATOM      8  O   UNL     1       2.834  -7.412  -0.596  0.00  0.00    -0.275 OA
ATOM      9  C   UNL     1       1.204  -6.623   1.018  0.00  0.00    +0.127 C 
ATOM     10  C   UNL     1      -0.106  -5.861   0.735  0.00  0.00    +0.180 C 
ATOM     11  C   UNL     1      -0.120  -5.725  -0.772  0.00  0.00    +0.246 C 
ATOM     12  O   UNL     1      -0.986  -5.177  -1.420  0.00  0.00    -0.273 OA
BRANCH   6  17
ATOM     13  C   UNL     1       2.076  -6.480  -6.842  0.00  0.00    +0.044 C 
ATOM     14  C   UNL     1       1.783  -6.434  -5.364  0.00  0.00    -0.050 A 
ATOM     15  C   UNL     1       1.822  -5.228  -4.690  0.00  0.00    +0.005 A 
ATOM     16  C   UNL     1       1.554  -5.183  -3.336  0.00  0.00    +0.024 A 
ATOM     17  C   UNL     1       1.246  -6.351  -2.651  0.00  0.00    +0.044 A 
ATOM     18  C   UNL     1       1.208  -7.560  -3.331  0.00  0.00    +0.024 A 
ATOM     19  C   UNL     1       1.471  -7.598  -4.686  0.00  0.00    +0.005 A 
ENDBRANCH   6  17
ENDBRANCH   1  10
BRANCH   4  20
ATOM     20  C   UNL     1      -1.395 -10.275   1.496  0.00  0.00    +0.012 A 
ATOM     21  C   UNL     1      -0.205 -10.553   0.850  0.00  0.00    +0.009 A 
ATOM     22  C   UNL     1       0.209 -11.864   0.698  0.00  0.00    +0.000 A 
ATOM     23  C   UNL     1      -0.567 -12.895   1.192  0.00  0.00    +0.000 A 
ATOM     24  C   UNL     1      -1.757 -12.616   1.839  0.00  0.00    +0.000 A 
ATOM     25  C   UNL     1      -2.168 -11.306   1.995  0.00  0.00    +0.009 A 
ENDBRANCH   4  20
BRANCH   2  26
ATOM     26  C   UNL     1      -0.033  -6.101   3.252  0.00  0.00    -0.028 A 
ATOM     27  C   UNL     1       0.022  -4.734   3.445  0.00  0.00    +0.005 A 
ATOM     28  C   UNL     1       1.162  -4.155   3.972  0.00  0.00    +0.000 A 
ATOM     29  C   UNL     1       2.246  -4.945   4.307  0.00  0.00    +0.000 A 
ATOM     30  C   UNL     1       2.191  -6.312   4.115  0.00  0.00    +0.000 A 
ATOM     31  C   UNL     1       1.049  -6.891   3.592  0.00  0.00    +0.005 A 
ENDBRANCH   2  26
BRANCH   4  32
ATOM     32  O   UNL     1      -3.271  -8.754   1.613  0.00  0.00    -0.360 OA
ATOM     33  H   UNL     1      -3.661  -9.116   0.806  0.00  0.00    +0.213 HD
ENDBRANCH   4  32
TORSDOF 5
