REMARK  Name = ZINC27345462
REMARK  8 active torsions:
REMARK  status: ('A' for Active; 'I' for Inactive)
REMARK    1  A    between atoms: C_5  and  C_7
REMARK    2  A    between atoms: C_7  and  C_9
REMARK    3  A    between atoms: C_7  and  N_27
REMARK    4  A    between atoms: C_9  and  N_10
REMARK    5  A    between atoms: C_11  and  C_13
REMARK    6  A    between atoms: C_13  and  C_14
REMARK    7  A    between atoms: C_14  and  C_15
REMARK    8  A    between atoms: C_18  and  C_20
REMARK                            x       y       z     vdW  Elec       q    Type
REMARK                         _______ _______ _______ _____ _____    ______ ____
ROOT
ATOM      1  N   UNL     1      -3.710  -2.346   2.462  0.00  0.00    -0.317 N 
ATOM      2  C   UNL     1      -3.347  -1.919   1.236  0.00  0.00    +0.213 C 
ATOM      3  O   UNL     1      -3.866  -2.396   0.249  0.00  0.00    -0.276 OA
ATOM      4  H   UNL     1      -3.239  -1.913   3.357  0.00  0.00    +0.149 HD
ENDROOT
BRANCH   1   5
ATOM      5  C   UNL     1      -4.732  -3.387   2.602  0.00  0.00    +0.093 C 
BRANCH   5   6
ATOM      6  C   UNL     1      -4.862  -3.778   4.075  0.00  0.00    -0.019 C 
BRANCH   6  11
ATOM      7  C   UNL     1      -1.483  -4.264   5.687  0.00  0.00    +0.000 A 
ATOM      8  C   UNL     1      -1.225  -5.591   5.394  0.00  0.00    +0.001 A 
ATOM      9  C   UNL     1      -2.143  -6.331   4.674  0.00  0.00    +0.020 A 
ATOM     10  C   UNL     1      -3.322  -5.745   4.247  0.00  0.00    +0.043 A 
ATOM     11  C   UNL     1      -3.579  -4.418   4.541  0.00  0.00    -0.041 A 
ATOM     12  C   UNL     1      -2.658  -3.677   5.256  0.00  0.00    +0.003 A 
ATOM     13 CL   UNL     1      -4.476  -6.674   3.342  0.00  0.00    -0.083 Cl
ENDBRANCH   6  11
BRANCH   6  14
ATOM     14  N   UNL     1      -5.131  -2.578   4.879  0.00  0.00    +0.385 N 
ATOM     15  C   UNL     1      -6.321  -1.851   4.368  0.00  0.00    -0.078 C 
ATOM     16  C   UNL     1      -6.754  -0.986   5.578  0.00  0.00    -0.020 C 
ATOM     17  C   UNL     1      -6.485  -1.917   6.782  0.00  0.00    -0.020 C 
ATOM     18  C   UNL     1      -5.448  -2.937   6.278  0.00  0.00    -0.078 C 
ATOM     19  H   UNL     1      -4.219  -1.966   4.816  0.00  0.00    -0.081 HD
ENDBRANCH   6  14
ENDBRANCH   5   6
ENDBRANCH   1   5
BRANCH   2  20
ATOM     20  C   UNL     1      -2.297  -0.848   1.092  0.00  0.00    +0.105 C 
BRANCH  20  21
ATOM     21  C   UNL     1      -2.073  -0.549  -0.392  0.00  0.00    +0.105 C 
BRANCH  21  22
ATOM     22  C   UNL     1      -1.023   0.522  -0.536  0.00  0.00    +0.197 A 
ATOM     23  N   UNL     1       0.260   0.314  -0.645  0.00  0.00    -0.221 NA
ATOM     24  C   UNL     1       0.884   1.496  -0.755  0.00  0.00    +0.161 A 
ATOM     25  C   UNL     1      -0.066   2.465  -0.710  0.00  0.00    +0.155 A 
ATOM     26  O   UNL     1      -1.256   1.841  -0.573  0.00  0.00    -0.440 OA
BRANCH  25  27
ATOM     27  C   UNL     1       0.159   3.924  -0.795  0.00  0.00    +0.019 A 
ATOM     28  C   UNL     1      -0.923   4.804  -0.741  0.00  0.00    +0.013 A 
ATOM     29  C   UNL     1      -0.706   6.164  -0.816  0.00  0.00    +0.021 A 
ATOM     30  C   UNL     1       0.581   6.657  -0.956  0.00  0.00    +0.041 A 
ATOM     31  C   UNL     1       1.657   5.788  -1.016  0.00  0.00    +0.021 A 
ATOM     32  C   UNL     1       1.454   4.426  -0.937  0.00  0.00    +0.013 A 
ATOM     33 CL   UNL     1       0.845   8.369  -1.058  0.00  0.00    -0.084 Cl
ENDBRANCH  25  27
ENDBRANCH  21  22
ENDBRANCH  20  21
ENDBRANCH   2  20
TORSDOF 8
