REMARK  Name = ZINC64044250
REMARK  10 active torsions:
REMARK  status: ('A' for Active; 'I' for Inactive)
REMARK    1  A    between atoms: C_1  and  C_2
REMARK    2  A    between atoms: C_7  and  C_32
REMARK    3  A    between atoms: C_8  and  C_12
REMARK    4  A    between atoms: C_12  and  N_13
REMARK    5  A    between atoms: C_17  and  C_20
REMARK    6  A    between atoms: C_20  and  C_21
REMARK    7  A    between atoms: C_21  and  C_22
REMARK    8  A    between atoms: N_24  and  C_25
REMARK    9  A    between atoms: C_25  and  C_26
REMARK   10  A    between atoms: C_29  and  C_31
REMARK                            x       y       z     vdW  Elec       q    Type
REMARK                         _______ _______ _______ _____ _____    ______ ____
ROOT
ATOM      1  N   UNL     1      -1.270  -0.278   5.036  0.00  0.00    +0.381 N 
ATOM      2  C   UNL     1      -0.132  -0.243   5.962  0.00  0.00    -0.079 C 
ATOM      3  C   UNL     1      -0.142   1.075   6.739  0.00  0.00    -0.018 C 
ATOM      4  C   UNL     1      -1.448   1.185   7.530  0.00  0.00    -0.000 C 
ATOM      5  C   UNL     1      -2.630   1.073   6.563  0.00  0.00    -0.027 C 
ATOM      6  C   UNL     1      -2.528  -0.245   5.792  0.00  0.00    -0.075 C 
ATOM      7  H   UNL     1      -1.227   0.522   4.423  0.00  0.00    -0.082 HD
ENDROOT
BRANCH   1   8
ATOM      8  C   UNL     1      -1.212  -1.509   4.237  0.00  0.00    -0.050 C 
BRANCH   8  16
ATOM      9  C   UNL     1      -0.018   1.503   0.010  0.00  0.00    +0.046 C 
ATOM     10  C   UNL     1       0.002  -0.004   0.002  0.00  0.00    -0.027 A 
ATOM     11  C   UNL     1       0.006  -0.669  -1.173  0.00  0.00    +0.005 A 
ATOM     12  C   UNL     1       0.024  -2.068  -1.251  0.00  0.00    +0.001 A 
ATOM     13  C   UNL     1       0.040  -2.842  -0.142  0.00  0.00    +0.010 A 
ATOM     14  C   UNL     1       0.037  -2.197   1.177  0.00  0.00    -0.001 A 
ATOM     15  C   UNL     1       0.049  -2.688   2.437  0.00  0.00    -0.043 C 
ATOM     16  C   UNL     1       0.037  -1.486   3.355  0.00  0.00    +0.089 C 
ATOM     17  N   UNL     1       0.018  -0.310   2.478  0.00  0.00    -0.379 N 
ATOM     18  C   UNL     1       0.023  -0.718   1.232  0.00  0.00    +0.046 A 
ATOM     19  C   UNL     1       0.070  -4.139   2.844  0.00  0.00    +0.042 C 
ATOM     20  H   UNL     1       0.007   0.614   2.771  0.00  0.00    +0.160 HD
ENDBRANCH   8  16
ENDBRANCH   1   8
BRANCH   5  21
ATOM     21  C   UNL     1      -3.941   1.104   7.351  0.00  0.00    +0.011 C 
BRANCH  21  22
ATOM     22  C   UNL     1      -4.098   2.468   8.026  0.00  0.00    +0.096 C 
BRANCH  22  23
ATOM     23  C   UNL     1      -5.389   2.499   8.802  0.00  0.00    +0.213 C 
ATOM     24  O   UNL     1      -6.112   1.526   8.816  0.00  0.00    -0.276 OA
ATOM     25  N   UNL     1      -5.740   3.608   9.483  0.00  0.00    -0.308 N 
ATOM     26  H   UNL     1      -5.162   4.387   9.472  0.00  0.00    +0.149 HD
BRANCH  25  27
ATOM     27  C   UNL     1      -6.995   3.638  10.238  0.00  0.00    +0.178 C 
BRANCH  27  28
ATOM     28  C   UNL     1      -7.150   4.982  10.902  0.00  0.00    +0.122 A 
ATOM     29  C   UNL     1      -7.757   6.058  10.369  0.00  0.00    +0.046 A 
ATOM     30  C   UNL     1      -7.673   7.093  11.328  0.00  0.00    +0.045 A 
ATOM     31  C   UNL     1      -7.020   6.588  12.390  0.00  0.00    +0.102 A 
ATOM     32  O   UNL     1      -6.710   5.308  12.128  0.00  0.00    -0.463 OA
ATOM     33  C   UNL     1      -6.695   7.332  13.660  0.00  0.00    +0.086 C 
ENDBRANCH  27  28
ENDBRANCH  25  27
ENDBRANCH  22  23
ENDBRANCH  21  22
ENDBRANCH   5  21
TORSDOF 7
