REMARK  Name = ZINC04776310
REMARK  9 active torsions:
REMARK  status: ('A' for Active; 'I' for Inactive)
REMARK    1  A    between atoms: C_1  and  C_2
REMARK    2  A    between atoms: C_7  and  C_8
REMARK    3  A    between atoms: C_7  and  N_61
REMARK    4  A    between atoms: C_8  and  C_10
REMARK    5  A    between atoms: C_8  and  N_63
REMARK    6  A    between atoms: C_10  and  S_11
REMARK    7  A    between atoms: S_11  and  C_14
REMARK    8  A    between atoms: C_17  and  N_20
REMARK    9  A    between atoms: C_25  and  C_28
REMARK                            x       y       z     vdW  Elec       q    Type
REMARK                         _______ _______ _______ _____ _____    ______ ____
ROOT
ATOM      1  C   UNL     1       4.469  -0.290   1.922  0.00  0.00    -0.064 C 
ENDROOT
BRANCH   1   8
ATOM      2  C   UNL     1       4.494   1.646   0.469  0.00  0.00    -0.078 C 
ATOM      3  C   UNL     1       4.880   3.125   0.390  0.00  0.00    -0.016 C 
ATOM      4  C   UNL     1       4.018   3.926   1.370  0.00  0.00    -0.018 C 
ATOM      5  C   UNL     1       4.212   3.367   2.782  0.00  0.00    -0.016 C 
ATOM      6  C   UNL     1       3.845   1.881   2.792  0.00  0.00    -0.078 C 
ATOM      7  C   UNL     1       4.441   5.396   1.340  0.00  0.00    +0.007 C 
ATOM      8  N   UNL     1       4.726   1.163   1.847  0.00  0.00    +0.381 N 
ATOM      9  H   UNL     1       5.705   1.342   2.103  0.00  0.00    -0.081 HD
ENDBRANCH   1   8
BRANCH   1  10
ATOM     10  C   UNL     1       2.967  -0.574   1.859  0.00  0.00    -0.093 C 
BRANCH  10  17
ATOM     11  C   UNL     1       0.382   0.496  -3.125  0.00  0.00    +0.007 C 
ATOM     12  C   UNL     1       0.826  -0.167  -1.820  0.00  0.00    -0.018 C 
ATOM     13  C   UNL     1       0.476   0.743  -0.639  0.00  0.00    -0.016 C 
ATOM     14  C   UNL     1       0.977   0.103   0.658  0.00  0.00    -0.079 C 
ATOM     15  C   UNL     1       2.788  -0.998  -0.518  0.00  0.00    -0.079 C 
ATOM     16  C   UNL     1       2.341  -0.391  -1.850  0.00  0.00    -0.016 C 
ATOM     17  N   UNL     1       2.444  -0.063   0.575  0.00  0.00    +0.379 N 
ATOM     18  H   UNL     1       2.872   0.849   0.380  0.00  0.00    -0.082 HD
ENDBRANCH  10  17
ENDBRANCH   1  10
BRANCH   1  19
ATOM     19  C   UNL     1       5.033  -0.821   3.242  0.00  0.00    +0.155 C 
BRANCH  19  20
ATOM     20  S   UNL     1       6.836  -0.624   3.251  0.00  0.00    -0.005 S 
ATOM     21  O   UNL     1       7.418  -1.396   2.209  0.00  0.00    -0.169 OA
ATOM     22  O   UNL     1       7.178   0.745   3.417  0.00  0.00    -0.169 OA
BRANCH  20  23
ATOM     23  C   UNL     1       7.369  -1.404   4.739  0.00  0.00    +0.088 A 
ATOM     24  C   UNL     1       7.467  -0.670   5.907  0.00  0.00    +0.029 A 
ATOM     25  C   UNL     1       7.881  -1.283   7.075  0.00  0.00    +0.034 A 
ATOM     26  C   UNL     1       8.206  -2.627   7.073  0.00  0.00    +0.126 A 
ATOM     27  C   UNL     1       8.112  -3.359   5.905  0.00  0.00    +0.034 A 
ATOM     28  C   UNL     1       7.694  -2.747   4.737  0.00  0.00    +0.029 A 
BRANCH  26  29
ATOM     29  N   UNL     1       8.653  -3.281   8.323  0.00  0.00    +0.056 N 
ATOM     30  O   UNL     1       8.939  -4.465   8.322  0.00  0.00    -0.126 OA
ATOM     31  O   UNL     1       8.735  -2.636   9.353  0.00  0.00    -0.126 OA
ENDBRANCH  26  29
ENDBRANCH  20  23
ENDBRANCH  19  20
ENDBRANCH   1  19
TORSDOF 7
