REMARK  Name = ZINC01769306
REMARK  6 active torsions:
REMARK  status: ('A' for Active; 'I' for Inactive)
REMARK    1  A    between atoms: C_6  and  N_7
REMARK    2  A    between atoms: N_7  and  C_8
REMARK    3  A    between atoms: C_9  and  C_10
REMARK    4  A    between atoms: C_9  and  C_12
REMARK    5  A    between atoms: C_14  and  C_17
REMARK    6  A    between atoms: C_21  and  N_28
REMARK                            x       y       z     vdW  Elec       q    Type
REMARK                         _______ _______ _______ _____ _____    ______ ____
ROOT
ATOM      1  C   UNL     1      -4.931  -2.668   0.095  0.00  0.00    +0.120 A 
ATOM      2  N   UNL     1      -3.751  -2.039   0.090  0.00  0.00    -0.238 NA
ATOM      3  C   UNL     1      -3.686  -0.739   0.126  0.00  0.00    +0.086 A 
ATOM      4  C   UNL     1      -4.974  -0.010   0.158  0.00  0.00    +0.075 A 
ATOM      5  S   UNL     1      -6.107  -1.326   0.141  0.00  0.00    -0.074 S 
ENDROOT
BRANCH   3   6
ATOM      6  C   UNL     1      -2.402  -0.033   0.127  0.00  0.00    +0.086 A 
ATOM      7  C   UNL     1      -1.200  -0.741   0.097  0.00  0.00    +0.028 A 
ATOM      8  C   UNL     1       0.013  -0.017   0.100  0.00  0.00    +0.020 A 
ATOM      9  C   UNL     1       1.242  -0.699   0.069  0.00  0.00    +0.044 A 
ATOM     10  C   UNL     1       2.410   0.006   0.073  0.00  0.00    +0.127 A 
ATOM     11  C   UNL     1       2.395   1.395   0.107  0.00  0.00    +0.036 A 
ATOM     12  C   UNL     1       1.201   2.085   0.137  0.00  0.00    +0.049 A 
ATOM     13  C   UNL     1      -0.004   1.392   0.134  0.00  0.00    +0.139 A 
ATOM     14  O   UNL     1      -1.169   2.073   0.170  0.00  0.00    -0.422 OA
ATOM     15  C   UNL     1      -2.353   1.439   0.162  0.00  0.00    +0.347 A 
ATOM     16  O   UNL     1      -3.386   2.080   0.189  0.00  0.00    -0.244 OA
BRANCH  10  17
ATOM     17  N   UNL     1       3.703  -0.714   0.041  0.00  0.00    +0.056 N 
ATOM     18  O   UNL     1       3.723  -2.031   0.010  0.00  0.00    -0.126 OA
ATOM     19  O   UNL     1       4.833  -0.039   0.045  0.00  0.00    -0.126 OA
ENDBRANCH  10  17
ENDBRANCH   3   6
BRANCH   1  21
ATOM     20  C   UNL     1      -6.511  -4.522   0.070  0.00  0.00    +0.093 C 
ATOM     21  C   UNL     1      -5.183  -4.048   0.065  0.00  0.00    +0.098 C 
BRANCH  20  22
ATOM     22  N   UNL     1      -6.751  -5.835   0.042  0.00  0.00    -0.319 N 
ATOM     23  H   UNL     1      -6.016  -6.460  -0.059  0.00  0.00    +0.152 HD
BRANCH  22  29
ATOM     24  C   UNL     1      -8.296  -7.674   0.254  0.00  0.00    +0.024 A 
ATOM     25  C   UNL     1      -9.590  -8.137   0.375  0.00  0.00    +0.016 A 
ATOM     26  C   UNL     1     -10.648  -7.245   0.390  0.00  0.00    +0.013 A 
ATOM     27  C   UNL     1     -10.413  -5.884   0.290  0.00  0.00    +0.016 A 
ATOM     28  C   UNL     1      -9.121  -5.412   0.174  0.00  0.00    +0.024 A 
ATOM     29  C   UNL     1      -8.054  -6.307   0.159  0.00  0.00    +0.031 A 
ATOM     30  I   UNL     1     -12.611  -7.955   0.566  0.00  0.00    -0.044 I 
ENDBRANCH  22  29
ENDBRANCH  20  22
BRANCH  21  31
ATOM     31  C   UNL     1      -4.092  -4.975   0.030  0.00  0.00    +0.103 C 
ATOM     32  N   UNL     1      -3.226  -5.710   0.002  0.00  0.00    -0.191 NA
ENDBRANCH  21  31
ENDBRANCH   1  21
TORSDOF 6
