REMARK  Name = ZINC05238022
REMARK  6 active torsions:
REMARK  status: ('A' for Active; 'I' for Inactive)
REMARK    1  A    between atoms: C_1  and  C_2
REMARK    2  A    between atoms: C_8  and  S_10
REMARK    3  A    between atoms: S_10  and  C_11
REMARK    4  A    between atoms: C_11  and  C_13
REMARK    5  A    between atoms: C_11  and  C_14
REMARK    6  A    between atoms: N_16  and  C_17
REMARK                            x       y       z     vdW  Elec       q    Type
REMARK                         _______ _______ _______ _____ _____    ______ ____
ROOT
ATOM      1  C   UNL     1      -1.256   7.405  -0.164  0.00  0.00    +0.137 C 
ATOM      2  C   UNL     1      -1.059   8.016   1.225  0.00  0.00    +0.029 C 
ENDROOT
BRANCH   1   3
ATOM      3  C   UNL     1      -1.242   5.902  -0.058  0.00  0.00    +0.230 C 
ATOM      4  O   UNL     1      -2.286   5.284  -0.050  0.00  0.00    -0.274 OA
ATOM      5  N   UNL     1      -0.069   5.243   0.029  0.00  0.00    -0.285 N 
ATOM      6  H   UNL     1       0.761   5.739   0.101  0.00  0.00    +0.155 HD
BRANCH   5   7
ATOM      7  C   UNL     1      -0.050   3.844   0.017  0.00  0.00    +0.036 A 
ATOM      8  C   UNL     1      -0.989   3.142  -0.727  0.00  0.00    +0.043 A 
ATOM      9  C   UNL     1      -0.968   1.760  -0.737  0.00  0.00    +0.044 A 
ATOM     10  C   UNL     1      -0.012   1.076  -0.007  0.00  0.00    +0.040 A 
ATOM     11  C   UNL     1       0.921   1.773   0.740  0.00  0.00    +0.044 A 
ATOM     12  C   UNL     1       0.908   3.155   0.749  0.00  0.00    +0.043 A 
ATOM     13 CL   UNL     1       2.114   0.911   1.661  0.00  0.00    -0.083 Cl
ATOM     14 CL   UNL     1      -2.141   0.882  -1.667  0.00  0.00    -0.083 Cl
ENDBRANCH   5   7
ENDBRANCH   1   3
BRANCH   1  15
ATOM     15  S   UNL     1      -2.844   7.947  -0.843  0.00  0.00    -0.075 S 
BRANCH  15  23
ATOM     16  C   UNL     1       0.257  11.979  -0.311  0.00  0.00    +0.066 C 
ATOM     17  C   UNL     1      -1.092  11.459  -0.736  0.00  0.00    +0.046 A 
ATOM     18  C   UNL     1      -2.033  12.320  -1.222  0.00  0.00    +0.093 A 
ATOM     19  C   UNL     1      -3.284  11.812  -1.611  0.00  0.00    +0.252 A 
ATOM     20  O   UNL     1      -4.147  12.554  -2.050  0.00  0.00    -0.268 OA
ATOM     21  N   UNL     1      -3.513  10.487  -1.489  0.00  0.00    -0.302 N 
ATOM     22  H   UNL     1      -4.396  10.103  -1.760  0.00  0.00    +0.171 HD
ATOM     23  C   UNL     1      -2.537   9.675  -0.997  0.00  0.00    +0.170 A 
ATOM     24  N   UNL     1      -1.367  10.161  -0.630  0.00  0.00    -0.228 NA
ENDBRANCH  15  23
ENDBRANCH   1  15
TORSDOF 4
