REMARK  Name = ZINC12413689
REMARK  9 active torsions:
REMARK  status: ('A' for Active; 'I' for Inactive)
REMARK    1  A    between atoms: C_1  and  C_2
REMARK    2  A    between atoms: C_2  and  O_3
REMARK    3  A    between atoms: O_3  and  C_4
REMARK    4  A    between atoms: C_4  and  C_6
REMARK    5  A    between atoms: C_7  and  C_18
REMARK    6  A    between atoms: C_10  and  O_16
REMARK    7  A    between atoms: O_16  and  C_17
REMARK    8  A    between atoms: C_27  and  C_29
REMARK    9  A    between atoms: C_27  and  C_35
REMARK                            x       y       z     vdW  Elec       q    Type
REMARK                         _______ _______ _______ _____ _____    ______ ____
ROOT
ATOM      1  C   UNL     1       2.906   4.748   0.045  0.00  0.00    +0.240 C 
ATOM      2  N   UNL     1       2.049   5.545   0.937  0.00  0.00    -0.315 N 
ATOM      3  C   UNL     1       2.488   6.824   1.298  0.00  0.00    +0.036 A 
ATOM      4  C   UNL     1       1.616   7.715   1.909  0.00  0.00    +0.023 A 
ATOM      5  C   UNL     1       2.059   8.973   2.268  0.00  0.00    +0.002 A 
ATOM      6  C   UNL     1       3.369   9.341   2.020  0.00  0.00    +0.000 A 
ATOM      7  C   UNL     1       4.238   8.455   1.411  0.00  0.00    +0.009 A 
ATOM      8  C   UNL     1       3.802   7.195   1.047  0.00  0.00    +0.014 A 
ATOM      9  C   UNL     1       4.753   6.236   0.381  0.00  0.00    +0.149 C 
ATOM     10  O   UNL     1       4.261   4.899   0.487  0.00  0.00    -0.334 OA
ATOM     11  H   UNL     1       1.205   5.194   1.265  0.00  0.00    +0.149 HD
ENDROOT
BRANCH   1  13
ATOM     12  C   UNL     1       2.184   2.503  -0.941  0.00  0.00    +0.133 A 
ATOM     13  C   UNL     1       2.506   3.297   0.114  0.00  0.00    +0.039 A 
ATOM     14  C   UNL     1       2.398   2.516   1.290  0.00  0.00    +0.011 A 
ATOM     15  C   UNL     1       2.604   2.792   2.649  0.00  0.00    +0.056 A 
ATOM     16  C   UNL     1       2.414   1.797   3.583  0.00  0.00    +0.121 A 
ATOM     17  C   UNL     1       2.014   0.523   3.185  0.00  0.00    +0.047 A 
ATOM     18  C   UNL     1       1.814   0.236   1.854  0.00  0.00    +0.030 A 
ATOM     19  C   UNL     1       2.000   1.225   0.892  0.00  0.00    +0.048 A 
ATOM     20  N   UNL     1       1.874   1.238  -0.478  0.00  0.00    -0.349 N 
ATOM     21  H   UNL     1       1.611   0.484  -1.029  0.00  0.00    +0.166 HD
BRANCH  12  22
ATOM     22  C   UNL     1       2.168   2.922  -2.349  0.00  0.00    +0.356 C 
ATOM     23  O   UNL     1       2.353   4.088  -2.638  0.00  0.00    -0.243 OA
BRANCH  22  24
ATOM     24  O   UNL     1       1.947   2.014  -3.321  0.00  0.00    -0.460 OA
BRANCH  24  26
ATOM     25  C   UNL     1       1.681   1.333  -5.644  0.00  0.00    +0.048 C 
ATOM     26  C   UNL     1       1.945   2.499  -4.689  0.00  0.00    +0.229 C 
ENDBRANCH  24  26
ENDBRANCH  22  24
ENDBRANCH  12  22
BRANCH  16  27
ATOM     27  O   UNL     1       2.613   2.061   4.902  0.00  0.00    -0.495 OA
ATOM     28  C   UNL     1       2.400   0.986   5.819  0.00  0.00    +0.277 C 
ENDBRANCH  16  27
ENDBRANCH   1  13
BRANCH   9  29
ATOM     29  C   UNL     1       6.101   6.326   1.049  0.00  0.00    -0.007 A 
ATOM     30  C   UNL     1       6.995   7.311   0.672  0.00  0.00    +0.007 A 
ATOM     31  C   UNL     1       8.230   7.396   1.288  0.00  0.00    +0.000 A 
ATOM     32  C   UNL     1       8.575   6.490   2.273  0.00  0.00    +0.000 A 
ATOM     33  C   UNL     1       7.683   5.501   2.646  0.00  0.00    +0.000 A 
ATOM     34  C   UNL     1       6.447   5.419   2.033  0.00  0.00    +0.007 A 
ENDBRANCH   9  29
BRANCH   9  35
ATOM     35  C   UNL     1       4.891   6.604  -1.074  0.00  0.00    -0.007 A 
ATOM     36  C   UNL     1       4.678   7.907  -1.480  0.00  0.00    +0.007 A 
ATOM     37  C   UNL     1       4.809   8.246  -2.814  0.00  0.00    +0.000 A 
ATOM     38  C   UNL     1       5.143   7.278  -3.743  0.00  0.00    +0.000 A 
ATOM     39  C   UNL     1       5.352   5.973  -3.337  0.00  0.00    +0.000 A 
ATOM     40  C   UNL     1       5.225   5.636  -2.003  0.00  0.00    +0.007 A 
ENDBRANCH   9  35
TORSDOF 7
