REMARK  Name = ZINC35560084
REMARK  7 active torsions:
REMARK  status: ('A' for Active; 'I' for Inactive)
REMARK    1  A    between atoms: C_1  and  C_2
REMARK    2  A    between atoms: C_2  and  N_3
REMARK    3  A    between atoms: N_3  and  C_4
REMARK    4  A    between atoms: C_4  and  C_6
REMARK    5  A    between atoms: C_4  and  C_16
REMARK    6  A    between atoms: C_11  and  O_12
REMARK    7  A    between atoms: O_12  and  C_13
REMARK                            x       y       z     vdW  Elec       q    Type
REMARK                         _______ _______ _______ _____ _____    ______ ____
ROOT
ATOM      1  C   UNL     1       0.710  -1.947  -1.215  0.00  0.00    -0.005 C 
ENDROOT
BRANCH   1   2
ATOM      2  C   UNL     1      -0.645  -2.607  -1.240  0.00  0.00    -0.035 A 
ATOM      3  C   UNL     1      -1.700  -2.018  -1.913  0.00  0.00    +0.026 A 
ATOM      4  C   UNL     1      -2.906  -2.639  -1.916  0.00  0.00    +0.056 A 
ATOM      5  S   UNL     1      -2.571  -4.101  -0.948  0.00  0.00    -0.074 S 
ATOM      6  C   UNL     1      -0.846  -3.790  -0.609  0.00  0.00    +0.058 A 
ATOM      7 BR   UNL     1       0.382  -4.837   0.377  0.00  0.00    -0.042 Br
ATOM      8 BR   UNL     1      -4.522  -2.097  -2.733  0.00  0.00    -0.043 Br
ENDBRANCH   1   2
BRANCH   1   9
ATOM      9  C   UNL     1       1.553  -2.487  -2.341  0.00  0.00    -0.015 A 
ATOM     10  C   UNL     1       0.958  -3.164  -3.388  0.00  0.00    +0.006 A 
ATOM     11  C   UNL     1       1.731  -3.660  -4.420  0.00  0.00    +0.000 A 
ATOM     12  C   UNL     1       3.102  -3.480  -4.409  0.00  0.00    +0.004 A 
ATOM     13  C   UNL     1       3.702  -2.804  -3.364  0.00  0.00    +0.046 A 
ATOM     14  C   UNL     1       2.928  -2.300  -2.329  0.00  0.00    +0.129 A 
BRANCH  14  15
ATOM     15  O   UNL     1       3.515  -1.630  -1.303  0.00  0.00    -0.434 OA
BRANCH  15  16
ATOM     16  C   UNL     1       4.935  -1.476  -1.358  0.00  0.00    +0.541 C 
ATOM     17  F   UNL     1       5.540  -2.737  -1.379  0.00  0.00    -0.166 F 
ATOM     18  F   UNL     1       5.283  -0.772  -2.516  0.00  0.00    -0.166 F 
ENDBRANCH  15  16
ENDBRANCH  14  15
ENDBRANCH   1   9
BRANCH   1  19
ATOM     19  N   UNL     1       0.550  -0.495  -1.375  0.00  0.00    +0.386 N 
ATOM     20  H   UNL     1       0.026  -0.306  -2.216  0.00  0.00    -0.085 HD
ATOM     21  H   UNL     1       1.459  -0.062  -1.441  0.00  0.00    -0.085 HD
BRANCH  19  23
ATOM     22  C   UNL     1      -0.336   1.561  -0.384  0.00  0.00    -0.017 C 
ATOM     23  C   UNL     1      -0.170   0.050  -0.217  0.00  0.00    -0.085 C 
ENDBRANCH  19  23
ENDBRANCH   1  19
TORSDOF 6
