REMARK  Name = ZINC39429790
REMARK  9 active torsions:
REMARK  status: ('A' for Active; 'I' for Inactive)
REMARK    1  A    between atoms: C_1  and  O_2
REMARK    2  A    between atoms: O_2  and  C_3
REMARK    3  A    between atoms: C_6  and  C_9
REMARK    4  A    between atoms: C_9  and  N_10
REMARK    5  A    between atoms: C_11  and  C_13
REMARK    6  A    between atoms: C_26  and  O_28
REMARK    7  A    between atoms: O_28  and  C_29
REMARK    8  A    between atoms: C_30  and  C_32
REMARK    9  A    between atoms: C_35  and  C_38
REMARK                            x       y       z     vdW  Elec       q    Type
REMARK                         _______ _______ _______ _____ _____    ______ ____
ROOT
ATOM      1  C   UNL     1      -7.052  -3.705  -2.999  0.00  0.00    +0.124 C 
ATOM      2  C   UNL     1      -8.399  -4.423  -2.994  0.00  0.00    +0.092 C 
ATOM      3  C   UNL     1      -9.420  -3.611  -2.226  0.00  0.00    +0.042 C 
ATOM      4  C   UNL     1     -10.825  -3.844  -2.814  0.00  0.00    +0.110 C 
ATOM      5  N   UNL     1     -11.324  -5.117  -2.466  0.00  0.00    -0.298 N 
ATOM      6  C   UNL     1     -10.634  -6.363  -2.853  0.00  0.00    +0.127 C 
ATOM      7  C   UNL     1      -9.427  -6.545  -1.963  0.00  0.00    +0.127 C 
ATOM      8  N   UNL     1      -8.267  -5.783  -2.448  0.00  0.00    -0.296 N 
ATOM      9  C   UNL     1      -7.079  -6.408  -2.394  0.00  0.00    +0.218 C 
ATOM     10  O   UNL     1      -7.062  -7.538  -1.953  0.00  0.00    -0.276 OA
ATOM     11  C   UNL     1      -5.777  -5.819  -2.835  0.00  0.00    +0.128 C 
ATOM     12  C   UNL     1      -6.027  -4.580  -3.731  0.00  0.00    +0.140 C 
ATOM     13  C   UNL     1     -12.466  -5.198  -1.756  0.00  0.00    +0.246 C 
ATOM     14  O   UNL     1     -13.049  -4.187  -1.427  0.00  0.00    -0.273 OA
ENDROOT
BRANCH  13  15
ATOM     15  C   UNL     1     -13.020  -6.546  -1.371  0.00  0.00    +0.238 C 
ATOM     16  C   UNL     1     -13.815  -7.147  -2.517  0.00  0.00    +0.036 C 
ATOM     17  C   UNL     1     -15.049  -7.270  -2.022  0.00  0.00    +0.065 C 
ATOM     18  N   UNL     1     -15.101  -6.828  -0.746  0.00  0.00    -0.158 NA
ATOM     19  N   UNL     1     -14.024  -6.410  -0.302  0.00  0.00    -0.170 NA
BRANCH  17  20
ATOM     20  C   UNL     1     -16.224  -7.827  -2.784  0.00  0.00    +0.039 C 
ATOM     21  C   UNL     1     -17.605  -7.709  -2.136  0.00  0.00    +0.010 C 
ATOM     22  C   UNL     1     -16.910  -9.070  -2.214  0.00  0.00    +0.010 C 
ENDBRANCH  17  20
ENDBRANCH  13  15
BRANCH   1  24
ATOM     23  N   UNL     1      -5.423  -2.855  -1.343  0.00  0.00    -0.311 N 
ATOM     24  C   UNL     1      -6.597  -3.473  -1.582  0.00  0.00    +0.221 C 
ATOM     25  O   UNL     1      -7.288  -3.841  -0.655  0.00  0.00    -0.275 OA
ATOM     26  H   UNL     1      -4.871  -2.561  -2.084  0.00  0.00    +0.149 HD
BRANCH  23  27
ATOM     27  C   UNL     1      -4.981  -2.629   0.035  0.00  0.00    +0.139 C 
BRANCH  27  31
ATOM     28  C   UNL     1      -1.200  -0.637   0.010  0.00  0.00    +0.120 A 
ATOM     29  C   UNL     1      -2.375   0.101   0.019  0.00  0.00    +0.046 A 
ATOM     30  C   UNL     1      -3.596  -0.545   0.027  0.00  0.00    +0.009 A 
ATOM     31  C   UNL     1      -3.648  -1.927   0.026  0.00  0.00    -0.030 A 
ATOM     32  C   UNL     1      -2.479  -2.665   0.017  0.00  0.00    +0.009 A 
ATOM     33  C   UNL     1      -1.255  -2.024   0.003  0.00  0.00    +0.046 A 
BRANCH  28  35
ATOM     34  C   UNL     1      -0.017   1.425   0.010  0.00  0.00    +0.277 C 
ATOM     35  O   UNL     1       0.002  -0.004   0.002  0.00  0.00    -0.495 OA
ENDBRANCH  28  35
ENDBRANCH  27  31
ENDBRANCH  23  27
ENDBRANCH   1  24
BRANCH  12  36
ATOM     36  O   UNL     1      -4.809  -3.853  -3.908  0.00  0.00    -0.378 OA
ATOM     37  C   UNL     1      -4.075  -4.225  -5.076  0.00  0.00    +0.194 C 
ENDBRANCH  12  36
TORSDOF 7
