REMARK  Name = ZINC51397591
REMARK  2 active torsions:
REMARK  status: ('A' for Active; 'I' for Inactive)
REMARK    1  A    between atoms: C_6  and  C_7
REMARK    2  A    between atoms: C_7  and  N_8
REMARK                            x       y       z     vdW  Elec       q    Type
REMARK                         _______ _______ _______ _____ _____    ______ ____
ROOT
ATOM      1  C   UNL     1       1.189   1.368  -1.124  0.00  0.00    +0.021 A 
ATOM      2  C   UNL     1       1.180   1.974   0.126  0.00  0.00    +0.036 A 
ATOM      3  C   UNL     1       1.180   1.186   1.260  0.00  0.00    +0.128 A 
ATOM      4  N   UNL     1       1.189  -0.131   1.168  0.00  0.00    -0.239 NA
ATOM      5  C   UNL     1       1.198  -0.745  -0.005  0.00  0.00    +0.123 A 
ATOM      6  C   UNL     1       1.198  -0.013  -1.188  0.00  0.00    -0.024 A 
ATOM      7  N   UNL     1       1.208  -2.135  -0.054  0.00  0.00    -0.307 N 
ATOM      8  C   UNL     1      -0.053  -2.888   0.021  0.00  0.00    +0.135 C 
ATOM      9  C   UNL     1      -0.060  -3.894  -1.138  0.00  0.00    +0.179 C 
ATOM     10  O   UNL     1       1.121  -4.689  -1.054  0.00  0.00    -0.373 OA
ATOM     11  C   UNL     1       2.350  -3.983  -1.230  0.00  0.00    +0.139 C 
ATOM     12  C   UNL     1       2.469  -2.856  -0.187  0.00  0.00    +0.104 C 
ATOM     13  C   UNL     1       2.832  -3.575   1.121  0.00  0.00    +0.025 C 
ATOM     14  C   UNL     1       3.486  -4.910   0.716  0.00  0.00    +0.004 C 
ATOM     15  C   UNL     1       3.498  -4.944  -0.816  0.00  0.00    +0.033 C 
ATOM     16 BR   UNL     1       1.168   3.860   0.273  0.00  0.00    -0.049 Br
ENDROOT
BRANCH   6  17
ATOM     17  C   UNL     1       1.207  -0.717  -2.521  0.00  0.00    -0.047 C 
BRANCH  17  18
ATOM     18  N   UNL     1      -0.162  -1.113  -2.875  0.00  0.00    +0.381 N 
ATOM     19  H   UNL     1      -0.142  -1.682  -3.708  0.00  0.00    -0.090 HD
ATOM     20  H   UNL     1      -0.566  -1.641  -2.116  0.00  0.00    -0.090 HD
ATOM     21  H   UNL     1      -0.718  -0.288  -3.044  0.00  0.00    -0.090 HD
ENDBRANCH  17  18
ENDBRANCH   6  17
TORSDOF 2
