REMARK  Name = ZINC08789955
REMARK  7 active torsions:
REMARK  status: ('A' for Active; 'I' for Inactive)
REMARK    1  A    between atoms: C_1  and  C_2
REMARK    2  A    between atoms: C_16  and  C_18
REMARK    3  A    between atoms: C_18  and  C_19
REMARK    4  A    between atoms: C_19  and  C_20
REMARK    5  A    between atoms: N_24  and  C_27
REMARK    6  A    between atoms: C_27  and  C_28
REMARK    7  A    between atoms: C_28  and  C_29
REMARK                            x       y       z     vdW  Elec       q    Type
REMARK                         _______ _______ _______ _____ _____    ______ ____
ROOT
ATOM      1  C   UNL     1       0.320   6.861   2.811  0.00  0.00    +0.046 C 
ATOM      2  C   UNL     1      -0.049   5.411   2.628  0.00  0.00    -0.028 A 
ATOM      3  C   UNL     1      -1.306   4.971   2.988  0.00  0.00    +0.025 A 
ATOM      4  C   UNL     1      -1.654   3.642   2.824  0.00  0.00    +0.042 A 
ATOM      5  C   UNL     1      -0.735   2.750   2.296  0.00  0.00    +0.024 A 
ATOM      6  C   UNL     1       0.520   3.185   1.937  0.00  0.00    -0.026 A 
ATOM      7  C   UNL     1       0.881   4.520   2.097  0.00  0.00    +0.039 A 
ATOM      8  N   UNL     1       2.194   4.721   1.664  0.00  0.00    -0.286 N 
ATOM      9  C   UNL     1       2.759   3.586   1.212  0.00  0.00    +0.211 C 
ATOM     10  O   UNL     1       3.884   3.460   0.776  0.00  0.00    -0.277 OA
ATOM     11  C   UNL     1       1.724   2.503   1.352  0.00  0.00    +0.050 C 
ATOM     12  C   UNL     1       1.403   1.856  -0.001  0.00  0.00    +0.088 C 
ATOM     13  C   UNL     1       2.260   0.560  -0.028  0.00  0.00    +0.073 C 
ATOM     14  C   UNL     1       3.022   0.561   1.315  0.00  0.00    -0.057 C 
ATOM     15  C   UNL     1       1.227  -0.543  -0.016  0.00  0.00    +0.224 C 
ATOM     16  O   UNL     1       1.470  -1.731  -0.022  0.00  0.00    -0.275 OA
ATOM     17  N   UNL     1       0.002  -0.004   0.002  0.00  0.00    -0.241 N 
ATOM     18  C   UNL     1      -0.016   1.334   0.009  0.00  0.00    +0.225 C 
ATOM     19  O   UNL     1      -1.015   2.021   0.018  0.00  0.00    -0.275 OA
ATOM     20 CL   UNL     1      -3.237   3.094   3.278  0.00  0.00    -0.084 Cl
ATOM     21  H   UNL     1       2.646   5.579   1.687  0.00  0.00    +0.155 HD
ATOM     22  N   UNL     1       2.209   1.415   2.183  0.00  0.00    +0.394 N 
ATOM     23  H   UNL     1       1.420   0.882   2.567  0.00  0.00    -0.083 HD
ATOM     24  H   UNL     1       2.780   1.784   2.953  0.00  0.00    -0.083 HD
ENDROOT
BRANCH  14  25
ATOM     25  C   UNL     1       3.124  -0.862   1.869  0.00  0.00    -0.004 C 
BRANCH  25  26
ATOM     26  C   UNL     1       3.988  -0.856   3.132  0.00  0.00    +0.123 C 
BRANCH  26  27
ATOM     27  C   UNL     1       4.089  -2.257   3.678  0.00  0.00    +0.356 C 
ATOM     28  O   UNL     1       3.528  -3.167   3.115  0.00  0.00    -0.246 OA
ATOM     29  O   UNL     1       4.802  -2.494   4.790  0.00  0.00    -0.246 OA
ENDBRANCH  26  27
ENDBRANCH  25  26
ENDBRANCH  14  25
BRANCH  17  30
ATOM     30  C   UNL     1      -1.219  -0.813   0.012  0.00  0.00    +0.121 C 
BRANCH  30  31
ATOM     31  C   UNL     1      -1.662  -1.087  -1.427  0.00  0.00    +0.054 C 
BRANCH  31  32
ATOM     32  C   UNL     1      -2.918  -1.919  -1.416  0.00  0.00    -0.046 A 
ATOM     33  C   UNL     1      -2.833  -3.299  -1.430  0.00  0.00    +0.004 A 
ATOM     34  C   UNL     1      -3.986  -4.062  -1.416  0.00  0.00    +0.000 A 
ATOM     35  C   UNL     1      -5.223  -3.446  -1.397  0.00  0.00    +0.000 A 
ATOM     36  C   UNL     1      -5.308  -2.066  -1.389  0.00  0.00    +0.000 A 
ATOM     37  C   UNL     1      -4.155  -1.303  -1.398  0.00  0.00    +0.004 A 
ENDBRANCH  31  32
ENDBRANCH  30  31
ENDBRANCH  17  30
TORSDOF 6
