REMARK  Name = ZINC63547022
REMARK  6 active torsions:
REMARK  status: ('A' for Active; 'I' for Inactive)
REMARK    1  A    between atoms: C_4  and  C_7
REMARK    2  A    between atoms: C_11  and  C_21
REMARK    3  A    between atoms: C_15  and  C_17
REMARK    4  A    between atoms: N_23  and  C_24
REMARK    5  A    between atoms: C_24  and  C_25
REMARK    6  A    between atoms: C_25  and  C_26
REMARK                            x       y       z     vdW  Elec       q    Type
REMARK                         _______ _______ _______ _____ _____    ______ ____
ROOT
ATOM      1  C   UNL     1       3.697  -0.686  -0.038  0.00  0.00    +0.050 C 
ATOM      2  N   UNL     1       3.716  -2.002  -0.051  0.00  0.00    -0.342 N 
ATOM      3  C   UNL     1       4.889  -2.684  -0.067  0.00  0.00    +0.116 C 
ATOM      4  C   UNL     1       5.099  -4.016  -0.082  0.00  0.00    +0.045 C 
ATOM      5  C   UNL     1       6.597  -4.220  -0.096  0.00  0.00    +0.185 C 
ATOM      6  N   UNL     1       7.154  -2.856  -0.088  0.00  0.00    -0.218 NA
ATOM      7  N   UNL     1       6.092  -1.993  -0.070  0.00  0.00    -0.215 N 
ATOM      8  C   UNL     1       6.086  -0.618  -0.057  0.00  0.00    +0.133 C 
ATOM      9  C   UNL     1       4.911   0.044  -0.047  0.00  0.00    +0.055 C 
ATOM     10  H   UNL     1       7.749  -2.713   0.715  0.00  0.00    +0.146 HD
ATOM     11  H   UNL     1       2.878  -2.492  -0.049  0.00  0.00    +0.167 HD
ENDROOT
BRANCH   1  15
ATOM     12  C   UNL     1      -0.017   1.379   0.010  0.00  0.00    +0.000 A 
ATOM     13  C   UNL     1       1.169   2.093   0.002  0.00  0.00    +0.001 A 
ATOM     14  C   UNL     1       2.377   1.428  -0.013  0.00  0.00    +0.010 A 
ATOM     15  C   UNL     1       2.403   0.033  -0.021  0.00  0.00    -0.002 A 
ATOM     16  C   UNL     1       1.205  -0.680  -0.013  0.00  0.00    +0.010 A 
ATOM     17  C   UNL     1       0.002  -0.004   0.002  0.00  0.00    +0.001 A 
ENDBRANCH   1  15
BRANCH   8  18
ATOM     18  C   UNL     1       7.385   0.145  -0.060  0.00  0.00    +0.432 C 
ATOM     19  F   UNL     1       7.119   1.519  -0.045  0.00  0.00    -0.165 F 
ATOM     20  F   UNL     1       8.131  -0.198   1.072  0.00  0.00    -0.165 F 
ATOM     21  F   UNL     1       8.111  -0.176  -1.212  0.00  0.00    -0.165 F 
ENDBRANCH   8  18
BRANCH   5  22
ATOM     22  C   UNL     1       7.037  -4.979   1.130  0.00  0.00    +0.236 C 
ATOM     23  O   UNL     1       7.802  -4.465   1.918  0.00  0.00    -0.274 OA
ATOM     24  N   UNL     1       6.579  -6.227   1.350  0.00  0.00    -0.313 N 
ATOM     25  H   UNL     1       5.966  -6.637   0.720  0.00  0.00    +0.149 HD
BRANCH  24  26
ATOM     26  C   UNL     1       7.006  -6.964   2.542  0.00  0.00    +0.108 C 
BRANCH  26  27
ATOM     27  C   UNL     1       6.346  -8.344   2.552  0.00  0.00    +0.052 C 
BRANCH  27  28
ATOM     28  C   UNL     1       6.786  -9.103   3.778  0.00  0.00    -0.040 C 
ATOM     29  C   UNL     1       6.133  -9.187   4.959  0.00  0.00    +0.000 A 
ATOM     30  C   UNL     1       4.867  -8.618   5.439  0.00  0.00    +0.030 A 
ATOM     31  C   UNL     1       4.465  -8.885   6.703  0.00  0.00    +0.042 A 
ATOM     32  C   UNL     1       5.226  -9.690   7.564  0.00  0.00    +0.022 A 
ATOM     33  C   UNL     1       6.399 -10.246   7.195  0.00  0.00    +0.027 A 
ATOM     34  C   UNL     1       6.917 -10.032   5.888  0.00  0.00    +0.043 A 
ATOM     35  N   UNL     1       8.012 -10.454   5.303  0.00  0.00    -0.380 N 
ATOM     36  C   UNL     1       8.043  -9.929   3.933  0.00  0.00    +0.144 C 
ATOM     37 CL   UNL     1       2.969  -8.215   7.274  0.00  0.00    -0.084 Cl
ATOM     38  H   UNL     1       8.686 -11.022   5.707  0.00  0.00    +0.160 HD
ENDBRANCH  27  28
ENDBRANCH  26  27
ENDBRANCH  24  26
ENDBRANCH   5  22
TORSDOF 6
