REMARK  Name = ZINC13914859
REMARK  12 active torsions:
REMARK  status: ('A' for Active; 'I' for Inactive)
REMARK    1  A    between atoms: C_1  and  C_2
REMARK    2  A    between atoms: C_2  and  O_3
REMARK    3  A    between atoms: O_3  and  C_4
REMARK    4  A    between atoms: C_6  and  C_20
REMARK    5  A    between atoms: C_9  and  O_10
REMARK    6  A    between atoms: O_10  and  C_11
REMARK    7  A    between atoms: C_11  and  C_12
REMARK    8  A    between atoms: C_22  and  C_29
REMARK    9  A    between atoms: C_23  and  C_28
REMARK   10  A    between atoms: C_29  and  O_31
REMARK   11  A    between atoms: O_31  and  C_32
REMARK   12  A    between atoms: C_32  and  C_33
REMARK                            x       y       z     vdW  Elec       q    Type
REMARK                         _______ _______ _______ _____ _____    ______ ____
ROOT
ATOM      1  C   UNL     1      -2.810  -2.745   0.833  0.00  0.00    +0.162 A 
ATOM      2  C   UNL     1      -3.822  -3.677   0.665  0.00  0.00    +0.055 A 
ATOM      3  C   UNL     1      -5.117  -3.255   0.427  0.00  0.00    -0.019 A 
ATOM      4  C   UNL     1      -5.405  -1.905   0.356  0.00  0.00    +0.009 A 
ATOM      5  C   UNL     1      -4.401  -0.970   0.527  0.00  0.00    +0.050 A 
ATOM      6  C   UNL     1      -3.100  -1.386   0.761  0.00  0.00    +0.162 A 
ENDROOT
BRANCH   3   7
ATOM      7  C   UNL     1      -6.216  -4.269   0.244  0.00  0.00    +0.141 C 
ATOM      8  C   UNL     1      -6.466  -4.426  -1.242  0.00  0.00    +0.078 C 
ATOM      9  C   UNL     1      -7.711  -4.174  -1.701  0.00  0.00    +0.019 C 
ATOM     10  N   UNL     1      -8.710  -3.791  -0.853  0.00  0.00    -0.300 N 
ATOM     11  C   UNL     1      -8.546  -3.637   0.467  0.00  0.00    +0.135 C 
ATOM     12  S   UNL     1      -9.885  -3.152   1.416  0.00  0.00    -0.019 S 
ATOM     13  N   UNL     1      -7.361  -3.852   1.072  0.00  0.00    -0.315 N 
ATOM     14  C   UNL     1      -8.002  -4.318  -3.172  0.00  0.00    +0.061 C 
ATOM     15  H   UNL     1      -9.588  -3.621  -1.228  0.00  0.00    +0.154 HD
ATOM     16  H   UNL     1      -7.264  -3.735   2.030  0.00  0.00    +0.149 HD
BRANCH   8  17
ATOM     17  C   UNL     1      -5.430  -4.823  -2.119  0.00  0.00    +0.339 C 
ATOM     18  O   UNL     1      -5.103  -5.994  -2.185  0.00  0.00    -0.245 OA
BRANCH  17  19
ATOM     19  O   UNL     1      -4.803  -3.904  -2.884  0.00  0.00    -0.462 OA
BRANCH  19  20
ATOM     20  C   UNL     1      -3.694  -4.356  -3.663  0.00  0.00    +0.229 C 
ATOM     21  C   UNL     1      -3.042  -3.161  -4.363  0.00  0.00    +0.048 C 
ENDBRANCH  19  20
ENDBRANCH  17  19
ENDBRANCH   8  17
ENDBRANCH   3   7
BRANCH   1  22
ATOM     22  O   UNL     1      -1.536  -3.159   1.067  0.00  0.00    -0.489 OA
BRANCH  22  24
ATOM     23  C   UNL     1       0.132  -4.822   1.606  0.00  0.00    +0.048 C 
ATOM     24  C   UNL     1      -1.330  -4.562   1.237  0.00  0.00    +0.226 C 
ENDBRANCH  22  24
ENDBRANCH   1  22
BRANCH   6  25
ATOM     25  O   UNL     1      -2.110  -0.468   0.925  0.00  0.00    -0.484 OA
BRANCH  25  26
ATOM     26  C   UNL     1      -2.482   0.909   0.838  0.00  0.00    +0.266 C 
BRANCH  26  27
ATOM     27  C   UNL     1      -1.263   1.772   1.044  0.00  0.00    +0.008 A 
ATOM     28  C   UNL     1      -0.032   1.186   1.273  0.00  0.00    +0.010 A 
ATOM     29  C   UNL     1       1.086   1.976   1.456  0.00  0.00    +0.020 A 
ATOM     30  C   UNL     1       0.974   3.355   1.415  0.00  0.00    +0.042 A 
ATOM     31  C   UNL     1      -0.258   3.942   1.192  0.00  0.00    +0.040 A 
ATOM     32  C   UNL     1      -1.378   3.150   1.009  0.00  0.00    +0.049 A 
ATOM     33 CL   UNL     1      -2.925   3.885   0.728  0.00  0.00    -0.083 Cl
ATOM     34 CL   UNL     1       2.380   4.347   1.646  0.00  0.00    -0.083 Cl
ENDBRANCH  26  27
ENDBRANCH  25  26
ENDBRANCH   6  25
TORSDOF 9
