REMARK  Name = ZINC52094226
REMARK  3 active torsions:
REMARK  status: ('A' for Active; 'I' for Inactive)
REMARK    1  A    between atoms: C_5  and  C_6
REMARK    2  A    between atoms: C_6  and  C_8
REMARK    3  A    between atoms: C_6  and  N_21
REMARK                            x       y       z     vdW  Elec       q    Type
REMARK                         _______ _______ _______ _____ _____    ______ ____
ROOT
ATOM      1  C   UNL     1      -1.368  -1.488   1.407  0.00  0.00    -0.010 A 
ATOM      2  C   UNL     1      -0.790  -2.682   1.794  0.00  0.00    +0.034 A 
ATOM      3  C   UNL     1      -0.986  -3.159   3.080  0.00  0.00    +0.067 A 
ATOM      4  C   UNL     1      -1.768  -2.432   3.981  0.00  0.00    +0.068 A 
ATOM      5  C   UNL     1      -2.345  -1.235   3.584  0.00  0.00    +0.043 A 
ATOM      6  C   UNL     1      -2.139  -0.764   2.301  0.00  0.00    +0.025 A 
ATOM      7 BR   UNL     1      -2.918   0.872   1.762  0.00  0.00    -0.050 Br
ATOM      8  N   UNL     1      -1.782  -3.151   5.174  0.00  0.00    -0.306 N 
ATOM      9  H   UNL     1      -2.246  -2.893   5.986  0.00  0.00    +0.170 HD
ATOM     10  C   UNL     1      -1.044  -4.264   5.007  0.00  0.00    +0.325 A 
ATOM     11  O   UNL     1      -0.852  -5.111   5.859  0.00  0.00    -0.247 OA
ATOM     12  N   UNL     1      -0.550  -4.298   3.755  0.00  0.00    -0.306 N 
ATOM     13  H   UNL     1       0.013  -4.996   3.385  0.00  0.00    +0.170 HD
ENDROOT
BRANCH   1  14
ATOM     14  C   UNL     1      -1.155  -0.970   0.009  0.00  0.00    +0.120 C 
BRANCH  14  19
ATOM     15  C   UNL     1      -0.016   1.345   0.009  0.00  0.00    +0.017 A 
ATOM     16  C   UNL     1       1.189   2.066   0.002  0.00  0.00    -0.037 A 
ATOM     17  C   UNL     1       2.330   1.335  -0.017  0.00  0.00    -0.007 A 
ATOM     18  S   UNL     1       1.753  -0.347  -0.017  0.00  0.00    -0.096 S 
ATOM     19  C   UNL     1       0.002  -0.004   0.002  0.00  0.00    +0.011 A 
ATOM     20  C   UNL     1       3.557   2.200  -0.032  0.00  0.00    +0.043 C 
ATOM     21  C   UNL     1       3.045   3.595  -0.452  0.00  0.00    +0.010 C 
ATOM     22  C   UNL     1       1.576   3.547   0.013  0.00  0.00    +0.036 C 
ENDBRANCH  14  19
BRANCH  14  23
ATOM     23  N   UNL     1      -0.860  -2.093  -0.891  0.00  0.00    -0.320 NA
ATOM     24  H   UNL     1      -0.028  -2.583  -0.597  0.00  0.00    +0.119 HD
ATOM     25  H   UNL     1      -1.647  -2.722  -0.954  0.00  0.00    +0.119 HD
ENDBRANCH  14  23
ENDBRANCH   1  14
TORSDOF 3
