REMARK  Name = ZINC63141851
REMARK  8 active torsions:
REMARK  status: ('A' for Active; 'I' for Inactive)
REMARK    1  A    between atoms: C_1  and  O_2
REMARK    2  A    between atoms: O_2  and  C_3
REMARK    3  A    between atoms: C_3  and  C_4
REMARK    4  A    between atoms: C_3  and  O_36
REMARK    5  A    between atoms: C_4  and  N_5
REMARK    6  A    between atoms: C_25  and  C_27
REMARK    7  A    between atoms: C_30  and  N_33
REMARK    8  A    between atoms: O_36  and  C_37
REMARK                            x       y       z     vdW  Elec       q    Type
REMARK                         _______ _______ _______ _____ _____    ______ ____
ROOT
ATOM      1  N   UNL     1      -0.577  -2.620  -1.075  0.00  0.00    -0.286 N 
ATOM      2  C   UNL     1      -0.896  -2.911   0.336  0.00  0.00    +0.203 C 
ATOM      3  C   UNL     1      -2.237  -2.290   0.663  0.00  0.00    +0.234 C 
ATOM      4  O   UNL     1      -2.419  -1.682   1.697  0.00  0.00    -0.274 OA
ATOM      5  N   UNL     1      -3.238  -2.448  -0.264  0.00  0.00    -0.279 N 
ATOM      6  C   UNL     1      -2.900  -3.264  -1.411  0.00  0.00    +0.167 C 
ATOM      7  C   UNL     1      -1.581  -2.808  -1.982  0.00  0.00    +0.237 C 
ATOM      8  O   UNL     1      -1.421  -2.624  -3.170  0.00  0.00    -0.274 OA
ATOM      9  C   UNL     1      -3.946  -3.468  -2.477  0.00  0.00    +0.065 C 
ATOM     10  C   UNL     1      -5.116  -2.557  -2.226  0.00  0.00    -0.034 C 
ATOM     11  C   UNL     1      -5.870  -1.832  -3.041  0.00  0.00    -0.001 A 
ATOM     12  C   UNL     1      -5.869  -1.685  -4.506  0.00  0.00    +0.010 A 
ATOM     13  C   UNL     1      -6.792  -0.833  -5.024  0.00  0.00    +0.001 A 
ATOM     14  C   UNL     1      -7.707  -0.121  -4.242  0.00  0.00    +0.002 A 
ATOM     15  C   UNL     1      -7.782  -0.199  -2.889  0.00  0.00    +0.026 A 
ATOM     16  C   UNL     1      -6.863  -1.066  -2.229  0.00  0.00    +0.043 A 
ATOM     17  N   UNL     1      -6.722  -1.336  -0.966  0.00  0.00    -0.375 N 
ATOM     18  C   UNL     1      -5.645  -2.322  -0.813  0.00  0.00    +0.131 C 
ATOM     19  C   UNL     1      -4.488  -1.744  -0.013  0.00  0.00    +0.133 C 
ATOM     20  H   UNL     1      -7.242  -0.949  -0.244  0.00  0.00    +0.160 HD
ENDROOT
BRANCH  19  21
ATOM     21  C   UNL     1      -4.796  -1.802   1.461  0.00  0.00    -0.025 A 
ATOM     22  C   UNL     1      -4.554  -2.962   2.173  0.00  0.00    +0.008 A 
ATOM     23  C   UNL     1      -4.836  -3.014   3.525  0.00  0.00    +0.033 A 
ATOM     24  C   UNL     1      -5.361  -1.907   4.165  0.00  0.00    +0.126 A 
ATOM     25  C   UNL     1      -5.602  -0.747   3.453  0.00  0.00    +0.033 A 
ATOM     26  C   UNL     1      -5.315  -0.693   2.102  0.00  0.00    +0.008 A 
BRANCH  24  27
ATOM     27  N   UNL     1      -5.664  -1.964   5.613  0.00  0.00    +0.056 N 
ATOM     28  O   UNL     1      -5.453  -2.979   6.235  0.00  0.00    -0.126 OA
ATOM     29  O   UNL     1      -6.123  -0.996   6.173  0.00  0.00    -0.126 OA
ENDBRANCH  24  27
ENDBRANCH  19  21
BRANCH   1  30
ATOM     30  C   UNL     1       0.748  -2.147  -1.482  0.00  0.00    +0.169 C 
BRANCH  30  31
ATOM     31  C   UNL     1       0.781  -0.618  -1.432  0.00  0.00    +0.266 C 
BRANCH  31  33
ATOM     32  C   UNL     1       0.938   1.157   0.172  0.00  0.00    +0.197 C 
ATOM     33  O   UNL     1       0.506  -0.178  -0.100  0.00  0.00    -0.353 OA
ENDBRANCH  31  33
BRANCH  31  34
ATOM     34  O   UNL     1      -0.207  -0.091  -2.321  0.00  0.00    -0.353 OA
ATOM     35  C   UNL     1      -0.002   1.279  -2.671  0.00  0.00    +0.197 C 
ENDBRANCH  31  34
ENDBRANCH  30  31
ENDBRANCH   1  30
TORSDOF 6
