REMARK  Name = ZINC19755959
REMARK  7 active torsions:
REMARK  status: ('A' for Active; 'I' for Inactive)
REMARK    1  A    between atoms: C_1  and  C_2
REMARK    2  A    between atoms: C_2  and  C_3
REMARK    3  A    between atoms: C_8  and  N_9
REMARK    4  A    between atoms: C_10  and  C_12
REMARK    5  A    between atoms: C_12  and  N_13
REMARK    6  A    between atoms: C_15  and  C_25
REMARK    7  A    between atoms: C_22  and  N_24
REMARK                            x       y       z     vdW  Elec       q    Type
REMARK                         _______ _______ _______ _____ _____    ______ ____
ROOT
ATOM      1  N   UNL     1      -3.979  -0.678   5.031  0.00  0.00    -0.315 N 
ATOM      2  C   UNL     1      -4.431  -2.040   5.359  0.00  0.00    +0.150 C 
ATOM      3  C   UNL     1      -3.897  -2.381   6.758  0.00  0.00    +0.188 C 
ATOM      4  O   UNL     1      -4.388  -1.411   7.687  0.00  0.00    -0.486 OA
ATOM      5  C   UNL     1      -4.247  -0.098   7.366  0.00  0.00    +0.144 A 
ATOM      6  C   UNL     1      -4.039   0.294   6.047  0.00  0.00    +0.073 A 
ATOM      7  C   UNL     1      -3.896   1.635   5.733  0.00  0.00    +0.028 A 
ATOM      8  C   UNL     1      -3.952   2.589   6.733  0.00  0.00    +0.025 A 
ATOM      9  C   UNL     1      -4.151   2.201   8.050  0.00  0.00    +0.028 A 
ATOM     10  C   UNL     1      -4.307   0.862   8.364  0.00  0.00    +0.070 A 
ATOM     11  C   UNL     1      -4.379  -3.775   7.166  0.00  0.00    +0.053 C 
ENDROOT
BRANCH   9  12
ATOM     12  N   UNL     1      -4.207   3.168   9.062  0.00  0.00    -0.358 N 
ATOM     13  H   UNL     1      -4.106   4.107   8.842  0.00  0.00    +0.142 HD
ATOM     14  H   UNL     1      -4.346   2.898   9.983  0.00  0.00    +0.142 HD
ENDBRANCH   9  12
BRANCH   1  15
ATOM     15  C   UNL     1      -3.478  -0.347   3.694  0.00  0.00    +0.201 C 
BRANCH  15  17
ATOM     16  N   UNL     1      -1.309  -0.339   2.505  0.00  0.00    -0.284 N 
ATOM     17  C   UNL     1      -1.990  -0.578   3.643  0.00  0.00    +0.235 C 
ATOM     18  O   UNL     1      -1.405  -0.980   4.627  0.00  0.00    -0.274 OA
ATOM     19  H   UNL     1      -1.764   0.044   1.739  0.00  0.00    +0.155 HD
BRANCH  16  25
ATOM     20  C   UNL     1       0.600  -1.100   1.236  0.00  0.00    -0.026 A 
ATOM     21  C   UNL     1       1.948  -1.393   1.163  0.00  0.00    +0.005 A 
ATOM     22  C   UNL     1       2.753  -1.237   2.276  0.00  0.00    +0.000 A 
ATOM     23  C   UNL     1       2.212  -0.786   3.466  0.00  0.00    +0.002 A 
ATOM     24  C   UNL     1       0.865  -0.491   3.546  0.00  0.00    +0.023 A 
ATOM     25  C   UNL     1       0.055  -0.642   2.429  0.00  0.00    +0.037 A 
BRANCH  20  27
ATOM     26  C   UNL     1      -0.393   0.066  -0.714  0.00  0.00    +0.009 C 
ATOM     27  C   UNL     1      -0.277  -1.270   0.022  0.00  0.00    +0.033 C 
ENDBRANCH  20  27
ENDBRANCH  16  25
ENDBRANCH  15  17
ENDBRANCH   1  15
TORSDOF 5
