REMARK  Name = ZINC39442613
REMARK  5 active torsions:
REMARK  status: ('A' for Active; 'I' for Inactive)
REMARK    1  A    between atoms: C_1  and  C_2
REMARK    2  A    between atoms: C_4  and  C_8
REMARK    3  A    between atoms: C_8  and  N_9
REMARK    4  A    between atoms: C_22  and  C_24
REMARK    5  A    between atoms: C_28  and  O_30
REMARK                            x       y       z     vdW  Elec       q    Type
REMARK                         _______ _______ _______ _____ _____    ______ ____
ROOT
ATOM      1  N   UNL     1      -0.447  -2.280   2.435  0.00  0.00    +0.391 N 
ATOM      2  C   UNL     1      -0.996  -0.933   2.639  0.00  0.00    -0.073 C 
ATOM      3  C   UNL     1      -0.143  -0.183   3.672  0.00  0.00    +0.019 C 
ATOM      4  C   UNL     1       0.029  -1.083   4.870  0.00  0.00    -0.022 A 
ATOM      5  H   UNL     1      -0.103  -3.888   6.305  0.00  0.00    +0.166 HD
ATOM      6  C   UNL     1       0.476  -0.761   6.206  0.00  0.00    +0.003 A 
ATOM      7  C   UNL     1       0.882   0.432   6.812  0.00  0.00    +0.010 A 
ATOM      8  C   UNL     1       1.248   0.365   8.133  0.00  0.00    +0.001 A 
ATOM      9  C   UNL     1       1.223  -0.823   8.844  0.00  0.00    +0.002 A 
ATOM     10  C   UNL     1       0.827  -2.019   8.270  0.00  0.00    +0.026 A 
ATOM     11  C   UNL     1       0.448  -1.981   6.930  0.00  0.00    +0.047 A 
ATOM     12  N   UNL     1       0.013  -2.953   6.075  0.00  0.00    -0.359 N 
ATOM     13  C   UNL     1      -0.235  -2.409   4.844  0.00  0.00    +0.011 A 
ATOM     14  C   UNL     1      -0.724  -3.125   3.607  0.00  0.00    +0.011 C 
ATOM     15  H   UNL     1       0.551  -2.216   2.299  0.00  0.00    -0.080 HD
ENDROOT
BRANCH  14  16
ATOM     16  C   UNL     1      -0.003  -4.440   3.466  0.00  0.00    -0.052 A 
ATOM     17  C   UNL     1       1.283  -4.472   2.958  0.00  0.00    +0.002 A 
ATOM     18  C   UNL     1       1.948  -5.677   2.826  0.00  0.00    +0.004 A 
ATOM     19  C   UNL     1       1.328  -6.853   3.201  0.00  0.00    +0.045 A 
ATOM     20  C   UNL     1       0.038  -6.824   3.711  0.00  0.00    +0.117 A 
ATOM     21  C   UNL     1      -0.624  -5.613   3.848  0.00  0.00    +0.047 A 
BRANCH  20  22
ATOM     22  O   UNL     1      -0.574  -7.980   4.081  0.00  0.00    -0.507 OA
ATOM     23  H   UNL     1      -0.426  -8.225   5.005  0.00  0.00    +0.292 HD
ENDBRANCH  20  22
ENDBRANCH  14  16
BRANCH   1  24
ATOM     24  C   UNL     1      -1.063  -2.882   1.245  0.00  0.00    -0.026 C 
BRANCH  24  28
ATOM     25  C   UNL     1       0.354   1.348  -0.147  0.00  0.00    +0.067 C 
ATOM     26  C   UNL     1       0.267  -0.155  -0.080  0.00  0.00    +0.053 C 
ATOM     27  N   UNL     1      -0.829  -0.836  -0.098  0.00  0.00    -0.263 NA
ATOM     28  C   UNL     1      -0.461  -2.255  -0.013  0.00  0.00    +0.204 C 
ATOM     29  N   UNL     1       1.006  -2.288   0.055  0.00  0.00    -0.265 NA
ATOM     30  C   UNL     1       1.419  -1.066   0.010  0.00  0.00    +0.130 C 
ENDBRANCH  24  28
ENDBRANCH   1  24
TORSDOF 4
