REMARK  Name = ZINC02499974
REMARK  3 active torsions:
REMARK  status: ('A' for Active; 'I' for Inactive)
REMARK    1  A    between atoms: C_1  and  C_2
REMARK    2  A    between atoms: C_5  and  C_8
REMARK    3  A    between atoms: C_11  and  C_19
REMARK                            x       y       z     vdW  Elec       q    Type
REMARK                         _______ _______ _______ _____ _____    ______ ____
ROOT
ATOM      1  C   UNL     1       0.059  -4.275  -0.021  0.00  0.00    +0.106 C 
ATOM      2  C   UNL     1      -1.353  -4.810   0.243  0.00  0.00    +0.058 C 
ATOM      3  C   UNL     1      -1.872  -4.262   1.578  0.00  0.00    +0.143 C 
ATOM      4  N   UNL     1      -0.850  -4.470   2.603  0.00  0.00    -0.226 N 
ATOM      5  C   UNL     1       0.459  -4.705   2.339  0.00  0.00    +0.215 A 
ATOM      6  N   UNL     1       1.082  -4.845   3.478  0.00  0.00    -0.202 NA
ATOM      7  C   UNL     1       0.211  -4.705   4.484  0.00  0.00    +0.247 A 
ATOM      8  N   UNL     1      -0.981  -4.475   3.992  0.00  0.00    -0.156 NA
ATOM      9  N   UNL     1       0.959  -4.765   1.041  0.00  0.00    -0.307 N 
ATOM     10  H   UNL     1       1.844  -5.110   0.845  0.00  0.00    +0.149 HD
ENDROOT
BRANCH   1  15
ATOM     11  C   UNL     1      -0.018   1.503   0.010  0.00  0.00    +0.044 C 
ATOM     12  C   UNL     1       0.002  -0.004   0.002  0.00  0.00    -0.050 A 
ATOM     13  C   UNL     1       0.006  -0.689  -1.199  0.00  0.00    +0.004 A 
ATOM     14  C   UNL     1       0.025  -2.071  -1.206  0.00  0.00    +0.006 A 
ATOM     15  C   UNL     1       0.040  -2.768  -0.013  0.00  0.00    -0.027 A 
ATOM     16  C   UNL     1       0.037  -2.084   1.188  0.00  0.00    +0.006 A 
ATOM     17  C   UNL     1       0.023  -0.702   1.195  0.00  0.00    +0.004 A 
ENDBRANCH   1  15
BRANCH   3  18
ATOM     18  C   UNL     1      -3.134  -4.989   1.966  0.00  0.00    -0.023 A 
ATOM     19  C   UNL     1      -3.111  -6.358   2.159  0.00  0.00    +0.007 A 
ATOM     20  C   UNL     1      -4.268  -7.025   2.514  0.00  0.00    +0.015 A 
ATOM     21  C   UNL     1      -5.449  -6.323   2.677  0.00  0.00    +0.018 A 
ATOM     22  C   UNL     1      -5.471  -4.954   2.483  0.00  0.00    +0.015 A 
ATOM     23  C   UNL     1      -4.313  -4.287   2.133  0.00  0.00    +0.007 A 
ATOM     24 BR   UNL     1      -7.033  -7.236   3.163  0.00  0.00    -0.050 Br
ENDBRANCH   3  18
TORSDOF 2
