REMARK  Name = ZINC43548620
REMARK  11 active torsions:
REMARK  status: ('A' for Active; 'I' for Inactive)
REMARK    1  A    between atoms: C_1  and  C_2
REMARK    2  A    between atoms: C_2  and  C_3
REMARK    3  A    between atoms: C_3  and  C_4
REMARK    4  A    between atoms: C_4  and  N_5
REMARK    5  A    between atoms: C_12  and  C_37
REMARK    6  A    between atoms: C_15  and  C_25
REMARK    7  A    between atoms: C_17  and  O_24
REMARK    8  A    between atoms: C_21  and  C_23
REMARK    9  A    between atoms: C_25  and  C_27
REMARK   10  A    between atoms: C_25  and  C_28
REMARK   11  A    between atoms: N_33  and  C_36
REMARK                            x       y       z     vdW  Elec       q    Type
REMARK                         _______ _______ _______ _____ _____    ______ ____
ROOT
ATOM      1  N   UNL     1      -2.475  -2.998  -0.382  0.00  0.00    -0.325 N 
ATOM      2  C   UNL     1      -2.736  -4.357  -0.316  0.00  0.00    +0.136 A 
ATOM      3  N   UNL     1      -3.902  -4.966  -0.306  0.00  0.00    -0.340 N 
ATOM      4  C   UNL     1      -4.003  -6.292  -0.240  0.00  0.00    +0.031 A 
ATOM      5  C   UNL     1      -2.819  -6.952  -0.183  0.00  0.00    +0.013 A 
ATOM      6  S   UNL     1      -1.638  -5.633  -0.237  0.00  0.00    -0.059 S 
ATOM      7  C   UNL     1      -2.600  -8.423  -0.102  0.00  0.00    +0.051 C 
ATOM      8  C   UNL     1      -3.912  -9.138  -0.473  0.00  0.00    -0.022 C 
ATOM      9  C   UNL     1      -3.806 -10.595   0.001  0.00  0.00    +0.008 C 
ATOM     10  C   UNL     1      -3.492 -10.608   1.499  0.00  0.00    +0.007 C 
ATOM     11  C   UNL     1      -4.610  -9.906   2.271  0.00  0.00    +0.029 C 
ATOM     12  C   UNL     1      -4.751  -8.463   1.778  0.00  0.00    +0.123 C 
ATOM     13  C   UNL     1      -5.067  -8.474   0.284  0.00  0.00    +0.033 C 
ATOM     14  C   UNL     1      -5.316  -7.059  -0.228  0.00  0.00    +0.039 C 
ATOM     15  C   UNL     1      -5.884  -7.122  -1.647  0.00  0.00    +0.014 C 
ATOM     16  C   UNL     1      -4.151  -9.070  -1.983  0.00  0.00    +0.012 C 
ATOM     17  H   UNL     1      -3.208  -2.364  -0.424  0.00  0.00    +0.148 HD
ATOM     18  H   UNL     1      -4.712  -4.433  -0.348  0.00  0.00    +0.167 HD
ENDROOT
BRANCH  12  19
ATOM     19  O   UNL     1      -3.528  -7.759   2.005  0.00  0.00    -0.391 OA
ATOM     20  H   UNL     1      -3.264  -7.718   2.934  0.00  0.00    +0.210 HD
ENDBRANCH  12  19
BRANCH  11  21
ATOM     21  C   UNL     1      -4.274  -9.903   3.763  0.00  0.00    +0.078 C 
ATOM     22  C   UNL     1      -4.139 -11.344   4.258  0.00  0.00    +0.017 C 
BRANCH  21  23
ATOM     23  C   UNL     1      -5.375  -9.211   4.525  0.00  0.00    +0.219 C 
ATOM     24  O   UNL     1      -6.497  -9.170   4.065  0.00  0.00    -0.275 OA
ATOM     25  N   UNL     1      -5.114  -8.639   5.716  0.00  0.00    -0.299 N 
ATOM     26  C   UNL     1      -3.740  -8.578   6.240  0.00  0.00    +0.123 C 
ATOM     27  C   UNL     1      -3.740  -9.128   7.670  0.00  0.00    +0.103 C 
ATOM     28  N   UNL     1      -4.741  -8.408   8.468  0.00  0.00    -0.302 NA
ATOM     29  C   UNL     1      -6.097  -8.628   7.947  0.00  0.00    +0.103 C 
ATOM     30  C   UNL     1      -6.193  -8.053   6.525  0.00  0.00    +0.123 C 
ATOM     31  C   UNL     1      -4.654  -8.784   9.886  0.00  0.00    +0.105 C 
ENDBRANCH  21  23
ENDBRANCH  11  21
BRANCH   1  32
ATOM     32  C   UNL     1      -1.091  -2.518  -0.388  0.00  0.00    +0.103 C 
BRANCH  32  33
ATOM     33  C   UNL     1      -1.081  -0.990  -0.465  0.00  0.00    +0.018 C 
BRANCH  33  35
ATOM     34  C   UNL     1       0.374   1.039  -0.548  0.00  0.00    +0.004 C 
ATOM     35  C   UNL     1       0.365  -0.489  -0.471  0.00  0.00    -0.002 C 
ENDBRANCH  33  35
ENDBRANCH  32  33
ENDBRANCH   1  32
TORSDOF 6
