REMARK  Name = ZINC13304682
REMARK  15 active torsions:
REMARK  status: ('A' for Active; 'I' for Inactive)
REMARK    1  A    between atoms: C_1  and  C_2
REMARK    2  A    between atoms: C_6  and  C_37
REMARK    3  A    between atoms: C_8  and  O_11
REMARK    4  A    between atoms: O_11  and  P_12
REMARK    5  A    between atoms: P_12  and  C_14
REMARK    6  A    between atoms: P_12  and  O_23
REMARK    7  A    between atoms: C_14  and  C_16
REMARK    8  A    between atoms: C_14  and  O_22
REMARK    9  A    between atoms: O_23  and  C_24
REMARK   10  A    between atoms: C_27  and  C_36
REMARK   11  A    between atoms: C_31  and  C_33
REMARK   12  A    between atoms: C_33  and  C_34
REMARK   13  A    between atoms: C_33  and  C_35
REMARK   14  A    between atoms: C_37  and  C_38
REMARK   15  A    between atoms: C_37  and  C_39
REMARK                            x       y       z     vdW  Elec       q    Type
REMARK                         _______ _______ _______ _____ _____    ______ ____
ROOT
ATOM      1  P   UNL     1      -1.049  -0.663   3.425  0.00  0.00    +0.366 P 
ATOM      2  O   UNL     1       0.093  -1.318   4.101  0.00  0.00    -0.255 OA
ENDROOT
BRANCH   1   3
ATOM      3  O   UNL     1      -1.903  -1.768   2.623  0.00  0.00    -0.302 OA
BRANCH   3   9
ATOM      4  C   UNL     1      -3.829  -1.796   1.028  0.00  0.00    +0.007 C 
ATOM      5  C   UNL     1      -4.234  -3.139   1.638  0.00  0.00    -0.012 C 
ATOM      6  C   UNL     1      -3.554  -4.274   0.870  0.00  0.00    +0.004 C 
ATOM      7  C   UNL     1      -2.035  -4.112   0.958  0.00  0.00    +0.006 C 
ATOM      8  C   UNL     1      -1.602  -4.157   2.425  0.00  0.00    +0.021 C 
ATOM      9  C   UNL     1      -2.282  -3.022   3.193  0.00  0.00    +0.132 C 
ATOM     10  C   UNL     1      -3.801  -3.185   3.104  0.00  0.00    +0.035 C 
BRANCH   8  11
ATOM     11  C   UNL     1      -0.084  -3.995   2.513  0.00  0.00    -0.012 C 
ATOM     12  C   UNL     1       0.366  -4.183   3.964  0.00  0.00    +0.007 C 
ATOM     13  C   UNL     1       0.594  -5.044   1.629  0.00  0.00    +0.007 C 
ENDBRANCH   8  11
ENDBRANCH   3   9
ENDBRANCH   1   3
BRANCH   1  14
ATOM     14  C   UNL     1      -2.111   0.142   4.669  0.00  0.00    +0.258 C 
BRANCH  14  15
ATOM     15  C   UNL     1      -3.052   1.098   3.982  0.00  0.00    -0.007 A 
ATOM     16  C   UNL     1      -2.691   2.421   3.813  0.00  0.00    +0.007 A 
ATOM     17  C   UNL     1      -3.553   3.297   3.179  0.00  0.00    +0.000 A 
ATOM     18  C   UNL     1      -4.780   2.852   2.724  0.00  0.00    +0.000 A 
ATOM     19  C   UNL     1      -5.143   1.529   2.898  0.00  0.00    +0.000 A 
ATOM     20  C   UNL     1      -4.279   0.652   3.527  0.00  0.00    +0.007 A 
ENDBRANCH  14  15
BRANCH  14  21
ATOM     21  O   UNL     1      -1.296   0.860   5.597  0.00  0.00    -0.375 OA
ATOM     22  H   UNL     1      -0.755   1.552   5.193  0.00  0.00    +0.211 HD
ENDBRANCH  14  21
ENDBRANCH   1  14
BRANCH   1  23
ATOM     23  O   UNL     1      -0.499   0.443   2.392  0.00  0.00    -0.302 OA
BRANCH  23  24
ATOM     24  C   UNL     1       0.788   1.052   2.517  0.00  0.00    +0.132 C 
ATOM     25  C   UNL     1       0.621   2.560   2.717  0.00  0.00    +0.035 C 
ATOM     26  C   UNL     1      -0.111   3.156   1.513  0.00  0.00    -0.012 C 
ATOM     27  C   UNL     1       0.701   2.897   0.242  0.00  0.00    +0.004 C 
ATOM     28  C   UNL     1       0.868   1.389   0.042  0.00  0.00    +0.006 C 
ATOM     29  C   UNL     1       1.600   0.793   1.246  0.00  0.00    +0.021 C 
ATOM     30  C   UNL     1      -0.279   4.663   1.712  0.00  0.00    +0.007 C 
BRANCH  29  31
ATOM     31  C   UNL     1       1.767  -0.715   1.046  0.00  0.00    -0.012 C 
ATOM     32  C   UNL     1       2.480  -0.977  -0.282  0.00  0.00    +0.007 C 
ATOM     33  C   UNL     1       2.599  -1.292   2.194  0.00  0.00    +0.007 C 
ENDBRANCH  29  31
ENDBRANCH  23  24
ENDBRANCH   1  23
TORSDOF 9
