REMARK  Name = ZINC02457780
REMARK  10 active torsions:
REMARK  status: ('A' for Active; 'I' for Inactive)
REMARK    1  A    between atoms: C_1  and  C_2
REMARK    2  A    between atoms: C_2  and  N_54
REMARK    3  A    between atoms: C_3  and  C_4
REMARK    4  A    between atoms: C_3  and  N_54
REMARK    5  A    between atoms: C_5  and  C_6
REMARK    6  A    between atoms: C_5  and  N_54
REMARK    7  A    between atoms: C_6  and  N_7
REMARK    8  A    between atoms: C_8  and  C_10
REMARK    9  A    between atoms: C_10  and  O_28
REMARK   10  A    between atoms: N_20  and  C_21
REMARK                            x       y       z     vdW  Elec       q    Type
REMARK                         _______ _______ _______ _____ _____    ______ ____
ROOT
ATOM      1  C   UNL     1       2.643   3.639  -0.541  0.00  0.00    +0.247 C 
ATOM      2  C   UNL     1       1.270   3.023  -0.685  0.00  0.00    +0.033 A 
ATOM      3  C   UNL     1       0.257   3.682  -1.342  0.00  0.00    +0.010 A 
ATOM      4  C   UNL     1      -0.989   3.087  -1.455  0.00  0.00    +0.001 A 
ATOM      5  C   UNL     1      -1.208   1.833  -0.915  0.00  0.00    +0.002 A 
ATOM      6  C   UNL     1      -0.194   1.172  -0.250  0.00  0.00    +0.024 A 
ATOM      7  C   UNL     1       1.056   1.765  -0.133  0.00  0.00    +0.043 A 
ATOM      8  N   UNL     1       2.095   1.111   0.530  0.00  0.00    -0.269 N 
ATOM      9  C   UNL     1       3.318   1.640   0.668  0.00  0.00    +0.314 C 
ATOM     10  O   UNL     1       4.163   0.999   1.261  0.00  0.00    -0.252 OA
ATOM     11  N   UNL     1       3.655   2.848   0.181  0.00  0.00    -0.214 N 
ATOM     12  H   UNL     1       1.925   0.234   0.908  0.00  0.00    +0.156 HD
ENDROOT
BRANCH  11  13
ATOM     13  C   UNL     1       4.950   3.348   0.358  0.00  0.00    +0.041 A 
ATOM     14  C   UNL     1       5.952   3.019  -0.547  0.00  0.00    +0.025 A 
ATOM     15  C   UNL     1       7.228   3.517  -0.373  0.00  0.00    +0.022 A 
ATOM     16  C   UNL     1       7.512   4.334   0.707  0.00  0.00    +0.041 A 
ATOM     17  C   UNL     1       6.517   4.659   1.613  0.00  0.00    +0.022 A 
ATOM     18  C   UNL     1       5.238   4.168   1.440  0.00  0.00    +0.025 A 
ATOM     19 CL   UNL     1       9.119   4.953   0.926  0.00  0.00    -0.084 Cl
ENDBRANCH  11  13
BRANCH   1  21
ATOM     20  N   UNL     1       3.336   2.914  -2.802  0.00  0.00    -0.313 N 
ATOM     21  C   UNL     1       3.173   3.922  -1.923  0.00  0.00    +0.269 C 
ATOM     22  O   UNL     1       3.454   5.058  -2.243  0.00  0.00    -0.270 OA
ATOM     23  H   UNL     1       3.111   2.006  -2.545  0.00  0.00    +0.149 HD
BRANCH  20  24
ATOM     24  C   UNL     1       3.851   3.189  -4.145  0.00  0.00    +0.086 C 
BRANCH  24  25
ATOM     25  C   UNL     1       3.939   1.882  -4.936  0.00  0.00    -0.060 C 
BRANCH  25  26
ATOM     26  N   UNL     1       4.440   2.179  -6.294  0.00  0.00    +0.380 N 
ATOM     27  H   UNL     1       3.871   2.930  -6.703  0.00  0.00    -0.082 HD
BRANCH  26  29
ATOM     28  C   UNL     1       6.717   1.562  -5.556  0.00  0.00    -0.017 C 
ATOM     29  C   UNL     1       5.847   2.627  -6.227  0.00  0.00    -0.082 C 
ENDBRANCH  26  29
BRANCH  26  30
ATOM     30  C   UNL     1       4.332   0.977  -7.147  0.00  0.00    -0.082 C 
ATOM     31  C   UNL     1       4.571   1.382  -8.603  0.00  0.00    -0.017 C 
ENDBRANCH  26  30
ENDBRANCH  25  26
ENDBRANCH  24  25
ENDBRANCH  20  24
ENDBRANCH   1  21
BRANCH   1  32
ATOM     32  O   UNL     1       2.496   4.889   0.135  0.00  0.00    -0.360 OA
ATOM     33  H   UNL     1       1.931   5.523  -0.329  0.00  0.00    +0.213 HD
ENDBRANCH   1  32
TORSDOF 8
