REMARK  Name = ZINC01339618
REMARK  6 active torsions:
REMARK  status: ('A' for Active; 'I' for Inactive)
REMARK    1  A    between atoms: C_1  and  C_2
REMARK    2  A    between atoms: C_14  and  S_21
REMARK    3  A    between atoms: C_16  and  C_18
REMARK    4  A    between atoms: S_21  and  C_22
REMARK    5  A    between atoms: C_22  and  C_23
REMARK    6  A    between atoms: N_25  and  C_26
REMARK                            x       y       z     vdW  Elec       q    Type
REMARK                         _______ _______ _______ _____ _____    ______ ____
ROOT
ATOM      1  C   UNL     1       7.548   4.775   0.139  0.00  0.00    +0.008 C 
ATOM      2  C   UNL     1       6.453   3.747   0.428  0.00  0.00    -0.009 C 
ATOM      3  C   UNL     1       5.209   4.073  -0.404  0.00  0.00    +0.008 C 
ATOM      4  C   UNL     1       4.033   3.212   0.056  0.00  0.00    +0.037 C 
ATOM      5  C   UNL     1       4.462   1.746   0.044  0.00  0.00    -0.024 A 
ATOM      6  C   UNL     1       5.774   1.416   0.039  0.00  0.00    -0.004 A 
ATOM      7  S   UNL     1       5.788  -0.358   0.024  0.00  0.00    -0.073 S 
ATOM      8  C   UNL     1       4.031  -0.617   0.026  0.00  0.00    +0.114 A 
ATOM      9  C   UNL     1       3.518   0.689   0.038  0.00  0.00    +0.056 A 
ATOM     10  C   UNL     1       2.041   0.776   0.042  0.00  0.00    +0.173 A 
ATOM     11  N   UNL     1       1.187   1.770   0.053  0.00  0.00    -0.128 NA
ATOM     12  N   UNL     1      -0.015   1.307   0.052  0.00  0.00    -0.122 NA
ATOM     13  C   UNL     1       0.002  -0.006   0.040  0.00  0.00    +0.198 A 
ATOM     14  N   UNL     1       1.313  -0.394   0.034  0.00  0.00    -0.257 N 
ATOM     15  C   UNL     1       1.946  -1.603   0.022  0.00  0.00    +0.122 A 
ATOM     16  N   UNL     1       3.245  -1.690   0.018  0.00  0.00    -0.226 NA
ATOM     17  C   UNL     1       6.948   2.345   0.044  0.00  0.00    +0.046 C 
ENDROOT
BRANCH  15  18
ATOM     18  C   UNL     1       1.123  -2.866   0.013  0.00  0.00    +0.056 C 
ATOM     19  C   UNL     1       1.861  -4.192   0.203  0.00  0.00    +0.012 C 
ATOM     20  C   UNL     1       1.302  -3.818  -1.171  0.00  0.00    +0.012 C 
ENDBRANCH  15  18
BRANCH  13  21
ATOM     21  S   UNL     1      -1.402  -1.070   0.034  0.00  0.00    -0.076 S 
BRANCH  21  22
ATOM     22  C   UNL     1      -2.815   0.068   0.047  0.00  0.00    +0.173 C 
BRANCH  22  23
ATOM     23  C   UNL     1      -4.097  -0.723   0.042  0.00  0.00    +0.228 C 
ATOM     24  O   UNL     1      -4.062  -1.936   0.031  0.00  0.00    -0.275 OA
ATOM     25  N   UNL     1      -5.284  -0.084   0.050  0.00  0.00    -0.284 N 
ATOM     26  H   UNL     1      -5.313   0.883   0.124  0.00  0.00    +0.155 HD
BRANCH  25  27
ATOM     27  C   UNL     1      -6.473  -0.814  -0.049  0.00  0.00    +0.052 A 
ATOM     28  C   UNL     1      -6.570  -2.070   0.536  0.00  0.00    +0.025 A 
ATOM     29  C   UNL     1      -7.747  -2.786   0.442  0.00  0.00    +0.002 A 
ATOM     30  C   UNL     1      -8.826  -2.259  -0.244  0.00  0.00    +0.002 A 
ATOM     31  C   UNL     1      -8.733  -1.012  -0.833  0.00  0.00    +0.022 A 
ATOM     32  C   UNL     1      -7.559  -0.287  -0.737  0.00  0.00    +0.062 A 
ATOM     33 CL   UNL     1      -7.442   1.279  -1.477  0.00  0.00    -0.082 Cl
ENDBRANCH  25  27
ENDBRANCH  22  23
ENDBRANCH  21  22
ENDBRANCH  13  21
TORSDOF 5
