REMARK  Name = ZINC09846706
REMARK  10 active torsions:
REMARK  status: ('A' for Active; 'I' for Inactive)
REMARK    1  A    between atoms: C_1  and  N_66
REMARK    2  A    between atoms: C_2  and  C_3
REMARK    3  A    between atoms: C_2  and  N_66
REMARK    4  A    between atoms: C_15  and  C_16
REMARK    5  A    between atoms: C_15  and  N_66
REMARK    6  A    between atoms: N_18  and  C_19
REMARK    7  A    between atoms: C_22  and  S_25
REMARK    8  A    between atoms: S_25  and  N_28
REMARK    9  A    between atoms: N_28  and  C_29
REMARK   10  A    between atoms: N_28  and  C_30
REMARK                            x       y       z     vdW  Elec       q    Type
REMARK                         _______ _______ _______ _____ _____    ______ ____
ROOT
ATOM      1  C   UNL     1       3.330   7.884   0.214  0.00  0.00    +0.201 C 
ATOM      2  O   UNL     1       2.454   8.421   0.861  0.00  0.00    -0.278 OA
ATOM      3  N   UNL     1       4.011   8.588  -0.711  0.00  0.00    -0.287 N 
ATOM      4  H   UNL     1       4.761   8.182  -1.174  0.00  0.00    +0.155 HD
ENDROOT
BRANCH   3   5
ATOM      5  C   UNL     1       3.637   9.903  -1.006  0.00  0.00    +0.033 A 
ATOM      6  C   UNL     1       2.300  10.276  -0.949  0.00  0.00    +0.025 A 
ATOM      7  C   UNL     1       1.935  11.577  -1.234  0.00  0.00    +0.030 A 
ATOM      8  C   UNL     1       2.897  12.505  -1.587  0.00  0.00    +0.106 A 
ATOM      9  C   UNL     1       4.228  12.136  -1.650  0.00  0.00    +0.030 A 
ATOM     10  C   UNL     1       4.600  10.838  -1.361  0.00  0.00    +0.025 A 
BRANCH   8  11
ATOM     11  S   UNL     1       2.425  14.162  -1.957  0.00  0.00    +0.061 S 
ATOM     12  O   UNL     1       1.188  14.390  -1.295  0.00  0.00    -0.153 OA
ATOM     13  O   UNL     1       3.571  14.971  -1.729  0.00  0.00    -0.153 OA
BRANCH  11  14
ATOM     14  N   UNL     1       2.113  14.232  -3.582  0.00  0.00    -0.177 NA
ATOM     15  C   UNL     1       0.761  13.966  -4.080  0.00  0.00    +0.132 C 
BRANCH  14  16
ATOM     16  C   UNL     1       3.189  14.558  -4.521  0.00  0.00    +0.080 C 
ATOM     17  C   UNL     1       2.824  15.827  -5.293  0.00  0.00    +0.020 C 
ATOM     18  C   UNL     1       3.947  16.168  -6.274  0.00  0.00    +0.002 C 
ATOM     19  C   UNL     1       4.136  15.010  -7.256  0.00  0.00    +0.000 C 
ATOM     20  C   UNL     1       4.501  13.741  -6.484  0.00  0.00    +0.002 C 
ATOM     21  C   UNL     1       3.377  13.400  -5.503  0.00  0.00    +0.020 C 
ENDBRANCH  14  16
ENDBRANCH  11  14
ENDBRANCH   8  11
ENDBRANCH   3   5
BRANCH   1  22
ATOM     22  C   UNL     1       3.655   6.431   0.447  0.00  0.00    +0.019 C 
BRANCH  22  24
ATOM     23  C   UNL     1       3.063   6.529   2.793  0.00  0.00    -0.095 C 
ATOM     24  N   UNL     1       2.752   5.902   1.491  0.00  0.00    +0.388 N 
ATOM     25  H   UNL     1       1.783   6.123   1.237  0.00  0.00    -0.081 HD
BRANCH  24  26
ATOM     26  C   UNL     1       2.900   4.434   1.589  0.00  0.00    -0.003 C 
BRANCH  26  27
ATOM     27  C   UNL     1       1.822   3.897   2.494  0.00  0.00    +0.094 A 
ATOM     28  N   UNL     1       1.767   2.556   2.706  0.00  0.00    -0.312 N 
ATOM     29  H   UNL     1       2.414   1.975   2.277  0.00  0.00    +0.170 HD
ATOM     30  C   UNL     1       0.817   2.023   3.510  0.00  0.00    +0.259 A 
ATOM     31  O   UNL     1       0.756   0.824   3.708  0.00  0.00    -0.267 OA
ATOM     32  C   UNL     1      -0.142   2.950   4.130  0.00  0.00    +0.065 A 
ATOM     33  C   UNL     1      -1.154   2.504   4.978  0.00  0.00    +0.015 A 
ATOM     34  C   UNL     1      -2.022   3.417   5.536  0.00  0.00    +0.001 A 
ATOM     35  C   UNL     1      -1.892   4.773   5.265  0.00  0.00    +0.002 A 
ATOM     36  C   UNL     1      -0.896   5.234   4.434  0.00  0.00    +0.028 A 
ATOM     37  C   UNL     1      -0.004   4.328   3.856  0.00  0.00    +0.078 A 
ATOM     38  N   UNL     1       0.992   4.739   3.032  0.00  0.00    -0.236 NA
ENDBRANCH  26  27
ENDBRANCH  24  26
ENDBRANCH  22  24
ENDBRANCH   1  22
TORSDOF 8
