REMARK  Name = ZINC23761542
REMARK  5 active torsions:
REMARK  status: ('A' for Active; 'I' for Inactive)
REMARK    1  A    between atoms: C_1  and  C_2
REMARK    2  A    between atoms: C_10  and  C_11
REMARK    3  A    between atoms: C_11  and  O_13
REMARK    4  A    between atoms: O_13  and  C_14
REMARK    5  A    between atoms: C_14  and  C_15
REMARK                            x       y       z     vdW  Elec       q    Type
REMARK                         _______ _______ _______ _____ _____    ______ ____
ROOT
ATOM      1  C   UNL     1       7.275   5.364  -0.036  0.00  0.00    +0.135 C 
ATOM      2  N   UNL     1       6.409   6.311  -0.028  0.00  0.00    -0.254 NA
ATOM      3  C   UNL     1       6.779   7.723  -0.027  0.00  0.00    +0.184 C 
ATOM      4  C   UNL     1       8.102   7.918  -0.812  0.00  0.00    +0.137 C 
ATOM      5  C   UNL     1       7.819   7.906  -2.294  0.00  0.00    -0.045 C 
ATOM      6  C   UNL     1       6.597   8.265  -2.679  0.00  0.00    -0.012 C 
ATOM      7  S   UNL     1       5.666   8.599  -1.198  0.00  0.00    -0.102 S 
ATOM      8  C   UNL     1       6.082   8.357  -4.086  0.00  0.00    +0.042 C 
ATOM      9  C   UNL     1       7.276   8.322  -5.050  0.00  0.00    +0.005 C 
ATOM     10  C   UNL     1       8.198   7.169  -4.640  0.00  0.00    +0.005 C 
ATOM     11  C   UNL     1       8.880   7.507  -3.315  0.00  0.00    +0.032 C 
ATOM     12  C   UNL     1       9.071   6.831  -0.449  0.00  0.00    +0.228 C 
ATOM     13  O   UNL     1      10.264   7.040  -0.517  0.00  0.00    -0.275 OA
ATOM     14  N   UNL     1       8.624   5.625  -0.046  0.00  0.00    -0.271 N 
ATOM     15  H   UNL     1       9.337   4.850   0.273  0.00  0.00    +0.156 HD
ENDROOT
BRANCH   1  16
ATOM     16  C   UNL     1       6.802   3.934  -0.040  0.00  0.00    +0.303 C 
BRANCH  16  17
ATOM     17  O   UNL     1       5.350   3.904  -0.026  0.00  0.00    -0.451 OA
BRANCH  17  18
ATOM     18  C   UNL     1       4.762   2.690  -0.028  0.00  0.00    +0.376 C 
ATOM     19  O   UNL     1       5.445   1.684  -0.040  0.00  0.00    -0.241 OA
BRANCH  18  29
ATOM     20  C   UNL     1       3.165   0.021  -0.027  0.00  0.00    +0.048 C 
ATOM     21  C   UNL     1       2.599   1.418  -0.015  0.00  0.00    +0.010 A 
ATOM     22  C   UNL     1       1.186   1.794   0.000  0.00  0.00    +0.024 A 
ATOM     23  C   UNL     1      -0.013   1.076   0.008  0.00  0.00    +0.012 A 
ATOM     24  C   UNL     1      -1.203   1.746   0.017  0.00  0.00    +0.001 A 
ATOM     25  C   UNL     1      -1.229   3.134   0.030  0.00  0.00    +0.004 A 
ATOM     26  C   UNL     1      -0.058   3.861   0.022  0.00  0.00    +0.047 A 
ATOM     27  C   UNL     1       1.165   3.201   0.008  0.00  0.00    +0.136 A 
ATOM     28  O   UNL     1       2.443   3.627  -0.002  0.00  0.00    -0.448 OA
ATOM     29  C   UNL     1       3.298   2.583  -0.015  0.00  0.00    +0.216 A 
ENDBRANCH  18  29
ENDBRANCH  17  18
ENDBRANCH  16  17
ENDBRANCH   1  16
TORSDOF 4
