REMARK  Name = ZINC23080655
REMARK  13 active torsions:
REMARK  status: ('A' for Active; 'I' for Inactive)
REMARK    1  A    between atoms: C_1  and  C_2
REMARK    2  A    between atoms: C_2  and  C_3
REMARK    3  A    between atoms: C_3  and  C_5
REMARK    4  A    between atoms: C_3  and  N_6
REMARK    5  A    between atoms: N_6  and  C_7
REMARK    6  A    between atoms: C_15  and  C_17
REMARK    7  A    between atoms: C_17  and  O_18
REMARK    8  A    between atoms: O_18  and  C_19
REMARK    9  A    between atoms: C_19  and  C_21
REMARK   10  A    between atoms: N_24  and  S_27
REMARK   11  A    between atoms: S_27  and  C_30
REMARK   12  A    between atoms: C_33  and  C_37
REMARK   13  A    between atoms: C_34  and  C_36
REMARK                            x       y       z     vdW  Elec       q    Type
REMARK                         _______ _______ _______ _____ _____    ______ ____
ROOT
ATOM      1  C   UNL     1      -3.841  -2.783   0.853  0.00  0.00    +0.311 C 
ATOM      2  O   UNL     1      -3.301  -3.085  -0.185  0.00  0.00    -0.251 OA
ENDROOT
BRANCH   1   3
ATOM      3  C   UNL     1      -5.250  -3.240   1.130  0.00  0.00    +0.100 C 
ATOM      4  C   UNL     1      -5.267  -4.098   2.397  0.00  0.00    +0.032 C 
ATOM      5  C   UNL     1      -6.706  -4.531   2.696  0.00  0.00    +0.110 C 
ATOM      6  N   UNL     1      -7.255  -5.199   1.507  0.00  0.00    -0.177 NA
ATOM      7  C   UNL     1      -7.205  -4.497   0.217  0.00  0.00    +0.110 C 
ATOM      8  C   UNL     1      -5.761  -4.064  -0.053  0.00  0.00    +0.032 C 
BRANCH   6   9
ATOM      9  S   UNL     1      -7.916  -6.713   1.620  0.00  0.00    +0.061 S 
ATOM     10  O   UNL     1      -7.831  -7.290   0.324  0.00  0.00    -0.153 OA
ATOM     11  O   UNL     1      -7.339  -7.324   2.765  0.00  0.00    -0.153 OA
BRANCH   9  12
ATOM     12  C   UNL     1      -9.631  -6.508   1.968  0.00  0.00    +0.106 A 
ATOM     13  C   UNL     1     -10.066  -6.438   3.278  0.00  0.00    +0.029 A 
ATOM     14  C   UNL     1     -11.412  -6.277   3.552  0.00  0.00    +0.005 A 
ATOM     15  C   UNL     1     -12.322  -6.186   2.515  0.00  0.00    -0.047 A 
ATOM     16  C   UNL     1     -11.886  -6.255   1.205  0.00  0.00    -0.046 A 
ATOM     17  C   UNL     1     -10.540  -6.411   0.931  0.00  0.00    +0.032 A 
ATOM     18  C   UNL     1     -12.878  -6.156   0.075  0.00  0.00    +0.044 C 
ATOM     19  C   UNL     1     -13.789  -6.011   2.813  0.00  0.00    +0.044 C 
ENDBRANCH   9  12
ENDBRANCH   6   9
ENDBRANCH   1   3
BRANCH   1  20
ATOM     20  O   UNL     1      -3.186  -2.039   1.758  0.00  0.00    -0.455 OA
BRANCH  20  21
ATOM     21  C   UNL     1      -1.853  -1.642   1.429  0.00  0.00    +0.327 C 
BRANCH  21  23
ATOM     22  N   UNL     1      -0.067  -0.250   2.425  0.00  0.00    -0.291 N 
ATOM     23  C   UNL     1      -1.281  -0.820   2.556  0.00  0.00    +0.254 C 
ATOM     24  O   UNL     1      -1.914  -0.673   3.581  0.00  0.00    -0.272 OA
BRANCH  22  25
ATOM     25  C   UNL     1       0.441   0.640   3.473  0.00  0.00    +0.099 C 
ATOM     26  C   UNL     1      -0.523   1.826   3.647  0.00  0.00    +0.046 C 
ATOM     27  C   UNL     1      -0.138   2.574   4.956  0.00  0.00    +0.168 C 
ATOM     28  S   UNL     1       0.222   1.148   6.066  0.00  0.00    -0.029 S 
ATOM     29  O   UNL     1      -0.960   0.805   6.776  0.00  0.00    -0.174 OA
ATOM     30  O   UNL     1       1.419   1.413   6.785  0.00  0.00    -0.174 OA
ATOM     31  C   UNL     1       0.555  -0.145   4.802  0.00  0.00    +0.188 C 
ENDBRANCH  22  25
BRANCH  22  32
ATOM     32  C   UNL     1       0.744  -0.519   1.236  0.00  0.00    +0.073 C 
ATOM     33  C   UNL     1       1.117   0.804   0.563  0.00  0.00    +0.028 C 
BRANCH  32  35
ATOM     34  C   UNL     1       1.654  -2.641   2.190  0.00  0.00    +0.005 C 
ATOM     35  C   UNL     1       2.019  -1.259   1.645  0.00  0.00    +0.019 C 
ENDBRANCH  32  35
ENDBRANCH  22  32
ENDBRANCH  21  23
ENDBRANCH  20  21
ENDBRANCH   1  20
TORSDOF 9
