REMARK  Name = ZINC09463097
REMARK  7 active torsions:
REMARK  status: ('A' for Active; 'I' for Inactive)
REMARK    1  A    between atoms: C_4  and  C_7
REMARK    2  A    between atoms: C_7  and  C_9
REMARK    3  A    between atoms: C_7  and  S_20
REMARK    4  A    between atoms: N_11  and  C_12
REMARK    5  A    between atoms: S_20  and  C_21
REMARK    6  A    between atoms: C_24  and  C_27
REMARK    7  A    between atoms: N_25  and  N_26
REMARK                            x       y       z     vdW  Elec       q    Type
REMARK                         _______ _______ _______ _____ _____    ______ ____
ROOT
ATOM      1  C   UNL     1       5.737   3.681  -0.148  0.00  0.00    +0.170 C 
ENDROOT
BRANCH   1   5
ATOM      2  C   UNL     1       5.320   3.919   4.097  0.00  0.00    +0.000 A 
ATOM      3  C   UNL     1       4.653   4.818   3.285  0.00  0.00    +0.000 A 
ATOM      4  C   UNL     1       4.787   4.740   1.911  0.00  0.00    +0.005 A 
ATOM      5  C   UNL     1       5.590   3.765   1.349  0.00  0.00    -0.025 A 
ATOM      6  C   UNL     1       6.253   2.864   2.161  0.00  0.00    +0.005 A 
ATOM      7  C   UNL     1       6.122   2.944   3.535  0.00  0.00    +0.000 A 
ENDBRANCH   1   5
BRANCH   1   8
ATOM      8  C   UNL     1       7.186   3.861  -0.521  0.00  0.00    +0.235 C 
ATOM      9  O   UNL     1       7.871   2.893  -0.776  0.00  0.00    -0.274 OA
ATOM     10  N   UNL     1       7.721   5.097  -0.572  0.00  0.00    -0.284 N 
ATOM     11  H   UNL     1       7.158   5.875  -0.434  0.00  0.00    +0.155 HD
BRANCH  10  12
ATOM     12  C   UNL     1       9.088   5.258  -0.823  0.00  0.00    +0.036 A 
ATOM     13  C   UNL     1       9.790   6.290  -0.215  0.00  0.00    +0.043 A 
ATOM     14  C   UNL     1      11.141   6.444  -0.461  0.00  0.00    +0.044 A 
ATOM     15  C   UNL     1      11.792   5.577  -1.321  0.00  0.00    +0.040 A 
ATOM     16  C   UNL     1      11.094   4.551  -1.933  0.00  0.00    +0.044 A 
ATOM     17  C   UNL     1       9.743   4.390  -1.686  0.00  0.00    +0.043 A 
ATOM     18 CL   UNL     1      11.914   3.466  -3.012  0.00  0.00    -0.083 Cl
ATOM     19 CL   UNL     1      12.021   7.730   0.304  0.00  0.00    -0.083 Cl
ENDBRANCH  10  12
ENDBRANCH   1   8
BRANCH   1  20
ATOM     20  S   UNL     1       5.162   2.063  -0.721  0.00  0.00    -0.067 S 
BRANCH  20  21
ATOM     21  C   UNL     1       3.455   2.179  -0.302  0.00  0.00    +0.209 A 
ATOM     22  N   UNL     1       2.858   3.201   0.267  0.00  0.00    -0.121 NA
ATOM     23  N   UNL     1       1.608   2.946   0.421  0.00  0.00    -0.132 NA
ATOM     24  C   UNL     1       1.336   1.753  -0.027  0.00  0.00    +0.154 A 
ATOM     25  N   UNL     1       2.502   1.223  -0.507  0.00  0.00    -0.228 N 
BRANCH  25  26
ATOM     26  N   UNL     1       2.677  -0.007  -1.075  0.00  0.00    -0.295 N 
ATOM     27  H   UNL     1       2.539   0.033  -2.073  0.00  0.00    +0.163 HD
ATOM     28  H   UNL     1       3.585  -0.384  -0.849  0.00  0.00    +0.163 HD
ENDBRANCH  25  26
BRANCH  24  29
ATOM     29  C   UNL     1      -0.014   1.084  -0.024  0.00  0.00    +0.059 C 
ATOM     30  C   UNL     1      -1.142   1.774   0.747  0.00  0.00    +0.012 C 
ATOM     31  C   UNL     1      -1.147   1.776  -0.784  0.00  0.00    +0.012 C 
ENDBRANCH  24  29
ENDBRANCH  20  21
ENDBRANCH   1  20
TORSDOF 7
