REMARK  Name = ZINC41806132
REMARK  3 active torsions:
REMARK  status: ('A' for Active; 'I' for Inactive)
REMARK    1  A    between atoms: C_7  and  C_11
REMARK    2  A    between atoms: C_7  and  N_14
REMARK    3  A    between atoms: N_14  and  C_15
REMARK                            x       y       z     vdW  Elec       q    Type
REMARK                         _______ _______ _______ _____ _____    ______ ____
ROOT
ATOM      1  C   UNL     1       0.358   1.008  -1.994  0.00  0.00    +0.000 A 
ATOM      2  C   UNL     1       1.621   1.554  -2.135  0.00  0.00    +0.001 A 
ATOM      3  C   UNL     1       2.705   0.913  -1.574  0.00  0.00    +0.015 A 
ATOM      4  C   UNL     1       2.537  -0.282  -0.875  0.00  0.00    +0.010 A 
ATOM      5  C   UNL     1       1.279  -0.839  -0.745  0.00  0.00    -0.034 A 
ATOM      6  C   UNL     1       0.190  -0.174  -1.305  0.00  0.00    +0.004 A 
ATOM      7  C   UNL     1       0.988  -2.138  -0.054  0.00  0.00    +0.063 C 
ATOM      8  C   UNL     1       2.030  -2.526   0.981  0.00  0.00    +0.014 C 
ATOM      9  C   UNL     1       3.389  -2.695   0.287  0.00  0.00    +0.074 C 
ATOM     10  S   UNL     1       3.969  -1.034  -0.168  0.00  0.00    -0.125 S 
ENDROOT
BRANCH   7  11
ATOM     11  C   UNL     1      -0.352  -2.033   0.627  0.00  0.00    +0.350 C 
ATOM     12  O   UNL     1      -1.373  -2.268   0.004  0.00  0.00    -0.248 OA
ATOM     13  O   UNL     1      -0.415  -1.712   1.802  0.00  0.00    -0.248 OA
ENDBRANCH   7  11
BRANCH   7  14
ATOM     14  N   UNL     1       0.914  -3.201  -1.065  0.00  0.00    +0.395 N 
ATOM     15  H   UNL     1       0.103  -3.054  -1.648  0.00  0.00    -0.083 HD
ATOM     16  H   UNL     1       1.746  -3.182  -1.635  0.00  0.00    -0.083 HD
BRANCH  14  17
ATOM     17  C   UNL     1       0.808  -4.505  -0.398  0.00  0.00    -0.066 C 
ATOM     18  C   UNL     1      -0.517  -4.584   0.366  0.00  0.00    +0.012 C 
ATOM     19  C   UNL     1      -0.655  -5.974   0.993  0.00  0.00    +0.158 C 
ATOM     20  O   UNL     1      -0.579  -6.966  -0.033  0.00  0.00    -0.380 OA
ATOM     21  C   UNL     1       0.657  -6.972  -0.750  0.00  0.00    +0.158 C 
ATOM     22  C   UNL     1       0.847  -5.622  -1.446  0.00  0.00    +0.012 C 
ENDBRANCH  14  17
ENDBRANCH   7  14
TORSDOF 3
