REMARK  Name = ZINC04911857
REMARK  8 active torsions:
REMARK  status: ('A' for Active; 'I' for Inactive)
REMARK    1  A    between atoms: C_1  and  C_2
REMARK    2  A    between atoms: C_2  and  O_3
REMARK    3  A    between atoms: O_3  and  C_4
REMARK    4  A    between atoms: C_4  and  C_6
REMARK    5  A    between atoms: C_7  and  C_23
REMARK    6  A    between atoms: C_13  and  C_18
REMARK    7  A    between atoms: C_23  and  C_24
REMARK    8  A    between atoms: C_24  and  C_25
REMARK                            x       y       z     vdW  Elec       q    Type
REMARK                         _______ _______ _______ _____ _____    ______ ____
ROOT
ATOM      1  C   UNL     1       1.450  -2.345  -2.518  0.00  0.00    +0.128 A 
ATOM      2  C   UNL     1       1.618  -3.672  -2.802  0.00  0.00    -0.005 A 
ATOM      3  C   UNL     1       2.308  -3.738  -4.018  0.00  0.00    +0.042 A 
ATOM      4  C   UNL     1       2.544  -2.429  -4.442  0.00  0.00    +0.028 A 
ATOM      5  N   UNL     1       2.018  -1.604  -3.538  0.00  0.00    -0.352 N 
ATOM      6  H   UNL     1       2.033  -0.635  -3.586  0.00  0.00    +0.166 HD
ATOM      7  C   UNL     1       3.274  -2.103  -5.720  0.00  0.00    +0.063 C 
ATOM      8  C   UNL     1       4.107  -3.314  -6.149  0.00  0.00    +0.039 C 
ATOM      9  C   UNL     1       3.237  -4.574  -6.213  0.00  0.00    +0.088 C 
ATOM     10  C   UNL     1       2.755  -4.896  -4.806  0.00  0.00    +0.166 C 
ATOM     11  O   UNL     1       2.741  -6.027  -4.366  0.00  0.00    -0.292 OA
ENDROOT
BRANCH   8  12
ATOM     12  C   UNL     1       4.699  -3.053  -7.510  0.00  0.00    -0.006 A 
ATOM     13  C   UNL     1       6.002  -3.015  -7.881  0.00  0.00    +0.011 A 
ATOM     14  C   UNL     1       6.316  -2.754  -9.201  0.00  0.00    +0.008 A 
ATOM     15  C   UNL     1       5.312  -2.543 -10.087  0.00  0.00    +0.045 A 
ATOM     16  S   UNL     1       3.866  -2.719  -9.054  0.00  0.00    -0.101 S 
ENDBRANCH   8  12
BRANCH   1  17
ATOM     17  C   UNL     1       0.776  -1.800  -1.335  0.00  0.00    +0.356 C 
ATOM     18  O   UNL     1       0.312  -2.551  -0.499  0.00  0.00    -0.243 OA
BRANCH  17  19
ATOM     19  O   UNL     1       0.671  -0.465  -1.174  0.00  0.00    -0.460 OA
BRANCH  19  21
ATOM     20  C   UNL     1      -0.019   1.526   0.010  0.00  0.00    +0.048 C 
ATOM     21  C   UNL     1       0.002  -0.004   0.002  0.00  0.00    +0.229 C 
ENDBRANCH  19  21
ENDBRANCH  17  19
ENDBRANCH   1  17
BRANCH   2  22
ATOM     22  C   UNL     1       1.152  -4.838  -1.968  0.00  0.00    +0.038 C 
BRANCH  22  23
ATOM     23  C   UNL     1      -0.261  -5.239  -2.397  0.00  0.00    +0.008 C 
BRANCH  23  24
ATOM     24  C   UNL     1      -0.734  -6.422  -1.550  0.00  0.00    -0.011 C 
ATOM     25  C   UNL     1       0.140  -7.643  -1.844  0.00  0.00    +0.003 C 
ATOM     26  C   UNL     1      -0.333  -8.825  -0.997  0.00  0.00    +0.000 C 
ATOM     27  C   UNL     1      -1.789  -9.147  -1.339  0.00  0.00    +0.000 C 
ATOM     28  C   UNL     1      -2.664  -7.927  -1.044  0.00  0.00    +0.000 C 
ATOM     29  C   UNL     1      -2.191  -6.744  -1.891  0.00  0.00    +0.003 C 
ENDBRANCH  23  24
ENDBRANCH  22  23
ENDBRANCH   2  22
TORSDOF 7
