REMARK  Name = ZINC04840963
REMARK  8 active torsions:
REMARK  status: ('A' for Active; 'I' for Inactive)
REMARK    1  A    between atoms: C_1  and  C_2
REMARK    2  A    between atoms: C_2  and  O_3
REMARK    3  A    between atoms: O_3  and  C_4
REMARK    4  A    between atoms: C_7  and  C_10
REMARK    5  A    between atoms: C_10  and  C_12
REMARK    6  A    between atoms: C_10  and  N_23
REMARK    7  A    between atoms: C_21  and  O_22
REMARK    8  A    between atoms: N_23  and  C_24
REMARK                            x       y       z     vdW  Elec       q    Type
REMARK                         _______ _______ _______ _____ _____    ______ ____
ROOT
ATOM      1  C   UNL     1       3.712  -1.903  -0.133  0.00  0.00    +0.136 C 
ENDROOT
BRANCH   1   2
ATOM      2  C   UNL     1       3.719  -2.527  -1.505  0.00  0.00    +0.028 A 
ATOM      3  C   UNL     1       3.100  -3.768  -1.719  0.00  0.00    +0.009 A 
ATOM      4  C   UNL     1       2.451  -4.453  -0.674  0.00  0.00    +0.012 A 
ATOM      5  C   UNL     1       1.865  -5.653  -0.957  0.00  0.00    +0.020 A 
ATOM      6  C   UNL     1       1.915  -6.164  -2.252  0.00  0.00    +0.111 A 
ATOM      7  N   UNL     1       2.515  -5.521  -3.224  0.00  0.00    -0.255 NA
ATOM      8  C   UNL     1       3.109  -4.341  -3.015  0.00  0.00    +0.072 A 
ATOM      9  C   UNL     1       3.750  -3.657  -4.063  0.00  0.00    +0.032 A 
ATOM     10  C   UNL     1       4.346  -2.459  -3.824  0.00  0.00    +0.048 A 
ATOM     11  C   UNL     1       4.332  -1.890  -2.546  0.00  0.00    +0.123 A 
BRANCH  11  12
ATOM     12  O   UNL     1       4.936  -0.691  -2.338  0.00  0.00    -0.506 OA
ATOM     13  H   UNL     1       5.888  -0.752  -2.176  0.00  0.00    +0.292 HD
ENDBRANCH  11  12
ENDBRANCH   1   2
BRANCH   1  17
ATOM     14  C   UNL     1       7.535  -2.446   1.698  0.00  0.00    +0.121 A 
ATOM     15  C   UNL     1       6.515  -3.356   1.935  0.00  0.00    +0.046 A 
ATOM     16  C   UNL     1       5.280  -3.178   1.343  0.00  0.00    +0.009 A 
ATOM     17  C   UNL     1       5.060  -2.094   0.513  0.00  0.00    -0.023 A 
ATOM     18  C   UNL     1       6.077  -1.189   0.270  0.00  0.00    +0.009 A 
ATOM     19  C   UNL     1       7.312  -1.359   0.865  0.00  0.00    +0.046 A 
BRANCH  14  20
ATOM     20  O   UNL     1       8.751  -2.619   2.279  0.00  0.00    -0.492 OA
BRANCH  20  22
ATOM     21  C   UNL     1      11.045  -2.003   2.727  0.00  0.00    +0.048 C 
ATOM     22  C   UNL     1       9.754  -1.643   1.989  0.00  0.00    +0.225 C 
ENDBRANCH  20  22
ENDBRANCH  14  20
ENDBRANCH   1  17
BRANCH   1  23
ATOM     23  N   UNL     1       3.425  -0.471  -0.249  0.00  0.00    -0.320 N 
ATOM     24  H   UNL     1       4.154   0.169  -0.282  0.00  0.00    +0.148 HD
BRANCH  23  25
ATOM     25  C   UNL     1       2.109  -0.029  -0.310  0.00  0.00    +0.097 A 
ATOM     26  C   UNL     1       1.068  -0.951  -0.262  0.00  0.00    +0.041 A 
ATOM     27  C   UNL     1      -0.237  -0.498  -0.324  0.00  0.00    +0.005 A 
ATOM     28  C   UNL     1      -0.459   0.869  -0.434  0.00  0.00    +0.018 A 
ATOM     29  C   UNL     1       0.621   1.728  -0.477  0.00  0.00    +0.084 A 
ATOM     30  N   UNL     1       1.916   1.318  -0.417  0.00  0.00    -0.350 N 
ATOM     31  H   UNL     1       2.700   1.980  -0.451  0.00  0.00    +0.166 HD
ENDBRANCH  23  25
ENDBRANCH   1  23
TORSDOF 7
