REMARK  Name = ZINC06341300
REMARK  3 active torsions:
REMARK  status: ('A' for Active; 'I' for Inactive)
REMARK    1  A    between atoms: C_4  and  C_7
REMARK    2  A    between atoms: C_10  and  C_11
REMARK    3  A    between atoms: C_14  and  C_17
REMARK                            x       y       z     vdW  Elec       q    Type
REMARK                         _______ _______ _______ _____ _____    ______ ____
ROOT
ATOM      1  C   UNL     1      -2.464   1.354   0.623  0.00  0.00    +0.238 C 
ATOM      2  C   UNL     1      -1.486   2.515   0.561  0.00  0.00    +0.045 C 
ATOM      3  C   UNL     1      -0.189   2.358   0.220  0.00  0.00    +0.019 C 
ATOM      4  C   UNL     1      -2.067   3.835   0.911  0.00  0.00    +0.197 C 
ATOM      5  O   UNL     1      -1.691   4.874   0.400  0.00  0.00    -0.287 OA
ATOM      6  C   UNL     1      -3.144   3.792   1.928  0.00  0.00    +0.064 A 
ATOM      7  C   UNL     1      -3.675   4.974   2.442  0.00  0.00    +0.015 A 
ATOM      8  C   UNL     1      -4.693   4.917   3.370  0.00  0.00    +0.001 A 
ATOM      9  C   UNL     1      -5.183   3.690   3.788  0.00  0.00    +0.004 A 
ATOM     10  C   UNL     1      -4.658   2.515   3.290  0.00  0.00    +0.046 A 
ATOM     11  C   UNL     1      -3.627   2.549   2.356  0.00  0.00    +0.133 A 
ATOM     12  O   UNL     1      -3.119   1.385   1.891  0.00  0.00    -0.479 OA
ENDROOT
BRANCH   1  16
ATOM     13  C   UNL     1      -5.353   1.736  -2.501  0.00  0.00    +0.000 A 
ATOM     14  C   UNL     1      -4.668   0.547  -2.334  0.00  0.00    +0.000 A 
ATOM     15  C   UNL     1      -3.733   0.423  -1.323  0.00  0.00    +0.007 A 
ATOM     16  C   UNL     1      -3.483   1.489  -0.479  0.00  0.00    -0.003 A 
ATOM     17  C   UNL     1      -4.171   2.677  -0.643  0.00  0.00    +0.007 A 
ATOM     18  C   UNL     1      -5.102   2.802  -1.657  0.00  0.00    +0.000 A 
ENDBRANCH   1  16
BRANCH   3  19
ATOM     19  C   UNL     1       0.297   1.046  -0.235  0.00  0.00    -0.024 A 
ATOM     20  C   UNL     1       1.588   0.623   0.103  0.00  0.00    +0.009 A 
ATOM     21  C   UNL     1       2.039  -0.602  -0.318  0.00  0.00    +0.019 A 
ATOM     22  C   UNL     1       1.214  -1.422  -1.093  0.00  0.00    +0.052 A 
ATOM     23  C   UNL     1      -0.073  -0.998  -1.435  0.00  0.00    +0.019 A 
ATOM     24  C   UNL     1      -0.528   0.224  -1.011  0.00  0.00    +0.009 A 
BRANCH  22  25
ATOM     25  C   UNL     1       1.688  -2.699  -1.537  0.00  0.00    +0.099 C 
ATOM     26  N   UNL     1       2.065  -3.711  -1.890  0.00  0.00    -0.191 NA
ENDBRANCH  22  25
ENDBRANCH   3  19
TORSDOF 3
