REMARK  Name = ZINC08649723
REMARK  5 active torsions:
REMARK  status: ('A' for Active; 'I' for Inactive)
REMARK    1  A    between atoms: C_1  and  C_2
REMARK    2  A    between atoms: C_4  and  C_17
REMARK    3  A    between atoms: C_5  and  C_9
REMARK    4  A    between atoms: C_9  and  C_10
REMARK    5  A    between atoms: C_15  and  O_16
REMARK                            x       y       z     vdW  Elec       q    Type
REMARK                         _______ _______ _______ _____ _____    ______ ____
ROOT
ATOM      1  C   UNL     1       0.677   1.429  -0.437  0.00  0.00    +0.086 C 
ATOM      2  C   UNL     1      -0.415   1.793  -1.410  0.00  0.00    +0.107 A 
ATOM      3  N   UNL     1      -0.975   0.850  -2.116  0.00  0.00    -0.234 NA
ATOM      4  C   UNL     1      -1.953   1.124  -2.997  0.00  0.00    +0.082 A 
ATOM      5  C   UNL     1      -2.377   2.432  -3.160  0.00  0.00    +0.047 A 
ATOM      6  C   UNL     1      -1.761   3.436  -2.391  0.00  0.00    +0.256 A 
ATOM      7  N   UNL     1      -0.790   3.083  -1.523  0.00  0.00    -0.311 N 
ATOM      8  O   UNL     1      -2.102   4.602  -2.502  0.00  0.00    -0.267 OA
ATOM      9  H   UNL     1      -0.357   3.760  -0.981  0.00  0.00    +0.170 HD
ENDROOT
BRANCH   4  10
ATOM     10  C   UNL     1      -2.573   0.035  -3.786  0.00  0.00    +0.001 A 
ATOM     11  C   UNL     1      -2.608   0.112  -5.178  0.00  0.00    +0.010 A 
ATOM     12  C   UNL     1      -3.186  -0.907  -5.909  0.00  0.00    +0.001 A 
ATOM     13  C   UNL     1      -3.730  -2.002  -5.263  0.00  0.00    +0.000 A 
ATOM     14  C   UNL     1      -3.699  -2.084  -3.882  0.00  0.00    +0.001 A 
ATOM     15  C   UNL     1      -3.118  -1.075  -3.141  0.00  0.00    +0.010 A 
ENDBRANCH   4  10
BRANCH   5  16
ATOM     16  C   UNL     1      -3.470   2.772  -4.140  0.00  0.00    +0.081 C 
BRANCH  16  17
ATOM     17  C   UNL     1      -4.801   2.761  -3.432  0.00  0.00    -0.001 A 
ATOM     18  C   UNL     1      -5.555   1.604  -3.395  0.00  0.00    +0.007 A 
ATOM     19  C   UNL     1      -6.775   1.594  -2.745  0.00  0.00    +0.001 A 
ATOM     20  C   UNL     1      -7.244   2.740  -2.131  0.00  0.00    +0.004 A 
ATOM     21  C   UNL     1      -6.494   3.900  -2.164  0.00  0.00    +0.046 A 
ATOM     22  C   UNL     1      -5.266   3.911  -2.811  0.00  0.00    +0.120 A 
BRANCH  22  23
ATOM     23  O   UNL     1      -4.523   5.049  -2.841  0.00  0.00    -0.506 OA
ATOM     24  H   UNL     1      -4.708   5.620  -3.598  0.00  0.00    +0.292 HD
ENDBRANCH  22  23
ENDBRANCH  16  17
ENDBRANCH   5  16
TORSDOF 4
