REMARK  Name = ZINC64982706
REMARK  15 active torsions:
REMARK  status: ('A' for Active; 'I' for Inactive)
REMARK    1  A    between atoms: C_1  and  C_2
REMARK    2  A    between atoms: C_2  and  C_4
REMARK    3  A    between atoms: C_2  and  O_19
REMARK    4  A    between atoms: N_6  and  C_7
REMARK    5  A    between atoms: C_8  and  C_16
REMARK    6  A    between atoms: C_12  and  C_13
REMARK    7  A    between atoms: C_13  and  C_14
REMARK    8  A    between atoms: C_13  and  C_15
REMARK    9  A    between atoms: C_16  and  C_17
REMARK   10  A    between atoms: C_16  and  C_18
REMARK   11  A    between atoms: O_19  and  C_20
REMARK   12  A    between atoms: C_25  and  C_26
REMARK   13  A    between atoms: C_26  and  C_27
REMARK   14  A    between atoms: C_26  and  C_28
REMARK   15  A    between atoms: C_26  and  C_29
REMARK                            x       y       z     vdW  Elec       q    Type
REMARK                         _______ _______ _______ _____ _____    ______ ____
ROOT
ATOM      1  C   UNL     1       0.340  -0.247  -1.399  0.00  0.00    +0.258 C 
ATOM      2  O   UNL     1       0.626  -1.404  -1.175  0.00  0.00    -0.271 OA
ATOM      3  N   UNL     1       0.571   0.281  -2.618  0.00  0.00    -0.282 N 
ATOM      4  H   UNL     1       0.424   1.227  -2.773  0.00  0.00    +0.155 HD
ENDROOT
BRANCH   3   5
ATOM      5  C   UNL     1       1.024  -0.536  -3.659  0.00  0.00    +0.040 A 
ATOM      6  C   UNL     1       2.112  -1.377  -3.462  0.00  0.00    -0.023 A 
ATOM      7  C   UNL     1       2.557  -2.182  -4.492  0.00  0.00    +0.006 A 
ATOM      8  C   UNL     1       1.920  -2.152  -5.719  0.00  0.00    +0.001 A 
ATOM      9  C   UNL     1       0.837  -1.316  -5.919  0.00  0.00    +0.006 A 
ATOM     10  C   UNL     1       0.384  -0.513  -4.891  0.00  0.00    -0.023 A 
BRANCH  10  11
ATOM     11  C   UNL     1      -0.801   0.393  -5.108  0.00  0.00    +0.015 C 
ATOM     12  C   UNL     1      -0.494   1.373  -6.241  0.00  0.00    +0.012 C 
ATOM     13  C   UNL     1      -2.025  -0.448  -5.479  0.00  0.00    +0.012 C 
ENDBRANCH  10  11
BRANCH   6  14
ATOM     14  C   UNL     1       2.807  -1.409  -2.125  0.00  0.00    +0.015 C 
ATOM     15  C   UNL     1       2.983  -2.862  -1.677  0.00  0.00    +0.012 C 
ATOM     16  C   UNL     1       4.179  -0.744  -2.247  0.00  0.00    +0.012 C 
ENDBRANCH   6  14
ENDBRANCH   3   5
BRANCH   1  18
ATOM     17  C   UNL     1       0.691   1.731   0.055  0.00  0.00    +0.062 C 
ATOM     18  C   UNL     1      -0.273   0.601  -0.315  0.00  0.00    +0.256 C 
BRANCH  18  19
ATOM     19  O   UNL     1      -0.524  -0.206   0.837  0.00  0.00    -0.480 OA
BRANCH  19  20
ATOM     20  C   UNL     1      -1.478   0.230   1.700  0.00  0.00    +0.125 A 
ATOM     21  C   UNL     1      -2.214   1.369   1.405  0.00  0.00    +0.046 A 
ATOM     22  C   UNL     1      -3.184   1.810   2.284  0.00  0.00    +0.004 A 
ATOM     23  C   UNL     1      -3.422   1.118   3.457  0.00  0.00    +0.001 A 
ATOM     24  C   UNL     1      -2.690  -0.016   3.754  0.00  0.00    +0.008 A 
ATOM     25  C   UNL     1      -1.723  -0.465   2.875  0.00  0.00    -0.000 A 
BRANCH  25  26
ATOM     26  C   UNL     1      -0.929  -1.706   3.196  0.00  0.00    -0.009 C 
ATOM     27  C   UNL     1      -1.393  -2.274   4.539  0.00  0.00    +0.015 C 
ATOM     28  C   UNL     1      -1.147  -2.748   2.098  0.00  0.00    +0.015 C 
ATOM     29  C   UNL     1       0.557  -1.353   3.278  0.00  0.00    +0.015 C 
ENDBRANCH  25  26
ENDBRANCH  19  20
ENDBRANCH  18  19
ENDBRANCH   1  18
TORSDOF 7
