REMARK  Name = ZINC13028234
REMARK  6 active torsions:
REMARK  status: ('A' for Active; 'I' for Inactive)
REMARK    1  A    between atoms: C_1  and  C_2
REMARK    2  A    between atoms: N_10  and  C_14
REMARK    3  A    between atoms: C_14  and  C_16
REMARK    4  A    between atoms: C_14  and  C_17
REMARK    5  A    between atoms: N_25  and  C_26
REMARK    6  A    between atoms: C_26  and  C_27
REMARK                            x       y       z     vdW  Elec       q    Type
REMARK                         _______ _______ _______ _____ _____    ______ ____
ROOT
ATOM      1  C   UNL     1      -3.715   1.522   2.169  0.00  0.00    +0.132 A 
ATOM      2  N   UNL     1      -3.881   0.989   3.345  0.00  0.00    -0.230 NA
ATOM      3  C   UNL     1      -3.211  -0.190   3.411  0.00  0.00    +0.091 A 
ATOM      4  C   UNL     1      -3.051  -1.152   4.412  0.00  0.00    +0.050 A 
ATOM      5  C   UNL     1      -2.288  -2.272   4.168  0.00  0.00    +0.043 A 
ATOM      6  C   UNL     1      -1.676  -2.453   2.934  0.00  0.00    +0.022 A 
ATOM      7  C   UNL     1      -1.823  -1.513   1.937  0.00  0.00    +0.029 A 
ATOM      8  C   UNL     1      -2.593  -0.380   2.163  0.00  0.00    +0.069 A 
ATOM      9  N   UNL     1      -2.927   0.722   1.401  0.00  0.00    -0.322 N 
ATOM     10 CL   UNL     1      -2.091  -3.468   5.411  0.00  0.00    -0.083 Cl
ENDROOT
BRANCH   1  11
ATOM     11  C   UNL     1      -4.309   2.833   1.724  0.00  0.00    +0.148 C 
ATOM     12  C   UNL     1      -5.801   2.648   1.444  0.00  0.00    +0.037 C 
BRANCH  11  22
ATOM     13  C   UNL     1      -1.206   9.089   2.633  0.00  0.00    +0.007 C 
ATOM     14  C   UNL     1      -2.027   8.156   3.526  0.00  0.00    -0.014 C 
ATOM     15  C   UNL     1      -3.414   7.952   2.912  0.00  0.00    +0.006 C 
ATOM     16  C   UNL     1      -4.239   7.029   3.812  0.00  0.00    +0.035 C 
ATOM     17  C   UNL     1      -3.527   5.688   3.958  0.00  0.00    +0.113 C 
ATOM     18  C   UNL     1      -2.133   5.878   4.547  0.00  0.00    +0.035 C 
ATOM     19  C   UNL     1      -1.317   6.806   3.643  0.00  0.00    +0.006 C 
ATOM     20  C   UNL     1      -3.440   4.983   2.624  0.00  0.00    +0.247 C 
ATOM     21  O   UNL     1      -2.873   5.370   1.625  0.00  0.00    -0.273 OA
ATOM     22  N   UNL     1      -4.130   3.834   2.779  0.00  0.00    -0.214 N 
ATOM     23  C   UNL     1      -4.624   3.718   4.017  0.00  0.00    +0.310 C 
ATOM     24  O   UNL     1      -5.278   2.767   4.398  0.00  0.00    -0.252 OA
ATOM     25  N   UNL     1      -4.318   4.775   4.794  0.00  0.00    -0.285 N 
ATOM     26  H   UNL     1      -4.569   4.907   5.721  0.00  0.00    +0.151 HD
ENDBRANCH  11  22
ENDBRANCH   1  11
BRANCH   9  27
ATOM     27  C   UNL     1      -2.514   0.980   0.019  0.00  0.00    +0.158 C 
BRANCH  27  28
ATOM     28  C   UNL     1      -1.219   1.751   0.017  0.00  0.00    -0.028 A 
ATOM     29  C   UNL     1      -0.013   1.076   0.008  0.00  0.00    +0.005 A 
ATOM     30  C   UNL     1       1.175   1.783   0.000  0.00  0.00    +0.000 A 
ATOM     31  C   UNL     1       1.156   3.165   0.008  0.00  0.00    +0.000 A 
ATOM     32  C   UNL     1      -0.050   3.840   0.022  0.00  0.00    +0.000 A 
ATOM     33  C   UNL     1      -1.238   3.133   0.030  0.00  0.00    +0.005 A 
ENDBRANCH  27  28
ENDBRANCH   9  27
TORSDOF 4
