REMARK  Name = ZINC37775579
REMARK  6 active torsions:
REMARK  status: ('A' for Active; 'I' for Inactive)
REMARK    1  A    between atoms: C_1  and  C_2
REMARK    2  A    between atoms: C_2  and  C_4
REMARK    3  A    between atoms: C_2  and  N_13
REMARK    4  A    between atoms: C_8  and  N_10
REMARK    5  A    between atoms: N_13  and  C_14
REMARK    6  A    between atoms: C_14  and  C_15
REMARK                            x       y       z     vdW  Elec       q    Type
REMARK                         _______ _______ _______ _____ _____    ______ ____
ROOT
ATOM      1  C   UNL     1      -0.019   1.526   0.010  0.00  0.00    -0.009 C 
ATOM      2  C   UNL     1       0.002  -0.004   0.002  0.00  0.00    -0.043 C 
ENDROOT
BRANCH   2   3
ATOM      3  C   UNL     1      -1.412  -0.526   0.013  0.00  0.00    -0.059 A 
ATOM      4  C   UNL     1      -2.142  -0.569  -1.161  0.00  0.00    +0.002 A 
ATOM      5  C   UNL     1      -3.438  -1.047  -1.151  0.00  0.00    +0.002 A 
ATOM      6  C   UNL     1      -4.005  -1.483   0.032  0.00  0.00    +0.033 A 
ATOM      7  C   UNL     1      -3.275  -1.441   1.205  0.00  0.00    +0.126 A 
ATOM      8  C   UNL     1      -1.977  -0.966   1.195  0.00  0.00    +0.034 A 
BRANCH   7   9
ATOM      9  N   UNL     1      -3.883  -1.907   2.472  0.00  0.00    +0.056 N 
ATOM     10  O   UNL     1      -5.017  -2.325   2.481  0.00  0.00    -0.126 OA
ATOM     11  O   UNL     1      -3.244  -1.870   3.498  0.00  0.00    -0.126 OA
ENDBRANCH   7   9
ENDBRANCH   2   3
BRANCH   2  12
ATOM     12  N   UNL     1       0.690  -0.478  -1.207  0.00  0.00    +0.388 N 
ATOM     13  H   UNL     1       0.632  -1.484  -1.254  0.00  0.00    -0.084 HD
ATOM     14  H   UNL     1       0.251  -0.077  -2.022  0.00  0.00    -0.084 HD
BRANCH  12  15
ATOM     15  C   UNL     1       2.100  -0.070  -1.159  0.00  0.00    -0.006 C 
BRANCH  15  16
ATOM     16  C   UNL     1       2.806  -0.556  -2.399  0.00  0.00    +0.090 A 
ATOM     17  C   UNL     1       2.926   0.124  -3.553  0.00  0.00    +0.044 A 
ATOM     18  C   UNL     1       3.656  -0.700  -4.440  0.00  0.00    +0.056 A 
ATOM     19  C   UNL     1       3.938  -1.835  -3.775  0.00  0.00    +0.165 A 
ATOM     20  O   UNL     1       3.425  -1.740  -2.537  0.00  0.00    -0.456 OA
ATOM     21  I   UNL     1       5.003  -3.470  -4.537  0.00  0.00    -0.001 I 
ENDBRANCH  15  16
ENDBRANCH  12  15
ENDBRANCH   2  12
TORSDOF 5
