REMARK  Name = ZINC35427017
REMARK  8 active torsions:
REMARK  status: ('A' for Active; 'I' for Inactive)
REMARK    1  A    between atoms: C_1  and  C_2
REMARK    2  A    between atoms: C_2  and  O_3
REMARK    3  A    between atoms: O_3  and  C_4
REMARK    4  A    between atoms: C_4  and  C_5
REMARK    5  A    between atoms: C_5  and  C_6
REMARK    6  A    between atoms: C_6  and  N_7
REMARK    7  A    between atoms: C_22  and  C_24
REMARK    8  A    between atoms: N_32  and  C_35
REMARK                            x       y       z     vdW  Elec       q    Type
REMARK                         _______ _______ _______ _____ _____    ______ ____
ROOT
ATOM      1  N   UNL     1      -3.580  -5.015   0.000  0.00  0.00    -0.299 N 
ATOM      2  C   UNL     1      -4.292  -6.159  -0.047  0.00  0.00    +0.303 C 
ATOM      3  O   UNL     1      -3.722  -7.223  -0.197  0.00  0.00    -0.253 OA
ATOM      4  N   UNL     1      -5.634  -6.124   0.071  0.00  0.00    -0.269 N 
ATOM      5  C   UNL     1      -6.360  -4.854   0.247  0.00  0.00    +0.148 C 
ATOM      6  C   UNL     1      -7.503  -4.965   1.232  0.00  0.00    +0.004 A 
ATOM      7  C   UNL     1      -7.494  -4.346   2.495  0.00  0.00    -0.034 A 
ATOM      8  C   UNL     1      -8.589  -4.504   3.288  0.00  0.00    -0.021 A 
ATOM      9  S   UNL     1      -9.673  -5.516   2.316  0.00  0.00    -0.077 S 
ATOM     10  C   UNL     1      -8.610  -5.691   0.915  0.00  0.00    +0.090 A 
ATOM     11  N   UNL     1      -8.763  -6.401  -0.270  0.00  0.00    -0.312 N 
ATOM     12  C   UNL     1      -9.799  -6.486  -1.136  0.00  0.00    +0.092 A 
ATOM     13  C   UNL     1      -9.412  -7.259  -2.177  0.00  0.00    +0.020 A 
ATOM     14  C   UNL     1      -8.088  -7.680  -1.924  0.00  0.00    +0.025 A 
ATOM     15  C   UNL     1      -7.721  -7.164  -0.742  0.00  0.00    +0.049 A 
ATOM     16  C   UNL     1      -6.451  -7.360   0.024  0.00  0.00    +0.155 C 
ATOM     17  C   UNL     1      -8.792  -3.944   4.657  0.00  0.00    -0.036 C 
ATOM     18  N   UNL     1      -7.484  -3.499   5.175  0.00  0.00    +0.381 N 
ATOM     19  C   UNL     1      -6.823  -2.655   4.171  0.00  0.00    -0.074 C 
ATOM     20  C   UNL     1      -6.322  -3.510   3.003  0.00  0.00    +0.018 C 
ATOM     21  C   UNL     1      -7.682  -2.729   6.409  0.00  0.00    -0.096 C 
ATOM     22  H   UNL     1      -4.035  -4.167   0.119  0.00  0.00    +0.150 HD
ATOM     23  H   UNL     1      -6.908  -4.305   5.369  0.00  0.00    -0.082 HD
ENDROOT
BRANCH  16  24
ATOM     24  C   UNL     1      -6.791  -7.777   1.432  0.00  0.00    -0.021 A 
ATOM     25  C   UNL     1      -7.870  -8.610   1.663  0.00  0.00    +0.007 A 
ATOM     26  C   UNL     1      -8.183  -8.993   2.954  0.00  0.00    +0.020 A 
ATOM     27  C   UNL     1      -7.416  -8.543   4.014  0.00  0.00    +0.041 A 
ATOM     28  C   UNL     1      -6.337  -7.710   3.781  0.00  0.00    +0.020 A 
ATOM     29  C   UNL     1      -6.021  -7.332   2.490  0.00  0.00    +0.007 A 
ATOM     30 CL   UNL     1      -7.809  -9.023   5.636  0.00  0.00    -0.084 Cl
ENDBRANCH  16  24
BRANCH   1  31
ATOM     31  C   UNL     1      -2.122  -5.054  -0.128  0.00  0.00    +0.108 C 
BRANCH  31  32
ATOM     32  C   UNL     1      -1.564  -3.631  -0.042  0.00  0.00    +0.047 C 
BRANCH  32  33
ATOM     33  C   UNL     1      -0.041  -3.672  -0.176  0.00  0.00    +0.161 C 
BRANCH  33  34
ATOM     34  O   UNL     1       0.480  -2.343  -0.095  0.00  0.00    -0.380 OA
BRANCH  34  36
ATOM     35  C   UNL     1       2.346  -0.807  -0.109  0.00  0.00    +0.034 C 
ATOM     36  C   UNL     1       1.902  -2.268  -0.209  0.00  0.00    +0.156 C 
ENDBRANCH  34  36
ENDBRANCH  33  34
ENDBRANCH  32  33
ENDBRANCH  31  32
ENDBRANCH   1  31
TORSDOF 6
