REMARK  Name = ZINC22809158
REMARK  8 active torsions:
REMARK  status: ('A' for Active; 'I' for Inactive)
REMARK    1  A    between atoms: C_1  and  C_2
REMARK    2  A    between atoms: C_7  and  C_8
REMARK    3  A    between atoms: C_8  and  N_9
REMARK    4  A    between atoms: N_12  and  C_15
REMARK    5  A    between atoms: C_15  and  C_17
REMARK    6  A    between atoms: C_15  and  C_18
REMARK    7  A    between atoms: C_22  and  C_28
REMARK    8  A    between atoms: C_23  and  C_27
REMARK                            x       y       z     vdW  Elec       q    Type
REMARK                         _______ _______ _______ _____ _____    ______ ____
ROOT
ATOM      1  C   UNL     1      -1.467   4.195  -2.759  0.00  0.00    +0.122 C 
ATOM      2  C   UNL     1      -1.681   5.686  -2.494  0.00  0.00    +0.032 C 
ENDROOT
BRANCH   1   3
ATOM      3  C   UNL     1      -0.584   4.021  -3.968  0.00  0.00    +0.149 A 
ATOM      4  N   UNL     1       0.707   4.281  -3.868  0.00  0.00    -0.215 NA
ATOM      5  C   UNL     1       1.535   4.143  -4.891  0.00  0.00    +0.128 A 
ATOM      6  C   UNL     1       1.022   3.711  -6.145  0.00  0.00    +0.050 A 
ATOM      7  C   UNL     1       1.712   3.489  -7.404  0.00  0.00    -0.028 A 
ATOM      8  C   UNL     1       1.011   3.076  -8.470  0.00  0.00    -0.008 A 
ATOM      9  S   UNL     1      -0.656   2.951  -7.850  0.00  0.00    -0.074 S 
ATOM     10  C   UNL     1      -0.367   3.458  -6.176  0.00  0.00    +0.114 A 
ATOM     11  N   UNL     1      -1.119   3.618  -5.104  0.00  0.00    -0.223 NA
ATOM     12  C   UNL     1       1.513   2.786  -9.861  0.00  0.00    +0.052 C 
ATOM     13  C   UNL     1       3.197   3.721  -7.511  0.00  0.00    +0.045 C 
ATOM     14  N   UNL     1       2.882   4.420  -4.743  0.00  0.00    -0.343 N 
ATOM     15  H   UNL     1       3.565   4.303  -5.598  0.00  0.00    +0.144 HD
ATOM     16  H   UNL     1       3.271   4.757  -3.771  0.00  0.00    +0.144 HD
ENDBRANCH   1   3
BRANCH   1  20
ATOM     17  N   UNL     1      -0.665   1.800   0.627  0.00  0.00    +0.384 N 
ATOM     18  C   UNL     1       0.109   1.545  -0.596  0.00  0.00    -0.063 C 
ATOM     19  C   UNL     1      -0.632   2.135  -1.798  0.00  0.00    +0.066 C 
ATOM     20  N   UNL     1      -0.825   3.577  -1.591  0.00  0.00    -0.296 NA
ATOM     21  C   UNL     1      -1.599   3.832  -0.369  0.00  0.00    +0.066 C 
ATOM     22  C   UNL     1      -0.858   3.242   0.834  0.00  0.00    -0.063 C 
ATOM     23  H   UNL     1      -1.656   1.338   0.505  0.00  0.00    -0.081 HD
BRANCH  17  24
ATOM     24  C   UNL     1      -0.022   1.182   1.795  0.00  0.00    -0.043 C 
BRANCH  24  31
ATOM     25  C   UNL     1      -2.522   0.001   2.636  0.00  0.00    +0.044 C 
ATOM     26  C   UNL     1      -1.893   1.099   3.455  0.00  0.00    -0.049 A 
ATOM     27  C   UNL     1      -2.513   1.540   4.610  0.00  0.00    +0.003 A 
ATOM     28  C   UNL     1      -1.937   2.546   5.362  0.00  0.00    +0.000 A 
ATOM     29  C   UNL     1      -0.741   3.112   4.960  0.00  0.00    +0.000 A 
ATOM     30  C   UNL     1      -0.119   2.667   3.808  0.00  0.00    +0.002 A 
ATOM     31  C   UNL     1      -0.698   1.664   3.053  0.00  0.00    -0.061 A 
ENDBRANCH  24  31
ENDBRANCH  17  24
ENDBRANCH   1  20
TORSDOF 4
