REMARK  Name = ZINC39914870
REMARK  10 active torsions:
REMARK  status: ('A' for Active; 'I' for Inactive)
REMARK    1  A    between atoms: C_1  and  C_2
REMARK    2  A    between atoms: C_2  and  C_3
REMARK    3  A    between atoms: C_6  and  C_9
REMARK    4  A    between atoms: C_12  and  C_29
REMARK    5  A    between atoms: N_19  and  C_20
REMARK    6  A    between atoms: C_20  and  C_21
REMARK    7  A    between atoms: C_24  and  O_27
REMARK    8  A    between atoms: O_27  and  C_28
REMARK    9  A    between atoms: C_32  and  C_36
REMARK   10  A    between atoms: C_34  and  O_35
REMARK                            x       y       z     vdW  Elec       q    Type
REMARK                         _______ _______ _______ _____ _____    ______ ____
ROOT
ATOM      1  C   UNL     1      -5.390  -2.000   0.023  0.00  0.00    +0.142 C 
ATOM      2  C   UNL     1      -5.424  -3.455  -0.356  0.00  0.00    +0.035 A 
ATOM      3  C   UNL     1      -5.018  -4.761  -0.060  0.00  0.00    +0.102 A 
ATOM      4  N   UNL     1      -5.530  -5.552  -0.983  0.00  0.00    -0.173 NA
ATOM      5  N   UNL     1      -6.218  -4.875  -1.831  0.00  0.00    -0.272 N 
ATOM      6  H   UNL     1      -6.684  -5.250  -2.595  0.00  0.00    +0.189 HD
ATOM      7  C   UNL     1      -6.195  -3.551  -1.499  0.00  0.00    +0.126 A 
ATOM      8  C   UNL     1      -6.654  -2.206  -1.865  0.00  0.00    +0.266 C 
ATOM      9  O   UNL     1      -7.354  -1.950  -2.826  0.00  0.00    -0.268 OA
ATOM     10  N   UNL     1      -6.192  -1.297  -0.986  0.00  0.00    -0.281 N 
ENDROOT
BRANCH   3  11
ATOM     11  C   UNL     1      -4.168  -5.179   1.083  0.00  0.00    +0.045 A 
ATOM     12  C   UNL     1      -3.798  -4.253   2.055  0.00  0.00    +0.034 A 
ATOM     13  C   UNL     1      -3.007  -4.647   3.116  0.00  0.00    +0.045 A 
ATOM     14  C   UNL     1      -2.579  -5.960   3.216  0.00  0.00    -0.029 A 
ATOM     15  C   UNL     1      -2.941  -6.886   2.256  0.00  0.00    +0.050 A 
ATOM     16  C   UNL     1      -3.740  -6.505   1.190  0.00  0.00    +0.126 A 
ATOM     17  C   UNL     1      -1.716  -6.381   4.378  0.00  0.00    +0.045 C 
ATOM     18 CL   UNL     1      -2.546  -3.492   4.327  0.00  0.00    -0.083 Cl
BRANCH  16  19
ATOM     19  O   UNL     1      -4.100  -7.416   0.249  0.00  0.00    -0.506 OA
ATOM     20  H   UNL     1      -3.481  -7.484  -0.490  0.00  0.00    +0.292 HD
ENDBRANCH  16  19
ENDBRANCH   3  11
BRANCH   1  24
ATOM     21  C   UNL     1      -1.369  -0.559  -0.035  0.00  0.00    -0.048 A 
ATOM     22  C   UNL     1      -1.965  -0.990  -1.205  0.00  0.00    +0.004 A 
ATOM     23  C   UNL     1      -3.267  -1.456  -1.186  0.00  0.00    +0.006 A 
ATOM     24  C   UNL     1      -3.971  -1.492   0.003  0.00  0.00    -0.022 A 
ATOM     25  C   UNL     1      -3.374  -1.062   1.173  0.00  0.00    +0.006 A 
ATOM     26  C   UNL     1      -2.071  -0.600   1.155  0.00  0.00    +0.004 A 
BRANCH  21  28
ATOM     27  C   UNL     1       1.013  -1.217   0.177  0.00  0.00    +0.009 C 
ATOM     28  C   UNL     1       0.050  -0.051  -0.055  0.00  0.00    +0.032 C 
ENDBRANCH  21  28
ENDBRANCH   1  24
BRANCH  10  29
ATOM     29  C   UNL     1      -6.446   0.146  -1.028  0.00  0.00    +0.144 C 
BRANCH  29  30
ATOM     30  C   UNL     1      -5.372   0.821  -1.840  0.00  0.00    -0.030 A 
ATOM     31  C   UNL     1      -4.219   1.270  -1.222  0.00  0.00    +0.009 A 
ATOM     32  C   UNL     1      -3.233   1.891  -1.965  0.00  0.00    +0.046 A 
ATOM     33  C   UNL     1      -3.400   2.062  -3.331  0.00  0.00    +0.120 A 
ATOM     34  C   UNL     1      -4.557   1.611  -3.949  0.00  0.00    +0.046 A 
ATOM     35  C   UNL     1      -5.538   0.986  -3.203  0.00  0.00    +0.009 A 
BRANCH  33  36
ATOM     36  O   UNL     1      -2.431   2.673  -4.064  0.00  0.00    -0.495 OA
ATOM     37  C   UNL     1      -2.671   2.815  -5.465  0.00  0.00    +0.277 C 
ENDBRANCH  33  36
ENDBRANCH  29  30
ENDBRANCH  10  29
TORSDOF 7
