REMARK  Name = ZINC40947219
REMARK  11 active torsions:
REMARK  status: ('A' for Active; 'I' for Inactive)
REMARK    1  A    between atoms: C_1  and  C_2
REMARK    2  A    between atoms: C_2  and  O_3
REMARK    3  A    between atoms: O_3  and  C_4
REMARK    4  A    between atoms: C_6  and  C_20
REMARK    5  A    between atoms: C_9  and  O_10
REMARK    6  A    between atoms: O_10  and  C_11
REMARK    7  A    between atoms: C_11  and  C_12
REMARK    8  A    between atoms: N_21  and  N_22
REMARK    9  A    between atoms: C_23  and  C_25
REMARK   10  A    between atoms: C_25  and  S_26
REMARK   11  A    between atoms: S_26  and  C_27
REMARK                            x       y       z     vdW  Elec       q    Type
REMARK                         _______ _______ _______ _____ _____    ______ ____
ROOT
ATOM      1  C   UNL     1      -1.498  -1.849   0.006  0.00  0.00    +0.163 A 
ATOM      2  C   UNL     1      -0.391  -2.676  -0.003  0.00  0.00    +0.059 A 
ATOM      3  C   UNL     1      -0.559  -4.063  -0.008  0.00  0.00    -0.002 A 
ATOM      4  C   UNL     1      -1.846  -4.608  -0.004  0.00  0.00    +0.013 A 
ATOM      5  C   UNL     1      -2.946  -3.776   0.005  0.00  0.00    +0.050 A 
ATOM      6  C   UNL     1      -2.779  -2.399   0.016  0.00  0.00    +0.163 A 
ENDROOT
BRANCH   3   7
ATOM      7  C   UNL     1       0.619  -4.950  -0.019  0.00  0.00    +0.138 C 
ATOM      8  N   UNL     1       0.461  -6.238  -0.024  0.00  0.00    -0.188 NA
BRANCH   8   9
ATOM      9  N   UNL     1       1.580  -7.081  -0.033  0.00  0.00    -0.206 N 
ATOM     10  C   UNL     1       1.416  -8.419  -0.039  0.00  0.00    +0.242 C 
ATOM     11  O   UNL     1       0.299  -8.893  -0.035  0.00  0.00    -0.273 OA
ATOM     12  H   UNL     1       2.473  -6.702  -0.036  0.00  0.00    +0.177 HD
BRANCH  10  13
ATOM     13  C   UNL     1       2.620  -9.326  -0.049  0.00  0.00    +0.173 C 
BRANCH  13  14
ATOM     14  S   UNL     1       2.074 -11.056  -0.054  0.00  0.00    -0.088 S 
BRANCH  14  15
ATOM     15  C   UNL     1       3.576 -11.977  -0.066  0.00  0.00    +0.160 A 
ATOM     16  N   UNL     1       4.822 -11.544  -0.065  0.00  0.00    -0.133 NA
ATOM     17  N   UNL     1       5.860 -12.447  -0.076  0.00  0.00    -0.125 NA
ATOM     18  C   UNL     1       5.605 -13.740  -0.087  0.00  0.00    +0.180 A 
ATOM     19  S   UNL     1       3.818 -13.746  -0.076  0.00  0.00    -0.025 S 
ATOM     20  N   UNL     1       6.489 -14.812  -0.099  0.00  0.00    -0.336 N 
ATOM     21  H   UNL     1       7.446 -14.652  -0.099  0.00  0.00    +0.144 HD
ATOM     22  H   UNL     1       6.150 -15.721  -0.106  0.00  0.00    +0.144 HD
ENDBRANCH  14  15
ENDBRANCH  13  14
ENDBRANCH  10  13
ENDBRANCH   8   9
ENDBRANCH   3   7
BRANCH   1  23
ATOM     23  O   UNL     1      -1.339  -0.499   0.012  0.00  0.00    -0.489 OA
BRANCH  23  25
ATOM     24  C   UNL     1      -0.019   1.526   0.010  0.00  0.00    +0.048 C 
ATOM     25  C   UNL     1       0.002  -0.004   0.002  0.00  0.00    +0.226 C 
ENDBRANCH  23  25
ENDBRANCH   1  23
BRANCH   6  26
ATOM     26  O   UNL     1      -3.866  -1.584   0.030  0.00  0.00    -0.479 OA
BRANCH  26  27
ATOM     27  C   UNL     1      -5.149  -2.214   0.039  0.00  0.00    +0.324 C 
BRANCH  27  28
ATOM     28  C   UNL     1      -6.226  -1.161   0.055  0.00  0.00    +0.253 C 
ATOM     29  O   UNL     1      -5.925   0.014   0.059  0.00  0.00    -0.272 OA
ATOM     30  N   UNL     1      -7.524  -1.524   0.066  0.00  0.00    -0.299 N 
ATOM     31  C   UNL     1      -7.904  -2.943   0.068  0.00  0.00    +0.108 C 
ATOM     32  C   UNL     1      -8.853  -3.197   1.243  0.00  0.00    +0.019 C 
ATOM     33  C   UNL     1     -10.036  -2.230   1.157  0.00  0.00    +0.003 C 
ATOM     34  C   UNL     1      -9.527  -0.790   1.250  0.00  0.00    +0.019 C 
ATOM     35  C   UNL     1      -8.585  -0.508   0.081  0.00  0.00    +0.108 C 
ENDBRANCH  27  28
ENDBRANCH  26  27
ENDBRANCH   6  26
TORSDOF 10
