REMARK  Name = ZINC19352359
REMARK  9 active torsions:
REMARK  status: ('A' for Active; 'I' for Inactive)
REMARK    1  A    between atoms: C_1  and  C_2
REMARK    2  A    between atoms: C_2  and  C_4
REMARK    3  A    between atoms: C_2  and  N_14
REMARK    4  A    between atoms: C_15  and  C_17
REMARK    5  A    between atoms: C_17  and  O_18
REMARK    6  A    between atoms: O_18  and  C_19
REMARK    7  A    between atoms: C_19  and  C_21
REMARK    8  A    between atoms: C_24  and  C_27
REMARK    9  A    between atoms: C_27  and  N_28
REMARK                            x       y       z     vdW  Elec       q    Type
REMARK                         _______ _______ _______ _____ _____    ______ ____
ROOT
ATOM      1  C   UNL     1      -8.793  -2.730  -1.026  0.00  0.00    +0.328 C 
ENDROOT
BRANCH   1   3
ATOM      2  N   UNL     1      -8.744  -4.560  -2.689  0.00  0.00    -0.306 N 
ATOM      3  C   UNL     1      -9.143  -3.313  -2.370  0.00  0.00    +0.251 C 
ATOM      4  O   UNL     1      -9.785  -2.660  -3.166  0.00  0.00    -0.272 OA
ATOM      5  H   UNL     1      -8.162  -5.152  -1.968  0.00  0.00    +0.149 HD
BRANCH   2   7
ATOM      6  C   UNL     1      -8.087  -6.232  -4.349  0.00  0.00    +0.033 C 
ATOM      7  C   UNL     1      -9.085  -5.127  -3.996  0.00  0.00    +0.101 C 
BRANCH   7   8
ATOM      8  C   UNL     1     -10.476  -5.703  -3.947  0.00  0.00    -0.020 A 
ATOM      9  C   UNL     1     -11.010  -6.099  -2.759  0.00  0.00    +0.006 A 
ATOM     10  C   UNL     1     -12.297  -6.630  -2.693  0.00  0.00    +0.001 A 
ATOM     11  C   UNL     1     -13.053  -6.777  -3.815  0.00  0.00    +0.008 A 
ATOM     12  C   UNL     1     -12.534  -6.384  -5.060  0.00  0.00    -0.018 A 
ATOM     13  C   UNL     1     -11.226  -5.840  -5.127  0.00  0.00    -0.013 A 
ATOM     14  C   UNL     1     -10.707  -5.446  -6.372  0.00  0.00    +0.009 A 
ATOM     15  C   UNL     1     -11.464  -5.592  -7.494  0.00  0.00    +0.001 A 
ATOM     16  C   UNL     1     -12.749  -6.128  -7.428  0.00  0.00    +0.001 A 
ATOM     17  C   UNL     1     -13.285  -6.519  -6.240  0.00  0.00    +0.008 A 
ENDBRANCH   7   8
ENDBRANCH   2   7
ENDBRANCH   1   3
BRANCH   1  18
ATOM     18  O   UNL     1      -9.333  -1.386  -0.925  0.00  0.00    -0.452 OA
BRANCH  18  19
ATOM     19  C   UNL     1      -9.106  -0.720   0.224  0.00  0.00    +0.340 C 
ATOM     20  O   UNL     1      -8.475  -1.248   1.117  0.00  0.00    -0.245 OA
BRANCH  19  21
ATOM     21  C   UNL     1      -9.626   0.652   0.397  0.00  0.00    +0.059 A 
ATOM     22  C   UNL     1      -9.393   1.345   1.587  0.00  0.00    +0.015 A 
ATOM     23  C   UNL     1      -9.881   2.626   1.742  0.00  0.00    +0.006 A 
ATOM     24  C   UNL     1     -10.599   3.224   0.722  0.00  0.00    -0.030 A 
ATOM     25  C   UNL     1     -10.838   2.541  -0.458  0.00  0.00    +0.006 A 
ATOM     26  C   UNL     1     -10.352   1.262  -0.628  0.00  0.00    +0.015 A 
BRANCH  24  27
ATOM     27  C   UNL     1     -11.129   4.624   0.899  0.00  0.00    +0.141 C 
BRANCH  27  28
ATOM     28  N   UNL     1     -10.130   5.587   0.430  0.00  0.00    -0.295 N 
ATOM     29  C   UNL     1     -10.389   6.909   0.487  0.00  0.00    +0.297 C 
ATOM     30  O   UNL     1     -11.451   7.301   0.931  0.00  0.00    -0.253 OA
ATOM     31  N   UNL     1      -9.472   7.795   0.051  0.00  0.00    -0.313 N 
ATOM     32  H   UNL     1      -9.168   5.232   0.032  0.00  0.00    +0.151 HD
ATOM     33  H   UNL     1      -9.684   8.873   0.097  0.00  0.00    +0.146 HD
ATOM     34  H   UNL     1      -8.512   7.439  -0.352  0.00  0.00    +0.146 HD
ENDBRANCH  27  28
ENDBRANCH  24  27
ENDBRANCH  19  21
ENDBRANCH  18  19
ENDBRANCH   1  18
TORSDOF 8
