REMARK  Name = ZINC00783870
REMARK  7 active torsions:
REMARK  status: ('A' for Active; 'I' for Inactive)
REMARK    1  A    between atoms: C_1  and  C_2
REMARK    2  A    between atoms: C_2  and  C_3
REMARK    3  A    between atoms: C_6  and  C_9
REMARK    4  A    between atoms: C_9  and  O_27
REMARK    5  A    between atoms: C_11  and  C_23
REMARK    6  A    between atoms: C_14  and  C_16
REMARK    7  A    between atoms: C_21  and  O_22
REMARK                            x       y       z     vdW  Elec       q    Type
REMARK                         _______ _______ _______ _____ _____    ______ ____
ROOT
ATOM      1  C   UNL     1       1.139   3.566   0.018  0.00  0.00    +0.187 C 
ATOM      2  C   UNL     1       1.262   4.082   1.466  0.00  0.00    +0.123 C 
ATOM      3  C   UNL     1      -0.025   4.843   1.688  0.00  0.00    +0.144 C 
ATOM      4  N   UNL     1      -0.739   4.795   0.638  0.00  0.00    -0.174 NA
ATOM      5  N   UNL     1      -0.172   4.077  -0.413  0.00  0.00    -0.153 N 
ATOM      6  C   UNL     1      -0.732   3.884  -1.624  0.00  0.00    +0.272 C 
ATOM      7  O   UNL     1      -0.105   3.321  -2.501  0.00  0.00    -0.268 OA
ENDROOT
BRANCH   1  11
ATOM      8  C   UNL     1       1.194  -0.705  -0.071  0.00  0.00    -0.048 A 
ATOM      9  C   UNL     1      -0.012  -0.029  -0.053  0.00  0.00    +0.004 A 
ATOM     10  C   UNL     1      -0.029   1.353  -0.024  0.00  0.00    +0.008 A 
ATOM     11  C   UNL     1       1.159   2.059  -0.013  0.00  0.00    +0.004 A 
ATOM     12  C   UNL     1       2.365   1.384  -0.031  0.00  0.00    +0.008 A 
ATOM     13  C   UNL     1       2.382   0.002  -0.060  0.00  0.00    +0.004 A 
BRANCH   8  15
ATOM     14  C   UNL     1       1.215  -2.691  -1.555  0.00  0.00    +0.009 C 
ATOM     15  C   UNL     1       1.213  -2.211  -0.102  0.00  0.00    +0.032 C 
ENDBRANCH   8  15
ENDBRANCH   1  11
BRANCH   6  16
ATOM     16  C   UNL     1      -2.105   4.355  -1.885  0.00  0.00    +0.080 A 
ATOM     17  C   UNL     1      -2.783   5.112  -0.926  0.00  0.00    +0.017 A 
ATOM     18  C   UNL     1      -4.063   5.554  -1.179  0.00  0.00    +0.001 A 
ATOM     19  C   UNL     1      -4.687   5.242  -2.376  0.00  0.00    +0.004 A 
ATOM     20  C   UNL     1      -4.031   4.490  -3.330  0.00  0.00    +0.046 A 
ATOM     21  C   UNL     1      -2.739   4.041  -3.095  0.00  0.00    +0.129 A 
BRANCH  21  22
ATOM     22  O   UNL     1      -2.093   3.303  -4.032  0.00  0.00    -0.506 OA
ATOM     23  H   UNL     1      -2.228   2.349  -3.942  0.00  0.00    +0.292 HD
ENDBRANCH  21  22
ENDBRANCH   6  16
BRANCH   3  24
ATOM     24  C   UNL     1      -0.405   5.551   2.963  0.00  0.00    +0.432 C 
ATOM     25  F   UNL     1      -1.662   6.146   2.809  0.00  0.00    -0.165 F 
ATOM     26  F   UNL     1      -0.451   4.628   4.013  0.00  0.00    -0.165 F 
ATOM     27  F   UNL     1       0.545   6.537   3.249  0.00  0.00    -0.165 F 
ENDBRANCH   3  24
BRANCH   1  28
ATOM     28  O   UNL     1       2.185   4.098  -0.798  0.00  0.00    -0.366 OA
ATOM     29  H   UNL     1       2.134   3.833  -1.726  0.00  0.00    +0.212 HD
ENDBRANCH   1  28
TORSDOF 6
