REMARK  Name = ZINC19832234
REMARK  4 active torsions:
REMARK  status: ('A' for Active; 'I' for Inactive)
REMARK    1  A    between atoms: C_8  and  C_10
REMARK    2  A    between atoms: C_13  and  N_16
REMARK    3  A    between atoms: C_20  and  N_24
REMARK    4  A    between atoms: N_24  and  C_25
REMARK                            x       y       z     vdW  Elec       q    Type
REMARK                         _______ _______ _______ _____ _____    ______ ____
ROOT
ATOM      1  N   UNL     1       2.653   5.502   2.408  0.00  0.00    -0.212 N 
ATOM      2  C   UNL     1       2.817   6.325   1.365  0.00  0.00    +0.225 C 
ATOM      3  O   UNL     1       2.924   7.531   1.431  0.00  0.00    -0.275 OA
ATOM      4  C   UNL     1       2.847   5.511   0.086  0.00  0.00    +0.090 C 
ATOM      5  C   UNL     1       2.668   4.061   0.581  0.00  0.00    +0.026 C 
ATOM      6  C   UNL     1       2.559   4.207   2.083  0.00  0.00    +0.213 C 
ATOM      7  O   UNL     1       2.408   3.295   2.868  0.00  0.00    -0.277 OA
ENDROOT
BRANCH   1  11
ATOM      8  C   UNL     1       2.457   6.863   6.346  0.00  0.00    +0.037 A 
ATOM      9  C   UNL     1       3.649   6.969   5.627  0.00  0.00    +0.015 A 
ATOM     10  C   UNL     1       3.711   6.518   4.327  0.00  0.00    +0.025 A 
ATOM     11  C   UNL     1       2.587   5.958   3.729  0.00  0.00    +0.044 A 
ATOM     12  C   UNL     1       1.397   5.856   4.440  0.00  0.00    +0.025 A 
ATOM     13  C   UNL     1       1.330   6.299   5.742  0.00  0.00    +0.015 A 
BRANCH   8  21
ATOM     14  C   UNL     1       2.851   8.992  11.911  0.00  0.00    +0.002 A 
ATOM     15  C   UNL     1       1.519   8.609  11.983  0.00  0.00    +0.004 A 
ATOM     16  C   UNL     1       0.898   8.027  10.898  0.00  0.00    +0.048 A 
ATOM     17  C   UNL     1       1.607   7.822   9.724  0.00  0.00    +0.156 A 
ATOM     18  C   UNL     1       2.955   8.207   9.646  0.00  0.00    +0.110 A 
ATOM     19  C   UNL     1       3.571   8.795  10.754  0.00  0.00    +0.031 A 
ATOM     20  N   UNL     1       3.382   7.882   8.399  0.00  0.00    -0.209 NA
ATOM     21  C   UNL     1       2.387   7.345   7.740  0.00  0.00    +0.228 A 
ATOM     22  O   UNL     1       1.292   7.291   8.522  0.00  0.00    -0.435 OA
ENDBRANCH   8  21
ENDBRANCH   1  11
BRANCH   5  23
ATOM     23  N   UNL     1       1.441   3.473   0.028  0.00  0.00    +0.389 N 
ATOM     24  H   UNL     1       0.580   3.780   0.639  0.00  0.00    -0.084 HD
ATOM     25  H   UNL     1       1.301   3.823  -1.006  0.00  0.00    -0.084 HD
BRANCH  23  26
ATOM     26  C   UNL     1       1.516   2.006   0.022  0.00  0.00    -0.071 C 
ATOM     27  C   UNL     1       0.102   1.423   0.052  0.00  0.00    -0.016 C 
ATOM     28  C   UNL     1       0.181  -0.105   0.046  0.00  0.00    -0.002 C 
ATOM     29  C   UNL     1       0.899  -0.574  -1.221  0.00  0.00    -0.000 C 
ATOM     30  C   UNL     1       2.313   0.009  -1.252  0.00  0.00    -0.002 C 
ATOM     31  C   UNL     1       2.234   1.537  -1.246  0.00  0.00    -0.016 C 
ENDBRANCH  23  26
ENDBRANCH   5  23
TORSDOF 4
