REMARK  Name = ZINC09487250
REMARK  9 active torsions:
REMARK  status: ('A' for Active; 'I' for Inactive)
REMARK    1  A    between atoms: C_1  and  C_2
REMARK    2  A    between atoms: C_2  and  C_3
REMARK    3  A    between atoms: N_8  and  C_9
REMARK    4  A    between atoms: C_18  and  C_20
REMARK    5  A    between atoms: C_20  and  C_21
REMARK    6  A    between atoms: C_21  and  C_22
REMARK    7  A    between atoms: C_23  and  C_33
REMARK    8  A    between atoms: C_24  and  C_31
REMARK    9  A    between atoms: C_29  and  C_30
REMARK                            x       y       z     vdW  Elec       q    Type
REMARK                         _______ _______ _______ _____ _____    ______ ____
ROOT
ATOM      1  C   UNL     1      -1.637   3.798   2.599  0.00  0.00    +0.093 C 
ATOM      2  C   UNL     1      -1.797   5.322   2.758  0.00  0.00    +0.100 C 
ATOM      3  S   UNL     1      -0.798   5.938   1.350  0.00  0.00    -0.088 S 
ATOM      4  C   UNL     1      -0.254   4.382   0.674  0.00  0.00    +0.164 C 
ATOM      5  N   UNL     1       0.512   4.197  -0.375  0.00  0.00    -0.226 NA
ATOM      6  N   UNL     1      -0.806   3.417   1.481  0.00  0.00    -0.247 N 
ATOM      7  C   UNL     1      -0.577   2.113   1.226  0.00  0.00    +0.222 C 
ATOM      8  O   UNL     1      -0.994   1.264   1.984  0.00  0.00    -0.275 OA
ENDROOT
BRANCH   5   9
ATOM      9  C   UNL     1       0.984   5.274  -1.077  0.00  0.00    +0.068 A 
ATOM     10  C   UNL     1       0.127   6.327  -1.406  0.00  0.00    +0.029 A 
ATOM     11  C   UNL     1       0.609   7.412  -2.108  0.00  0.00    +0.023 A 
ATOM     12  C   UNL     1       1.938   7.454  -2.496  0.00  0.00    +0.059 A 
ATOM     13  C   UNL     1       2.792   6.411  -2.178  0.00  0.00    +0.061 A 
ATOM     14  C   UNL     1       2.322   5.322  -1.470  0.00  0.00    +0.049 A 
ATOM     15 CL   UNL     1       4.456   6.473  -2.669  0.00  0.00    -0.082 Cl
ATOM     16 CL   UNL     1       2.535   8.820  -3.386  0.00  0.00    -0.082 Cl
ENDBRANCH   5   9
BRANCH   1  18
ATOM     17  C   UNL     1      -1.956   3.509   5.060  0.00  0.00    +0.006 C 
ATOM     18  C   UNL     1      -1.018   3.239   3.882  0.00  0.00    +0.020 C 
ENDBRANCH   1  18
BRANCH   7  19
ATOM     19  C   UNL     1       0.198   1.711  -0.003  0.00  0.00    +0.101 C 
BRANCH  19  20
ATOM     20  C   UNL     1       0.315   0.186  -0.055  0.00  0.00    +0.046 C 
BRANCH  20  21
ATOM     21  C   UNL     1       1.090  -0.216  -1.284  0.00  0.00    -0.024 A 
ATOM     22  C   UNL     1       0.431  -0.363  -2.505  0.00  0.00    -0.023 A 
ATOM     23  C   UNL     1       1.167  -0.731  -3.628  0.00  0.00    +0.119 A 
ATOM     24  C   UNL     1       2.562  -0.953  -3.490  0.00  0.00    +0.267 A 
ATOM     25  O   UNL     1       3.229  -1.280  -4.457  0.00  0.00    -0.266 OA
ATOM     26  N   UNL     1       3.147  -0.802  -2.286  0.00  0.00    -0.325 N 
ATOM     27  H   UNL     1       4.101  -0.956  -2.197  0.00  0.00    +0.169 HD
ATOM     28  C   UNL     1       2.425  -0.440  -1.199  0.00  0.00    +0.019 A 
ATOM     29  C   UNL     1       3.118  -0.281   0.130  0.00  0.00    +0.063 C 
ATOM     30  C   UNL     1      -1.053  -0.123  -2.608  0.00  0.00    +0.045 C 
BRANCH  23  31
ATOM     31  C   UNL     1       0.527  -0.887  -4.900  0.00  0.00    +0.105 C 
ATOM     32  N   UNL     1       0.020  -1.011  -5.909  0.00  0.00    -0.191 NA
ENDBRANCH  23  31
ENDBRANCH  20  21
ENDBRANCH  19  20
ENDBRANCH   7  19
TORSDOF 6
