REMARK  Name = ZINC17249311
REMARK  3 active torsions:
REMARK  status: ('A' for Active; 'I' for Inactive)
REMARK    1  A    between atoms: C_10  and  N_11
REMARK    2  A    between atoms: C_15  and  N_16
REMARK    3  A    between atoms: N_16  and  C_17
REMARK                            x       y       z     vdW  Elec       q    Type
REMARK                         _______ _______ _______ _____ _____    ______ ____
ROOT
ATOM      1  N   UNL     1       4.877   0.095  -0.045  0.00  0.00    -0.217 N 
ATOM      2  C   UNL     1       5.460   0.415   1.129  0.00  0.00    +0.263 C 
ATOM      3  O   UNL     1       4.963   0.075   2.187  0.00  0.00    -0.269 OA
ATOM      4  C   UNL     1       6.714   1.187   1.095  0.00  0.00    +0.113 C 
ATOM      5  C   UNL     1       7.369   1.551   2.258  0.00  0.00    +0.090 C 
ATOM      6  C   UNL     1       7.241   1.555  -0.231  0.00  0.00    +0.256 C 
ATOM      7  O   UNL     1       8.272   2.192  -0.340  0.00  0.00    -0.270 OA
ATOM      8  N   UNL     1       6.550   1.165  -1.322  0.00  0.00    -0.263 N 
ATOM      9  C   UNL     1       5.416   0.458  -1.217  0.00  0.00    +0.151 C 
ATOM     10  S   UNL     1       4.609   0.001  -2.656  0.00  0.00    -0.018 S 
ATOM     11  H   UNL     1       6.882   1.399  -2.203  0.00  0.00    +0.157 HD
ENDROOT
BRANCH   1  21
ATOM     12  C   UNL     1      -0.028   1.286   0.056  0.00  0.00    +0.001 A 
ATOM     13  C   UNL     1       1.147   2.035   0.050  0.00  0.00    +0.001 A 
ATOM     14  C   UNL     1       2.365   1.428   0.019  0.00  0.00    +0.010 A 
ATOM     15  C   UNL     1       2.442   0.026  -0.007  0.00  0.00    +0.004 A 
ATOM     16  C   UNL     1       1.248  -0.736  -0.001  0.00  0.00    -0.016 A 
ATOM     17  C   UNL     1       0.008  -0.074   0.031  0.00  0.00    +0.008 A 
ATOM     18  C   UNL     1       1.323  -2.139  -0.025  0.00  0.00    +0.008 A 
ATOM     19  C   UNL     1       2.538  -2.754  -0.055  0.00  0.00    +0.002 A 
ATOM     20  C   UNL     1       3.717  -2.015  -0.061  0.00  0.00    +0.024 A 
ATOM     21  C   UNL     1       3.686  -0.638  -0.038  0.00  0.00    +0.051 A 
ENDBRANCH   1  21
BRANCH   5  22
ATOM     22  N   UNL     1       6.799   1.310   3.457  0.00  0.00    -0.320 N 
ATOM     23  H   UNL     1       5.967   0.813   3.507  0.00  0.00    +0.152 HD
BRANCH  22  24
ATOM     24  C   UNL     1       7.407   1.776   4.627  0.00  0.00    +0.031 A 
ATOM     25  C   UNL     1       8.595   2.493   4.555  0.00  0.00    +0.026 A 
ATOM     26  C   UNL     1       9.193   2.953   5.712  0.00  0.00    +0.040 A 
ATOM     27  C   UNL     1       8.611   2.699   6.942  0.00  0.00    +0.124 A 
ATOM     28  C   UNL     1       7.427   1.985   7.016  0.00  0.00    +0.040 A 
ATOM     29  C   UNL     1       6.821   1.528   5.862  0.00  0.00    +0.026 A 
ATOM     30  F   UNL     1       9.199   3.149   8.072  0.00  0.00    -0.205 F 
ENDBRANCH  22  24
ENDBRANCH   5  22
TORSDOF 3
