REMARK  Name = ZINC66933766
REMARK  3 active torsions:
REMARK  status: ('A' for Active; 'I' for Inactive)
REMARK    1  A    between atoms: C_5  and  C_7
REMARK    2  A    between atoms: N_10  and  S_14
REMARK    3  A    between atoms: S_14  and  C_17
REMARK                            x       y       z     vdW  Elec       q    Type
REMARK                         _______ _______ _______ _____ _____    ______ ____
ROOT
ATOM      1  C   UNL     1       1.228  -2.186  -0.022  0.00  0.00    +0.167 C 
ATOM      2  C   UNL     1       1.344  -2.688  -1.466  0.00  0.00    +0.146 C 
ATOM      3  N   UNL     1       1.173  -4.150  -1.464  0.00  0.00    -0.172 NA
ATOM      4  C   UNL     1       0.007  -4.709  -0.763  0.00  0.00    +0.137 C 
ATOM      5  C   UNL     1      -0.044  -4.109   0.646  0.00  0.00    +0.178 C 
ATOM      6  O   UNL     1       0.018  -2.683   0.554  0.00  0.00    -0.369 OA
ENDROOT
BRANCH   1  11
ATOM      7  C   UNL     1      -0.017   1.378   0.010  0.00  0.00    +0.001 A 
ATOM      8  C   UNL     1       1.171   2.087   0.002  0.00  0.00    +0.003 A 
ATOM      9  C   UNL     1       2.377   1.414  -0.013  0.00  0.00    +0.039 A 
ATOM     10  C   UNL     1       2.397   0.029  -0.021  0.00  0.00    +0.129 A 
ATOM     11  C   UNL     1       1.208  -0.679  -0.013  0.00  0.00    +0.018 A 
ATOM     12  C   UNL     1       0.002  -0.004   0.002  0.00  0.00    +0.009 A 
ATOM     13  F   UNL     1       3.577  -0.630  -0.036  0.00  0.00    -0.205 F 
ENDBRANCH   1  11
BRANCH   3  14
ATOM     14  S   UNL     1       2.262  -5.136  -2.228  0.00  0.00    +0.061 S 
ATOM     15  O   UNL     1       1.574  -6.342  -2.533  0.00  0.00    -0.153 OA
ATOM     16  O   UNL     1       2.894  -4.347  -3.227  0.00  0.00    -0.153 OA
BRANCH  14  17
ATOM     17  C   UNL     1       3.506  -5.550  -1.052  0.00  0.00    +0.108 A 
ATOM     18  C   UNL     1       4.626  -4.750  -0.920  0.00  0.00    +0.031 A 
ATOM     19  C   UNL     1       5.603  -5.072   0.003  0.00  0.00    +0.043 A 
ATOM     20  C   UNL     1       5.461  -6.197   0.796  0.00  0.00    +0.159 A 
ATOM     21  C   UNL     1       4.338  -7.000   0.665  0.00  0.00    +0.160 A 
ATOM     22  C   UNL     1       3.359  -6.671  -0.257  0.00  0.00    +0.069 A 
ATOM     23  F   UNL     1       4.198  -8.099   1.438  0.00  0.00    -0.202 F 
ATOM     24  F   UNL     1       6.416  -6.514   1.698  0.00  0.00    -0.202 F 
ENDBRANCH  14  17
ENDBRANCH   3  14
TORSDOF 3
