REMARK  Name = ZINC48625017
REMARK  3 active torsions:
REMARK  status: ('A' for Active; 'I' for Inactive)
REMARK    1  A    between atoms: C_3  and  C_11
REMARK    2  A    between atoms: C_12  and  C_13
REMARK    3  A    between atoms: C_13  and  C_15
REMARK                            x       y       z     vdW  Elec       q    Type
REMARK                         _______ _______ _______ _____ _____    ______ ____
ROOT
ATOM      1  C   UNL     1      -0.017   1.381   0.010  0.00  0.00    +0.004 A 
ATOM      2  C   UNL     1       1.162   2.093   0.002  0.00  0.00    +0.012 A 
ATOM      3  C   UNL     1       2.387   1.415  -0.014  0.00  0.00    +0.020 A 
ATOM      4  C   UNL     1       2.405   0.011  -0.023  0.00  0.00    +0.169 A 
ATOM      5  C   UNL     1       1.207  -0.691  -0.013  0.00  0.00    +0.163 A 
ATOM      6  C   UNL     1       0.002  -0.004   0.002  0.00  0.00    +0.049 A 
ATOM      7  O   UNL     1       1.199  -2.053  -0.012  0.00  0.00    -0.485 OA
ATOM      8  C   UNL     1       2.413  -2.703  -0.402  0.00  0.00    +0.270 C 
ATOM      9  C   UNL     1       3.579  -2.024   0.329  0.00  0.00    +0.270 C 
ATOM     10  O   UNL     1       3.596  -0.641  -0.042  0.00  0.00    -0.484 OA
ENDROOT
BRANCH   3  11
ATOM     11  C   UNL     1       3.648   2.169  -0.024  0.00  0.00    +0.015 C 
ATOM     12  C   UNL     1       3.627   3.520  -0.016  0.00  0.00    +0.052 C 
BRANCH  12  13
ATOM     13  C   UNL     1       4.883   4.271  -0.026  0.00  0.00    +0.193 C 
ATOM     14  O   UNL     1       5.948   3.678  -0.040  0.00  0.00    -0.287 OA
BRANCH  13  15
ATOM     15  C   UNL     1       4.861   5.737  -0.018  0.00  0.00    +0.060 A 
ATOM     16  C   UNL     1       5.925   6.628  -0.030  0.00  0.00    +0.020 A 
ATOM     17  C   UNL     1       5.588   7.960  -0.018  0.00  0.00    +0.023 A 
ATOM     18  C   UNL     1       4.275   8.307   0.004  0.00  0.00    +0.056 A 
ATOM     19  S   UNL     1       3.459   6.839   0.003  0.00  0.00    -0.078 S 
ATOM     20 BR   UNL     1       3.535  10.047   0.026  0.00  0.00    -0.043 Br
ENDBRANCH  13  15
ENDBRANCH  12  13
ENDBRANCH   3  11
TORSDOF 3
