REMARK  Name = ZINC00866861
REMARK  7 active torsions:
REMARK  status: ('A' for Active; 'I' for Inactive)
REMARK    1  A    between atoms: C_1  and  C_2
REMARK    2  A    between atoms: C_2  and  C_3
REMARK    3  A    between atoms: C_2  and  C_4
REMARK    4  A    between atoms: C_4  and  N_5
REMARK    5  A    between atoms: C_6  and  C_8
REMARK    6  A    between atoms: C_13  and  C_24
REMARK    7  A    between atoms: C_16  and  C_19
REMARK                            x       y       z     vdW  Elec       q    Type
REMARK                         _______ _______ _______ _____ _____    ______ ____
ROOT
ATOM      1  C   UNL     1      -2.558  -4.153  -0.259  0.00  0.00    +0.167 A 
ATOM      2  C   UNL     1      -3.692  -4.995  -0.293  0.00  0.00    +0.112 A 
ATOM      3  C   UNL     1      -3.253  -6.264  -0.420  0.00  0.00    +0.137 A 
ATOM      4  N   UNL     1      -1.887  -6.239  -0.464  0.00  0.00    -0.237 N 
ATOM      5  N   UNL     1      -1.479  -4.909  -0.369  0.00  0.00    -0.163 NA
ATOM      6  C   UNL     1      -1.056  -7.439  -0.594  0.00  0.00    +0.215 C 
ATOM      7  C   UNL     1      -1.886  -8.663  -0.188  0.00  0.00    +0.066 C 
ATOM      8  C   UNL     1      -3.230  -8.650  -0.923  0.00  0.00    +0.140 C 
ATOM      9  N   UNL     1      -3.984  -7.453  -0.502  0.00  0.00    -0.318 N 
ATOM     10 CL   UNL     1      -5.349  -4.489  -0.189  0.00  0.00    -0.078 Cl
ATOM     11  H   UNL     1      -4.931  -7.490  -0.294  0.00  0.00    +0.148 HD
ENDROOT
BRANCH   8  12
ATOM     12  C   UNL     1      -2.993  -8.607  -2.411  0.00  0.00    +0.125 A 
ATOM     13  C   UNL     1      -3.054  -9.657  -3.249  0.00  0.00    +0.046 A 
ATOM     14  C   UNL     1      -2.765  -9.166  -4.543  0.00  0.00    +0.041 A 
ATOM     15  C   UNL     1      -2.545  -7.845  -4.418  0.00  0.00    +0.195 A 
ATOM     16  O   UNL     1      -2.689  -7.511  -3.126  0.00  0.00    -0.466 OA
ENDBRANCH   8  12
BRANCH   1  18
ATOM     17  N   UNL     1      -1.416  -1.993  -0.116  0.00  0.00    -0.310 N 
ATOM     18  C   UNL     1      -2.575  -2.682  -0.130  0.00  0.00    +0.266 C 
ATOM     19  O   UNL     1      -3.634  -2.092  -0.036  0.00  0.00    -0.268 OA
ATOM     20  H   UNL     1      -0.572  -2.463  -0.190  0.00  0.00    +0.149 HD
BRANCH  17  21
ATOM     21  C   UNL     1      -1.433  -0.534   0.013  0.00  0.00    +0.107 C 
BRANCH  21  23
ATOM     22  C   UNL     1      -0.019   1.526   0.010  0.00  0.00    +0.009 C 
ATOM     23  C   UNL     1       0.002  -0.004   0.002  0.00  0.00    -0.000 C 
ATOM     24  C   UNL     1       0.742  -0.511   1.242  0.00  0.00    +0.009 C 
ENDBRANCH  21  23
ENDBRANCH  17  21
ENDBRANCH   1  18
BRANCH   6  25
ATOM     25  C   UNL     1       0.165  -7.319   0.320  0.00  0.00    +0.412 C 
ATOM     26  F   UNL     1      -0.258  -7.186   1.648  0.00  0.00    -0.168 F 
ATOM     27  F   UNL     1       0.956  -8.465   0.195  0.00  0.00    -0.168 F 
ATOM     28  F   UNL     1       0.912  -6.194  -0.046  0.00  0.00    -0.168 F 
ENDBRANCH   6  25
TORSDOF 5
