REMARK  Name = ZINC36571388
REMARK  18 active torsions:
REMARK  status: ('A' for Active; 'I' for Inactive)
REMARK    1  A    between atoms: C_1  and  C_2
REMARK    2  A    between atoms: C_2  and  C_3
REMARK    3  A    between atoms: C_3  and  N_4
REMARK    4  A    between atoms: N_4  and  C_5
REMARK    5  A    between atoms: C_5  and  C_7
REMARK    6  A    between atoms: C_5  and  C_16
REMARK    7  A    between atoms: C_10  and  N_13
REMARK    8  A    between atoms: N_18  and  C_19
REMARK    9  A    between atoms: C_19  and  C_20
REMARK   10  A    between atoms: C_19  and  C_21
REMARK   11  A    between atoms: C_19  and  C_22
REMARK   12  A    between atoms: C_22  and  C_23
REMARK   13  A    between atoms: C_23  and  C_24
REMARK   14  A    between atoms: C_23  and  C_25
REMARK   15  A    between atoms: C_23  and  C_26
REMARK   16  A    between atoms: C_27  and  C_29
REMARK   17  A    between atoms: C_33  and  O_36
REMARK   18  A    between atoms: C_34  and  O_35
REMARK                            x       y       z     vdW  Elec       q    Type
REMARK                         _______ _______ _______ _____ _____    ______ ____
ROOT
ATOM      1  C   UNL     1      -1.512  -4.375   0.049  0.00  0.00    +0.192 C 
ENDROOT
BRANCH   1   2
ATOM      2  C   UNL     1      -0.423  -3.369   0.318  0.00  0.00    -0.018 A 
ATOM      3  C   UNL     1      -0.535  -2.081  -0.171  0.00  0.00    +0.008 A 
ATOM      4  C   UNL     1       0.464  -1.158   0.076  0.00  0.00    +0.033 A 
ATOM      5  C   UNL     1       1.575  -1.523   0.812  0.00  0.00    +0.126 A 
ATOM      6  C   UNL     1       1.688  -2.811   1.302  0.00  0.00    +0.033 A 
ATOM      7  C   UNL     1       0.686  -3.732   1.058  0.00  0.00    +0.008 A 
BRANCH   5   8
ATOM      8  N   UNL     1       2.645  -0.535   1.075  0.00  0.00    +0.056 N 
ATOM      9  O   UNL     1       2.547   0.591   0.647  0.00  0.00    -0.126 OA
ATOM     10  O   UNL     1       3.618  -0.854   1.719  0.00  0.00    -0.126 OA
ENDBRANCH   5   8
ENDBRANCH   1   2
BRANCH   1  11
ATOM     11  C   UNL     1      -2.038  -4.907   1.356  0.00  0.00    +0.239 C 
ATOM     12  O   UNL     1      -3.191  -4.704   1.674  0.00  0.00    -0.273 OA
ATOM     13  N   UNL     1      -1.229  -5.609   2.173  0.00  0.00    -0.308 N 
ATOM     14  H   UNL     1      -0.307  -5.772   1.919  0.00  0.00    +0.149 HD
BRANCH  13  15
ATOM     15  C   UNL     1      -1.741  -6.127   3.445  0.00  0.00    +0.030 C 
ATOM     16  C   UNL     1      -1.791  -4.995   4.473  0.00  0.00    +0.031 C 
ATOM     17  C   UNL     1      -3.148  -6.690   3.236  0.00  0.00    +0.031 C 
BRANCH  15  18
ATOM     18  C   UNL     1      -0.818  -7.236   3.953  0.00  0.00    +0.031 C 
BRANCH  18  19
ATOM     19  C   UNL     1      -0.378  -8.112   2.778  0.00  0.00    -0.036 C 
ATOM     20  C   UNL     1       0.926  -7.566   2.194  0.00  0.00    +0.010 C 
ATOM     21  C   UNL     1      -0.158  -9.546   3.265  0.00  0.00    +0.010 C 
ATOM     22  C   UNL     1      -1.464  -8.101   1.700  0.00  0.00    +0.010 C 
ENDBRANCH  18  19
ENDBRANCH  15  18
ENDBRANCH  13  15
ENDBRANCH   1  11
BRANCH   1  23
ATOM     23  N   UNL     1      -2.600  -3.731  -0.690  0.00  0.00    -0.282 N 
ATOM     24  C   UNL     1      -2.546  -3.648  -2.034  0.00  0.00    +0.251 C 
ATOM     25  O   UNL     1      -3.468  -3.150  -2.651  0.00  0.00    -0.270 OA
BRANCH  24  26
ATOM     26  C   UNL     1      -1.368  -4.163  -2.758  0.00  0.00    +0.082 A 
ATOM     27  C   UNL     1      -0.172  -4.399  -2.075  0.00  0.00    +0.017 A 
ATOM     28  C   UNL     1       0.926  -4.880  -2.754  0.00  0.00    +0.005 A 
ATOM     29  C   UNL     1       0.853  -5.132  -4.114  0.00  0.00    +0.049 A 
ATOM     30  C   UNL     1      -0.325  -4.903  -4.805  0.00  0.00    +0.159 A 
ATOM     31  C   UNL     1      -1.444  -4.422  -4.132  0.00  0.00    +0.171 A 
BRANCH  31  32
ATOM     32  O   UNL     1      -2.602  -4.202  -4.804  0.00  0.00    -0.503 OA
ATOM     33  H   UNL     1      -2.681  -3.310  -5.170  0.00  0.00    +0.292 HD
ENDBRANCH  31  32
BRANCH  30  34
ATOM     34  O   UNL     1      -0.389  -5.152  -6.140  0.00  0.00    -0.503 OA
ATOM     35  H   UNL     1      -0.667  -6.052  -6.359  0.00  0.00    +0.292 HD
ENDBRANCH  30  34
ENDBRANCH  24  26
BRANCH  23  36
ATOM     36  C   UNL     1      -3.748  -3.175   0.032  0.00  0.00    +0.109 C 
BRANCH  36  38
ATOM     37  C   UNL     1      -6.183  -3.493   0.490  0.00  0.00    +0.005 C 
ATOM     38  C   UNL     1      -5.031  -3.858  -0.447  0.00  0.00    +0.016 C 
ENDBRANCH  36  38
ENDBRANCH  23  36
ENDBRANCH   1  23
TORSDOF 12
