REMARK  Name = ZINC34107144
REMARK  8 active torsions:
REMARK  status: ('A' for Active; 'I' for Inactive)
REMARK    1  A    between atoms: C_1  and  C_2
REMARK    2  A    between atoms: C_10  and  O_34
REMARK    3  A    between atoms: C_21  and  C_22
REMARK    4  A    between atoms: C_25  and  O_30
REMARK    5  A    between atoms: C_26  and  O_28
REMARK    6  A    between atoms: O_28  and  C_29
REMARK    7  A    between atoms: O_30  and  C_31
REMARK    8  A    between atoms: O_34  and  C_35
REMARK                            x       y       z     vdW  Elec       q    Type
REMARK                         _______ _______ _______ _____ _____    ______ ____
ROOT
ATOM      1  C   UNL     1       0.098   1.331   0.444  0.00  0.00    +0.020 C 
ATOM      2  C   UNL     1       0.001  -0.142   0.049  0.00  0.00    +0.034 C 
ATOM      3  C   UNL     1      -1.446  -0.565  -0.039  0.00  0.00    +0.015 C 
ATOM      4  C   UNL     1      -2.062  -0.501   1.365  0.00  0.00    +0.009 C 
ATOM      5  C   UNL     1      -1.318  -1.390   2.355  0.00  0.00    +0.023 C 
ATOM      6  C   UNL     1      -1.936  -1.262   3.724  0.00  0.00    -0.041 A 
ATOM      7  C   UNL     1      -3.226  -1.753   3.890  0.00  0.00    +0.008 A 
ATOM      8  C   UNL     1      -3.855  -1.680   5.114  0.00  0.00    +0.046 A 
ATOM      9  C   UNL     1      -3.195  -1.111   6.194  0.00  0.00    +0.120 A 
ATOM     10  C   UNL     1      -1.911  -0.620   6.029  0.00  0.00    +0.049 A 
ATOM     11  C   UNL     1      -1.282  -0.694   4.794  0.00  0.00    -0.040 A 
ATOM     12  C   UNL     1       0.114  -0.133   4.683  0.00  0.00    +0.036 C 
ATOM     13  C   UNL     1       0.408   0.197   3.212  0.00  0.00    +0.009 C 
ATOM     14  C   UNL     1       0.180  -1.072   2.405  0.00  0.00    +0.001 C 
ATOM     15  C   UNL     1       0.737  -1.085   1.024  0.00  0.00    +0.010 C 
ATOM     16  C   UNL     1       2.180  -0.633   0.770  0.00  0.00    +0.043 C 
ATOM     17  C   UNL     1       2.179  -0.533  -0.761  0.00  0.00    -0.004 C 
ATOM     18  C   UNL     1       3.267  -0.638  -1.559  0.00  0.00    +0.015 C 
ATOM     19  C   UNL     1       0.840  -0.314  -1.197  0.00  0.00    +0.165 C 
ATOM     20  O   UNL     1       0.438  -0.271  -2.337  0.00  0.00    -0.292 OA
ENDROOT
BRANCH  18  21
ATOM     21  C   UNL     1       4.608  -0.716  -0.967  0.00  0.00    -0.021 A 
ATOM     22  C   UNL     1       4.875  -0.081   0.253  0.00  0.00    +0.012 A 
ATOM     23  C   UNL     1       6.133  -0.155   0.806  0.00  0.00    +0.050 A 
ATOM     24  C   UNL     1       7.140  -0.859   0.159  0.00  0.00    +0.162 A 
ATOM     25  C   UNL     1       6.883  -1.494  -1.056  0.00  0.00    +0.162 A 
ATOM     26  C   UNL     1       5.623  -1.430  -1.616  0.00  0.00    +0.057 A 
BRANCH  25  27
ATOM     27  O   UNL     1       7.873  -2.182  -1.687  0.00  0.00    -0.491 OA
ATOM     28  C   UNL     1       7.539  -2.807  -2.928  0.00  0.00    +0.277 C 
ENDBRANCH  25  27
BRANCH  24  29
ATOM     29  O   UNL     1       8.380  -0.929   0.710  0.00  0.00    -0.491 OA
ATOM     30  C   UNL     1       8.575  -0.256   1.955  0.00  0.00    +0.277 C 
ENDBRANCH  24  29
ENDBRANCH  18  21
BRANCH   9  31
ATOM     31  O   UNL     1      -3.804  -1.037   7.406  0.00  0.00    -0.495 OA
ATOM     32  C   UNL     1      -5.128  -1.567   7.500  0.00  0.00    +0.277 C 
ENDBRANCH   9  31
TORSDOF 4
