REMARK  Name = ZINC08568096
REMARK  7 active torsions:
REMARK  status: ('A' for Active; 'I' for Inactive)
REMARK    1  A    between atoms: C_1  and  C_2
REMARK    2  A    between atoms: C_2  and  C_3
REMARK    3  A    between atoms: C_3  and  C_4
REMARK    4  A    between atoms: C_4  and  C_5
REMARK    5  A    between atoms: C_12  and  N_27
REMARK    6  A    between atoms: C_13  and  C_25
REMARK    7  A    between atoms: N_21  and  C_24
REMARK                            x       y       z     vdW  Elec       q    Type
REMARK                         _______ _______ _______ _____ _____    ______ ____
ROOT
ATOM      1  C   UNL     1      -2.826  -2.585   0.015  0.00  0.00    +0.045 A 
ATOM      2  C   UNL     1      -3.610  -2.770  -1.058  0.00  0.00    +0.061 A 
ATOM      3  C   UNL     1      -4.854  -3.270  -0.611  0.00  0.00    +0.245 A 
ATOM      4  N   UNL     1      -4.803  -3.377   0.685  0.00  0.00    -0.135 NA
ATOM      5  N   UNL     1      -3.532  -2.957   1.108  0.00  0.00    -0.278 N 
ATOM      6  H   UNL     1      -3.215  -2.935   2.025  0.00  0.00    +0.189 HD
ATOM      7  O   UNL     1      -5.866  -3.557  -1.473  0.00  0.00    -0.421 OA
ATOM      8  C   UNL     1      -5.756  -3.111  -2.740  0.00  0.00    +0.201 C 
ATOM      9  C   UNL     1      -4.618  -2.622  -3.283  0.00  0.00    +0.110 C 
ATOM     10  C   UNL     1      -3.330  -2.526  -2.514  0.00  0.00    +0.145 C 
ATOM     11  C   UNL     1      -2.310  -3.485  -3.039  0.00  0.00    -0.001 A 
ATOM     12  C   UNL     1      -2.310  -4.860  -3.134  0.00  0.00    +0.007 A 
ATOM     13  C   UNL     1      -1.180  -5.455  -3.683  0.00  0.00    +0.000 A 
ATOM     14  C   UNL     1      -0.107  -4.700  -4.113  0.00  0.00    +0.002 A 
ATOM     15  C   UNL     1      -0.100  -3.317  -4.022  0.00  0.00    +0.024 A 
ATOM     16  C   UNL     1      -1.229  -2.708  -3.473  0.00  0.00    +0.041 A 
ATOM     17  N   UNL     1      -1.489  -1.364  -3.266  0.00  0.00    -0.273 N 
ATOM     18  C   UNL     1      -2.702  -1.164  -2.708  0.00  0.00    +0.240 C 
ATOM     19  O   UNL     1      -3.195  -0.094  -2.417  0.00  0.00    -0.274 OA
ATOM     20  C   UNL     1      -0.559  -0.287  -3.612  0.00  0.00    +0.138 C 
ENDROOT
BRANCH   8  21
ATOM     21  N   UNL     1      -6.875  -3.155  -3.534  0.00  0.00    -0.328 N 
ATOM     22  H   UNL     1      -7.709  -3.500  -3.177  0.00  0.00    +0.145 HD
ATOM     23  H   UNL     1      -6.832  -2.842  -4.451  0.00  0.00    +0.145 HD
ENDBRANCH   8  21
BRANCH   9  24
ATOM     24  C   UNL     1      -4.641  -2.179  -4.644  0.00  0.00    +0.102 C 
ATOM     25  N   UNL     1      -4.659  -1.827  -5.724  0.00  0.00    -0.191 NA
ENDBRANCH   9  24
BRANCH   1  26
ATOM     26  C   UNL     1      -1.413  -2.063   0.004  0.00  0.00    +0.055 C 
BRANCH  26  27
ATOM     27  C   UNL     1      -1.433  -0.534   0.013  0.00  0.00    +0.006 C 
BRANCH  27  29
ATOM     28  C   UNL     1      -0.019   1.526   0.010  0.00  0.00    +0.004 C 
ATOM     29  C   UNL     1       0.002  -0.004   0.002  0.00  0.00    -0.003 C 
ENDBRANCH  27  29
ENDBRANCH  26  27
ENDBRANCH   1  26
TORSDOF 5
