REMARK  Name = ZINC19838629
REMARK  10 active torsions:
REMARK  status: ('A' for Active; 'I' for Inactive)
REMARK    1  A    between atoms: C_1  and  C_2
REMARK    2  A    between atoms: C_2  and  N_3
REMARK    3  A    between atoms: C_4  and  C_6
REMARK    4  A    between atoms: C_9  and  N_24
REMARK    5  A    between atoms: N_12  and  C_13
REMARK    6  A    between atoms: C_13  and  C_14
REMARK    7  A    between atoms: N_24  and  C_25
REMARK    8  A    between atoms: C_25  and  C_26
REMARK    9  A    between atoms: N_38  and  C_39
REMARK   10  A    between atoms: C_39  and  C_40
REMARK                            x       y       z     vdW  Elec       q    Type
REMARK                         _______ _______ _______ _____ _____    ______ ____
ROOT
ATOM      1  C   UNL     1      -2.906  11.368   3.227  0.00  0.00    +0.142 C 
ATOM      2  C   UNL     1      -1.632  10.652   2.743  0.00  0.00    +0.014 C 
ATOM      3  C   UNL     1      -2.014  10.024   1.383  0.00  0.00    -0.055 C 
ATOM      4  C   UNL     1      -3.558   9.932   1.465  0.00  0.00    +0.070 C 
ATOM      5  N   UNL     1      -3.935  11.178   2.182  0.00  0.00    -0.289 NA
ENDROOT
BRANCH   1   7
ATOM      6  N   UNL     1      -1.706  13.241   4.309  0.00  0.00    -0.314 N 
ATOM      7  C   UNL     1      -2.629  12.838   3.414  0.00  0.00    +0.230 C 
ATOM      8  O   UNL     1      -3.238  13.657   2.759  0.00  0.00    -0.274 OA
ATOM      9  H   UNL     1      -1.154  12.497   4.903  0.00  0.00    +0.149 HD
BRANCH   6  11
ATOM     10  C   UNL     1      -0.355  14.853   5.557  0.00  0.00    +0.024 C 
ATOM     11  C   UNL     1      -1.437  14.669   4.491  0.00  0.00    +0.101 C 
ENDBRANCH   6  11
ENDBRANCH   1   7
BRANCH   3  12
ATOM     12  N   UNL     1      -1.421   8.687   1.243  0.00  0.00    +0.384 N 
ATOM     13  H   UNL     1      -0.434   8.671   1.729  0.00  0.00    -0.085 HD
ATOM     14  H   UNL     1      -2.077   7.943   1.719  0.00  0.00    -0.085 HD
BRANCH  12  15
ATOM     15  C   UNL     1      -1.255   8.331  -0.173  0.00  0.00    -0.046 C 
BRANCH  15  16
ATOM     16  C   UNL     1      -0.645   6.956  -0.276  0.00  0.00    -0.064 A 
ATOM     17  C   UNL     1       0.733   6.813  -0.318  0.00  0.00    +0.004 A 
ATOM     18  C   UNL     1       1.305   5.563  -0.413  0.00  0.00    +0.026 A 
ATOM     19  C   UNL     1       0.499   4.430  -0.468  0.00  0.00    +0.050 A 
ATOM     20  C   UNL     1      -0.895   4.577  -0.426  0.00  0.00    +0.008 A 
ATOM     21  C   UNL     1      -1.460   5.846  -0.330  0.00  0.00    +0.012 A 
ATOM     22  C   UNL     1      -1.461   3.217  -0.502  0.00  0.00    +0.008 A 
ATOM     23  C   UNL     1      -2.762   2.719  -0.504  0.00  0.00    +0.010 A 
ATOM     24  C   UNL     1      -2.975   1.360  -0.595  0.00  0.00    +0.001 A 
ATOM     25  C   UNL     1      -1.899   0.488  -0.671  0.00  0.00    +0.002 A 
ATOM     26  C   UNL     1      -0.607   0.968  -0.668  0.00  0.00    +0.026 A 
ATOM     27  C   UNL     1      -0.372   2.337  -0.584  0.00  0.00    +0.050 A 
ATOM     28  N   UNL     1       0.793   3.082  -0.562  0.00  0.00    -0.340 N 
BRANCH  28  29
ATOM     29  C   UNL     1       2.146   2.522  -0.630  0.00  0.00    +0.119 C 
ATOM     30  C   UNL     1       2.584   2.422  -2.092  0.00  0.00    +0.027 C 
ENDBRANCH  28  29
ENDBRANCH  15  16
ENDBRANCH  12  15
ENDBRANCH   3  12
BRANCH   5  31
ATOM     31  C   UNL     1      -5.273  11.060   2.775  0.00  0.00    +0.120 C 
BRANCH  31  32
ATOM     32  C   UNL     1      -6.305  10.990   1.679  0.00  0.00    -0.026 A 
ATOM     33  C   UNL     1      -6.849   9.793   1.327  0.00  0.00    +0.005 A 
ATOM     34  C   UNL     1      -7.809   9.710   0.321  0.00  0.00    +0.001 A 
ATOM     35  C   UNL     1      -8.221  10.822  -0.349  0.00  0.00    +0.008 A 
ATOM     36  C   UNL     1      -7.676  12.074  -0.018  0.00  0.00    -0.018 A 
ATOM     37  C   UNL     1      -6.705  12.159   1.010  0.00  0.00    -0.013 A 
ATOM     38  C   UNL     1      -6.160  13.412   1.341  0.00  0.00    +0.009 A 
ATOM     39  C   UNL     1      -6.571  14.523   0.671  0.00  0.00    +0.001 A 
ATOM     40  C   UNL     1      -7.527  14.439  -0.340  0.00  0.00    +0.001 A 
ATOM     41  C   UNL     1      -8.076  13.243  -0.687  0.00  0.00    +0.008 A 
ENDBRANCH  31  32
ENDBRANCH   5  31
TORSDOF 8
