REMARK  Name = ZINC09461507
REMARK  6 active torsions:
REMARK  status: ('A' for Active; 'I' for Inactive)
REMARK    1  A    between atoms: C_1  and  C_2
REMARK    2  A    between atoms: C_5  and  N_8
REMARK    3  A    between atoms: C_12  and  N_16
REMARK    4  A    between atoms: C_17  and  C_29
REMARK    5  A    between atoms: C_20  and  C_22
REMARK    6  A    between atoms: C_20  and  O_28
REMARK                            x       y       z     vdW  Elec       q    Type
REMARK                         _______ _______ _______ _____ _____    ______ ____
ROOT
ATOM      1  N   UNL     1       1.411  -7.016   1.141  0.00  0.00    -0.164 NA
ATOM      2  C   UNL     1       1.548  -7.029   2.613  0.00  0.00    +0.121 C 
ATOM      3  C   UNL     1       1.647  -8.522   2.999  0.00  0.00    +0.097 C 
ATOM      4  C   UNL     1       1.015  -9.228   1.772  0.00  0.00    +0.215 C 
ATOM      5  O   UNL     1       1.464  -8.408   0.669  0.00  0.00    -0.256 OA
ENDROOT
BRANCH   1  10
ATOM      6  N   UNL     1       0.059  -4.172  -0.021  0.00  0.00    -0.209 N 
ATOM      7  C   UNL     1      -0.030  -4.892  -1.146  0.00  0.00    +0.228 C 
ATOM      8  O   UNL     1      -0.134  -4.436  -2.265  0.00  0.00    -0.275 OA
ATOM      9  C   UNL     1       0.020  -6.364  -0.801  0.00  0.00    +0.127 C 
ATOM     10  C   UNL     1       0.155  -6.371   0.735  0.00  0.00    +0.180 C 
ATOM     11  C   UNL     1       0.172  -4.902   1.096  0.00  0.00    +0.246 C 
ATOM     12  O   UNL     1       0.271  -4.455   2.219  0.00  0.00    -0.273 OA
BRANCH   6  17
ATOM     13  C   UNL     1      -0.016   1.503   0.009  0.00  0.00    +0.044 C 
ATOM     14  C   UNL     1       0.004  -0.004   0.001  0.00  0.00    -0.050 A 
ATOM     15  C   UNL     1       1.156  -0.681   0.357  0.00  0.00    +0.005 A 
ATOM     16  C   UNL     1       1.177  -2.062   0.351  0.00  0.00    +0.024 A 
ATOM     17  C   UNL     1       0.040  -2.771  -0.013  0.00  0.00    +0.044 A 
ATOM     18  C   UNL     1      -1.115  -2.088  -0.370  0.00  0.00    +0.024 A 
ATOM     19  C   UNL     1      -1.132  -0.707  -0.357  0.00  0.00    +0.005 A 
ENDBRANCH   6  17
ENDBRANCH   1  10
BRANCH   4  20
ATOM     20  C   UNL     1       1.535 -10.636   1.639  0.00  0.00    +0.012 A 
ATOM     21  C   UNL     1       2.673 -10.885   0.893  0.00  0.00    +0.009 A 
ATOM     22  C   UNL     1       3.150 -12.176   0.771  0.00  0.00    +0.000 A 
ATOM     23  C   UNL     1       2.490 -13.219   1.394  0.00  0.00    +0.000 A 
ATOM     24  C   UNL     1       1.353 -12.970   2.140  0.00  0.00    +0.000 A 
ATOM     25  C   UNL     1       0.878 -11.678   2.266  0.00  0.00    +0.009 A 
ENDBRANCH   4  20
BRANCH   2  26
ATOM     26  C   UNL     1       2.798  -6.296   3.027  0.00  0.00    -0.028 A 
ATOM     27  C   UNL     1       3.951  -6.416   2.273  0.00  0.00    +0.005 A 
ATOM     28  C   UNL     1       5.098  -5.744   2.653  0.00  0.00    +0.000 A 
ATOM     29  C   UNL     1       5.092  -4.952   3.787  0.00  0.00    +0.000 A 
ATOM     30  C   UNL     1       3.939  -4.832   4.539  0.00  0.00    +0.000 A 
ATOM     31  C   UNL     1       2.791  -5.500   4.157  0.00  0.00    +0.005 A 
ENDBRANCH   2  26
BRANCH   4  32
ATOM     32  O   UNL     1      -0.411  -9.219   1.861  0.00  0.00    -0.360 OA
ATOM     33  H   UNL     1      -0.855  -9.649   1.117  0.00  0.00    +0.213 HD
ENDBRANCH   4  32
TORSDOF 5
