REMARK  Name = ZINC59273388
REMARK  13 active torsions:
REMARK  status: ('A' for Active; 'I' for Inactive)
REMARK    1  A    between atoms: C_1  and  C_2
REMARK    2  A    between atoms: C_2  and  N_3
REMARK    3  A    between atoms: N_3  and  C_4
REMARK    4  A    between atoms: N_3  and  C_6
REMARK    5  A    between atoms: C_4  and  C_5
REMARK    6  A    between atoms: C_6  and  C_7
REMARK    7  A    between atoms: C_7  and  C_8
REMARK    8  A    between atoms: C_8  and  N_9
REMARK    9  A    between atoms: N_9  and  C_10
REMARK   10  A    between atoms: N_9  and  C_17
REMARK   11  A    between atoms: N_13  and  C_16
REMARK   12  A    between atoms: C_17  and  N_19
REMARK   13  A    between atoms: N_19  and  C_20
REMARK                            x       y       z     vdW  Elec       q    Type
REMARK                         _______ _______ _______ _____ _____    ______ ____
ROOT
ATOM      1  N   UNL     1      -2.578  -3.780  -1.784  0.00  0.00    -0.310 N 
ENDROOT
BRANCH   1   2
ATOM      2  C   UNL     1      -3.096  -3.704  -3.152  0.00  0.00    +0.072 C 
ATOM      3  C   UNL     1      -2.468  -4.813  -4.000  0.00  0.00    +0.004 C 
ATOM      4  C   UNL     1      -2.952  -4.679  -5.445  0.00  0.00    -0.077 C 
ATOM      5  N   UNL     1      -2.556  -3.370  -5.978  0.00  0.00    +0.378 N 
ATOM      6  C   UNL     1      -3.212  -2.302  -5.214  0.00  0.00    -0.077 C 
ATOM      7  C   UNL     1      -2.738  -2.345  -3.760  0.00  0.00    +0.004 C 
ATOM      8  C   UNL     1      -2.954  -3.276  -7.389  0.00  0.00    -0.096 C 
ATOM      9  H   UNL     1      -1.555  -3.267  -5.906  0.00  0.00    -0.082 HD
ENDBRANCH   1   2
BRANCH   1  10
ATOM     10  C   UNL     1      -3.408  -4.081  -0.765  0.00  0.00    +0.133 C 
ATOM     11  S   UNL     1      -2.833  -4.038   0.847  0.00  0.00    -0.019 S 
BRANCH  10  12
ATOM     12  N   UNL     1      -4.689  -4.415  -1.015  0.00  0.00    -0.324 N 
ATOM     13  H   UNL     1      -4.995  -4.512  -1.931  0.00  0.00    +0.148 HD
BRANCH  12  14
ATOM     14  C   UNL     1      -5.620  -4.631   0.095  0.00  0.00    +0.072 C 
ATOM     15  C   UNL     1      -6.220  -3.317   0.515  0.00  0.00    +0.022 C 
ATOM     16  C   UNL     1      -6.492  -3.250   2.030  0.00  0.00    +0.002 C 
ATOM     17  C   UNL     1      -7.084  -4.559   2.589  0.00  0.00    +0.000 C 
ATOM     18  C   UNL     1      -8.128  -5.152   1.681  0.00  0.00    +0.000 C 
ATOM     19  C   UNL     1      -7.447  -6.188   0.763  0.00  0.00    +0.002 C 
ATOM     20  C   UNL     1      -6.759  -5.567  -0.359  0.00  0.00    +0.022 C 
ENDBRANCH  12  14
ENDBRANCH  10  12
ENDBRANCH   1  10
BRANCH   1  21
ATOM     21  C   UNL     1      -1.159  -3.529  -1.523  0.00  0.00    +0.105 C 
BRANCH  21  22
ATOM     22  C   UNL     1      -0.946  -2.039  -1.247  0.00  0.00    +0.000 C 
BRANCH  22  23
ATOM     23  C   UNL     1       0.536  -1.777  -0.975  0.00  0.00    -0.077 C 
BRANCH  23  24
ATOM     24  N   UNL     1       0.741  -0.347  -0.710  0.00  0.00    +0.379 N 
ATOM     25  H   UNL     1       0.371   0.193  -1.478  0.00  0.00    -0.082 HD
BRANCH  24  27
ATOM     26  C   UNL     1       0.137   1.540   0.730  0.00  0.00    -0.017 C 
ATOM     27  C   UNL     1       0.046   0.026   0.529  0.00  0.00    -0.082 C 
ENDBRANCH  24  27
BRANCH  24  28
ATOM     28  C   UNL     1       2.177  -0.075  -0.567  0.00  0.00    -0.082 C 
ATOM     29  C   UNL     1       2.879  -0.326  -1.903  0.00  0.00    -0.017 C 
ENDBRANCH  24  28
ENDBRANCH  23  24
ENDBRANCH  22  23
ENDBRANCH  21  22
ENDBRANCH   1  21
TORSDOF 10
