REMARK  Name = ZINC51318348
REMARK  10 active torsions:
REMARK  status: ('A' for Active; 'I' for Inactive)
REMARK    1  A    between atoms: C_1  and  C_2
REMARK    2  A    between atoms: C_5  and  C_8
REMARK    3  A    between atoms: C_10  and  C_26
REMARK    4  A    between atoms: C_11  and  C_16
REMARK    5  A    between atoms: C_16  and  N_17
REMARK    6  A    between atoms: N_20  and  C_23
REMARK    7  A    between atoms: C_23  and  C_24
REMARK    8  A    between atoms: C_23  and  C_25
REMARK    9  A    between atoms: C_26  and  O_28
REMARK   10  A    between atoms: O_28  and  C_29
REMARK                            x       y       z     vdW  Elec       q    Type
REMARK                         _______ _______ _______ _____ _____    ______ ____
ROOT
ATOM      1  C   UNL     1       0.033  -4.303  -0.030  0.00  0.00    +0.144 C 
ATOM      2  C   UNL     1       1.496  -4.641   0.167  0.00  0.00    +0.079 C 
ATOM      3  C   UNL     1       1.825  -5.424   1.217  0.00  0.00    +0.038 C 
ATOM      4  N   UNL     1       0.869  -5.895   2.071  0.00  0.00    -0.271 N 
ATOM      5  C   UNL     1      -0.437  -5.629   1.944  0.00  0.00    +0.304 C 
ATOM      6  O   UNL     1      -1.214  -6.093   2.755  0.00  0.00    -0.252 OA
ATOM      7  N   UNL     1      -0.918  -4.861   0.947  0.00  0.00    -0.288 N 
ATOM      8  H   UNL     1       1.152  -6.455   2.811  0.00  0.00    +0.156 HD
ATOM      9  H   UNL     1      -1.868  -4.680   0.874  0.00  0.00    +0.151 HD
ENDROOT
BRANCH   1  14
ATOM     10  C   UNL     1      -0.499   1.450   0.056  0.00  0.00    +0.044 C 
ATOM     11  C   UNL     1      -0.360  -0.050   0.033  0.00  0.00    -0.050 A 
ATOM     12  C   UNL     1      -0.260  -0.717  -1.173  0.00  0.00    +0.004 A 
ATOM     13  C   UNL     1      -0.133  -2.093  -1.194  0.00  0.00    +0.006 A 
ATOM     14  C   UNL     1      -0.105  -2.803  -0.008  0.00  0.00    -0.022 A 
ATOM     15  C   UNL     1      -0.204  -2.136   1.199  0.00  0.00    +0.006 A 
ATOM     16  C   UNL     1      -0.327  -0.759   1.220  0.00  0.00    +0.004 A 
ENDBRANCH   1  14
BRANCH   2  17
ATOM     17  C   UNL     1       2.486  -4.153  -0.719  0.00  0.00    +0.339 C 
ATOM     18  O   UNL     1       2.900  -3.015  -0.600  0.00  0.00    -0.245 OA
BRANCH  17  19
ATOM     19  O   UNL     1       2.969  -4.949  -1.695  0.00  0.00    -0.465 OA
ATOM     20  C   UNL     1       3.966  -4.390  -2.553  0.00  0.00    +0.280 C 
ENDBRANCH  17  19
ENDBRANCH   2  17
BRANCH   3  21
ATOM     21  C   UNL     1       3.269  -5.785   1.449  0.00  0.00    +0.135 C 
BRANCH  21  22
ATOM     22  N   UNL     1       3.720  -5.206   2.722  0.00  0.00    -0.300 NA
ATOM     23  C   UNL     1       3.738  -3.738   2.656  0.00  0.00    +0.066 C 
ATOM     24  C   UNL     1       4.154  -3.174   4.016  0.00  0.00    -0.063 C 
ATOM     25  N   UNL     1       5.486  -3.682   4.370  0.00  0.00    +0.383 N 
ATOM     26  C   UNL     1       5.447  -5.147   4.456  0.00  0.00    -0.063 C 
ATOM     27  C   UNL     1       5.041  -5.728   3.100  0.00  0.00    +0.066 C 
ATOM     28  H   UNL     1       6.150  -3.404   3.663  0.00  0.00    -0.081 HD
BRANCH  25  29
ATOM     29  C   UNL     1       5.893  -3.126   5.668  0.00  0.00    -0.075 C 
ATOM     30  C   UNL     1       7.281  -3.654   6.036  0.00  0.00    -0.014 C 
ATOM     31  C   UNL     1       5.936  -1.599   5.577  0.00  0.00    -0.014 C 
ENDBRANCH  25  29
ENDBRANCH  21  22
ENDBRANCH   3  21
TORSDOF 6
