REMARK  Name = ZINC44271096
REMARK  9 active torsions:
REMARK  status: ('A' for Active; 'I' for Inactive)
REMARK    1  A    between atoms: C_1  and  C_2
REMARK    2  A    between atoms: C_2  and  N_3
REMARK    3  A    between atoms: N_3  and  C_4
REMARK    4  A    between atoms: N_3  and  C_6
REMARK    5  A    between atoms: C_4  and  C_5
REMARK    6  A    between atoms: C_6  and  C_8
REMARK    7  A    between atoms: C_6  and  C_9
REMARK    8  A    between atoms: C_9  and  N_10
REMARK    9  A    between atoms: N_13  and  C_14
REMARK                            x       y       z     vdW  Elec       q    Type
REMARK                         _______ _______ _______ _____ _____    ______ ____
ROOT
ATOM      1  N   UNL     1       2.498  -1.529  -3.016  0.00  0.00    -0.301 N 
ATOM      2  C   UNL     1       3.081  -1.654  -4.224  0.00  0.00    +0.304 C 
ATOM      3  O   UNL     1       2.480  -2.188  -5.137  0.00  0.00    -0.253 OA
ATOM      4  N   UNL     1       4.330  -1.188  -4.422  0.00  0.00    -0.268 N 
ATOM      5  H   UNL     1       2.977  -1.103  -2.288  0.00  0.00    +0.150 HD
ATOM      6  H   UNL     1       4.837  -0.830  -3.676  0.00  0.00    +0.156 HD
ENDROOT
BRANCH   4   7
ATOM      7  C   UNL     1       4.896  -1.222  -5.703  0.00  0.00    +0.057 A 
ATOM      8  C   UNL     1       4.477  -2.175  -6.622  0.00  0.00    +0.072 A 
ATOM      9  C   UNL     1       5.037  -2.206  -7.886  0.00  0.00    +0.144 A 
ATOM     10  C   UNL     1       6.021  -1.281  -8.235  0.00  0.00    +0.077 A 
ATOM     11  C   UNL     1       6.437  -0.331  -7.317  0.00  0.00    +0.048 A 
ATOM     12  C   UNL     1       5.872  -0.297  -6.055  0.00  0.00    +0.064 A 
ATOM     13 CL   UNL     1       6.388   0.898  -4.906  0.00  0.00    -0.082 Cl
ATOM     14  N   UNL     1       6.580  -1.327  -9.521  0.00  0.00    -0.280 N 
ATOM     15  C   UNL     1       5.951  -2.037 -10.483  0.00  0.00    +0.255 C 
ATOM     16  O   UNL     1       6.431  -2.116 -11.594  0.00  0.00    -0.272 OA
ATOM     17  C   UNL     1       4.650  -2.731 -10.170  0.00  0.00    +0.325 C 
ATOM     18  O   UNL     1       4.637  -3.132  -8.798  0.00  0.00    -0.481 OA
ATOM     19  H   UNL     1       7.405  -0.856  -9.717  0.00  0.00    +0.155 HD
ENDBRANCH   4   7
BRANCH   1  20
ATOM     20  C   UNL     1       1.140  -2.035  -2.802  0.00  0.00    +0.090 C 
BRANCH  20  21
ATOM     21  C   UNL     1       0.670  -1.657  -1.396  0.00  0.00    -0.054 C 
ATOM     22  C   UNL     1      -0.779  -2.109  -1.203  0.00  0.00    -0.012 C 
BRANCH  21  23
ATOM     23  N   UNL     1       0.755  -0.200  -1.227  0.00  0.00    +0.382 N 
ATOM     24  H   UNL     1       1.701   0.105  -1.404  0.00  0.00    -0.081 HD
BRANCH  23  26
ATOM     25  C   UNL     1       0.035   1.973  -2.098  0.00  0.00    -0.017 C 
ATOM     26  C   UNL     1      -0.157   0.457  -2.173  0.00  0.00    -0.082 C 
ENDBRANCH  23  26
BRANCH  23  27
ATOM     27  C   UNL     1       0.376   0.157   0.147  0.00  0.00    -0.082 C 
ATOM     28  C   UNL     1       1.401  -0.421   1.125  0.00  0.00    -0.017 C 
ENDBRANCH  23  27
ENDBRANCH  21  23
ENDBRANCH  20  21
ENDBRANCH   1  20
TORSDOF 6
