REMARK  Name = ZINC64185922
REMARK  9 active torsions:
REMARK  status: ('A' for Active; 'I' for Inactive)
REMARK    1  A    between atoms: C_1  and  C_2
REMARK    2  A    between atoms: C_2  and  C_3
REMARK    3  A    between atoms: C_2  and  C_4
REMARK    4  A    between atoms: C_4  and  C_6
REMARK    5  A    between atoms: C_4  and  N_23
REMARK    6  A    between atoms: C_11  and  C_14
REMARK    7  A    between atoms: C_24  and  C_26
REMARK    8  A    between atoms: C_26  and  O_27
REMARK    9  A    between atoms: O_27  and  C_28
REMARK                            x       y       z     vdW  Elec       q    Type
REMARK                         _______ _______ _______ _____ _____    ______ ____
ROOT
ATOM      1  C   UNL     1      -2.224  -0.011  -1.062  0.00  0.00    +0.236 C 
ATOM      2  O   UNL     1      -2.838  -0.780  -1.770  0.00  0.00    -0.274 OA
ATOM      3  N   UNL     1      -2.264   1.313  -1.310  0.00  0.00    -0.296 N 
ATOM      4  C   UNL     1      -2.953   1.848  -2.497  0.00  0.00    +0.113 C 
ATOM      5  C   UNL     1      -4.106   2.733  -2.016  0.00  0.00    +0.054 C 
ATOM      6  C   UNL     1      -3.643   3.645  -0.919  0.00  0.00    -0.043 C 
ATOM      7  C   UNL     1      -2.547   3.446  -0.196  0.00  0.00    -0.004 C 
ATOM      8  C   UNL     1      -1.628   2.279  -0.404  0.00  0.00    +0.135 C 
ENDROOT
BRANCH   6   9
ATOM      9  C   UNL     1      -4.421   4.787  -0.638  0.00  0.00    -0.016 C 
ATOM     10  C   UNL     1      -5.660   5.112  -1.176  0.00  0.00    +0.003 A 
ATOM     11  C   UNL     1      -6.495   4.462  -2.114  0.00  0.00    +0.010 A 
ATOM     12  C   UNL     1      -7.678   5.023  -2.463  0.00  0.00    +0.001 A 
ATOM     13  C   UNL     1      -8.103   6.239  -1.918  0.00  0.00    +0.002 A 
ATOM     14  C   UNL     1      -7.356   6.918  -1.015  0.00  0.00    +0.026 A 
ATOM     15  C   UNL     1      -6.103   6.394  -0.598  0.00  0.00    +0.043 A 
ATOM     16  N   UNL     1      -5.206   6.851   0.249  0.00  0.00    -0.380 N 
ATOM     17  C   UNL     1      -4.084   5.910   0.319  0.00  0.00    +0.149 C 
ATOM     18  H   UNL     1      -5.278   7.677   0.752  0.00  0.00    +0.160 HD
ENDBRANCH   6   9
BRANCH   1  19
ATOM     19  C   UNL     1      -1.415  -0.536   0.096  0.00  0.00    +0.162 C 
BRANCH  19  20
ATOM     20  N   UNL     1      -2.042  -1.754   0.618  0.00  0.00    -0.301 N 
ATOM     21  C   UNL     1      -1.837  -2.122   1.898  0.00  0.00    +0.251 C 
ATOM     22  O   UNL     1      -1.134  -1.446   2.618  0.00  0.00    -0.272 OA
ATOM     23  H   UNL     1      -2.604  -2.295   0.041  0.00  0.00    +0.150 HD
BRANCH  21  24
ATOM     24  C   UNL     1      -2.482  -3.374   2.434  0.00  0.00    +0.324 C 
BRANCH  24  25
ATOM     25  O   UNL     1      -2.117  -3.548   3.805  0.00  0.00    -0.483 OA
BRANCH  25  26
ATOM     26  C   UNL     1      -2.618  -4.638   4.443  0.00  0.00    +0.121 A 
ATOM     27  C   UNL     1      -3.440  -5.525   3.762  0.00  0.00    +0.045 A 
ATOM     28  C   UNL     1      -3.948  -6.633   4.413  0.00  0.00    +0.004 A 
ATOM     29  C   UNL     1      -3.639  -6.858   5.742  0.00  0.00    +0.000 A 
ATOM     30  C   UNL     1      -2.820  -5.975   6.422  0.00  0.00    +0.004 A 
ATOM     31  C   UNL     1      -2.304  -4.870   5.774  0.00  0.00    +0.045 A 
ENDBRANCH  25  26
ENDBRANCH  24  25
ENDBRANCH  21  24
ENDBRANCH  19  20
BRANCH  19  33
ATOM     32  C   UNL     1       0.636   0.400  -0.981  0.00  0.00    +0.009 C 
ATOM     33  C   UNL     1       0.005  -0.856  -0.376  0.00  0.00    +0.012 C 
ATOM     34  C   UNL     1       0.844  -1.327   0.813  0.00  0.00    +0.009 C 
ENDBRANCH  19  33
ENDBRANCH   1  19
TORSDOF 7
