REMARK  Name = ZINC24629165
REMARK  10 active torsions:
REMARK  status: ('A' for Active; 'I' for Inactive)
REMARK    1  A    between atoms: C_1  and  C_2
REMARK    2  A    between atoms: C_2  and  C_4
REMARK    3  A    between atoms: C_2  and  N_11
REMARK    4  A    between atoms: C_12  and  C_14
REMARK    5  A    between atoms: C_14  and  C_16
REMARK    6  A    between atoms: C_14  and  N_27
REMARK    7  A    between atoms: C_16  and  C_17
REMARK    8  A    between atoms: C_28  and  O_30
REMARK    9  A    between atoms: O_30  and  C_31
REMARK   10  A    between atoms: C_31  and  C_32
REMARK                            x       y       z     vdW  Elec       q    Type
REMARK                         _______ _______ _______ _____ _____    ______ ____
ROOT
ATOM      1  C   UNL     1       0.527   0.200  -0.555  0.00  0.00    +0.166 C 
ENDROOT
BRANCH   1   3
ATOM      2  N   UNL     1       1.712  -1.718   0.464  0.00  0.00    -0.307 N 
ATOM      3  C   UNL     1       1.655  -0.388   0.255  0.00  0.00    +0.234 C 
ATOM      4  O   UNL     1       2.509   0.337   0.719  0.00  0.00    -0.274 OA
ATOM      5  H   UNL     1       0.937  -2.375   0.043  0.00  0.00    +0.149 HD
BRANCH   2   7
ATOM      6  C   UNL     1       2.434  -2.271   2.735  0.00  0.00    +0.033 C 
ATOM      7  C   UNL     1       2.808  -2.289   1.251  0.00  0.00    +0.103 C 
BRANCH   7   8
ATOM      8  C   UNL     1       3.055  -3.709   0.813  0.00  0.00    +0.008 A 
ATOM      9  C   UNL     1       2.025  -4.453   0.266  0.00  0.00    +0.008 A 
ATOM     10  C   UNL     1       2.253  -5.754  -0.141  0.00  0.00    +0.000 A 
ATOM     11  C   UNL     1       3.506  -6.317   0.008  0.00  0.00    +0.003 A 
ATOM     12  C   UNL     1       4.535  -5.578   0.559  0.00  0.00    +0.039 A 
ATOM     13  C   UNL     1       4.310  -4.272   0.963  0.00  0.00    +0.128 A 
ATOM     14  F   UNL     1       5.316  -3.549   1.502  0.00  0.00    -0.205 F 
ENDBRANCH   7   8
ENDBRANCH   2   7
ENDBRANCH   1   3
BRANCH   1  15
ATOM     15  N   UNL     1       0.690   1.653  -0.635  0.00  0.00    -0.269 N 
ATOM     16  C   UNL     1      -0.383   2.440  -0.850  0.00  0.00    +0.401 C 
ATOM     17  O   UNL     1      -1.485   1.944  -0.976  0.00  0.00    -0.226 OA
ATOM     18  H   UNL     1       1.688   2.102  -0.521  0.00  0.00    +0.153 HD
BRANCH  16  19
ATOM     19  O   UNL     1      -0.233   3.776  -0.924  0.00  0.00    -0.446 OA
BRANCH  19  20
ATOM     20  C   UNL     1      -1.432   4.562  -1.157  0.00  0.00    +0.269 C 
BRANCH  20  21
ATOM     21  C   UNL     1      -1.072   6.024  -1.209  0.00  0.00    -0.010 A 
ATOM     22  C   UNL     1      -1.086   6.781  -0.053  0.00  0.00    +0.007 A 
ATOM     23  C   UNL     1      -0.751   8.122  -0.100  0.00  0.00    +0.000 A 
ATOM     24  C   UNL     1      -0.412   8.707  -1.306  0.00  0.00    +0.000 A 
ATOM     25  C   UNL     1      -0.404   7.951  -2.463  0.00  0.00    +0.000 A 
ATOM     26  C   UNL     1      -0.734   6.610  -2.415  0.00  0.00    +0.007 A 
ENDBRANCH  20  21
ENDBRANCH  19  20
ENDBRANCH  16  19
ENDBRANCH   1  15
BRANCH   1  27
ATOM     27  C   UNL     1       0.548  -0.395  -1.964  0.00  0.00    +0.069 C 
BRANCH  27  28
ATOM     28  C   UNL     1      -0.649   0.098  -2.735  0.00  0.00    -0.020 A 
ATOM     29  C   UNL     1      -1.826  -0.533  -2.871  0.00  0.00    +0.087 A 
ATOM     30  N   UNL     1      -2.672   0.218  -3.640  0.00  0.00    -0.360 N 
ATOM     31  H   UNL     1      -3.687  -0.146  -3.858  0.00  0.00    +0.165 HD
ATOM     32  C   UNL     1      -2.044   1.381  -4.028  0.00  0.00    +0.047 A 
ATOM     33  C   UNL     1      -0.751   1.359  -3.473  0.00  0.00    +0.003 A 
ATOM     34  C   UNL     1       0.125   2.420  -3.707  0.00  0.00    +0.010 A 
ATOM     35  C   UNL     1      -0.282   3.481  -4.466  0.00  0.00    +0.001 A 
ATOM     36  C   UNL     1      -1.558   3.510  -5.011  0.00  0.00    +0.002 A 
ATOM     37  C   UNL     1      -2.437   2.471  -4.797  0.00  0.00    +0.026 A 
ENDBRANCH  27  28
ENDBRANCH   1  27
TORSDOF 9
