REMARK  Name = ZINC00923380
REMARK  14 active torsions:
REMARK  status: ('A' for Active; 'I' for Inactive)
REMARK    1  A    between atoms: C_1  and  C_2
REMARK    2  A    between atoms: C_4  and  C_38
REMARK    3  A    between atoms: C_5  and  S_9
REMARK    4  A    between atoms: C_6  and  C_8
REMARK    5  A    between atoms: S_9  and  N_12
REMARK    6  A    between atoms: N_12  and  C_13
REMARK    7  A    between atoms: N_12  and  C_21
REMARK    8  A    between atoms: C_13  and  C_14
REMARK    9  A    between atoms: C_14  and  C_15
REMARK   10  A    between atoms: C_21  and  C_22
REMARK   11  A    between atoms: C_26  and  O_36
REMARK   12  A    between atoms: C_27  and  O_34
REMARK   13  A    between atoms: O_34  and  C_35
REMARK   14  A    between atoms: O_36  and  C_37
REMARK                            x       y       z     vdW  Elec       q    Type
REMARK                         _______ _______ _______ _____ _____    ______ ____
ROOT
ATOM      1  N   UNL     1      -5.235   3.607  -0.926  0.00  0.00    -0.172 NA
ENDROOT
BRANCH   1   2
ATOM      2  S   UNL     1      -4.455   4.851  -1.692  0.00  0.00    +0.062 S 
ATOM      3  O   UNL     1      -3.774   5.586  -0.684  0.00  0.00    -0.153 OA
ATOM      4  O   UNL     1      -3.781   4.283  -2.807  0.00  0.00    -0.153 OA
BRANCH   2   9
ATOM      5  C   UNL     1      -8.700   8.512  -3.923  0.00  0.00    +0.044 C 
ATOM      6  C   UNL     1      -7.640   7.598  -3.366  0.00  0.00    -0.050 A 
ATOM      7  C   UNL     1      -7.256   6.474  -4.072  0.00  0.00    +0.008 A 
ATOM      8  C   UNL     1      -6.283   5.635  -3.561  0.00  0.00    -0.024 A 
ATOM      9  C   UNL     1      -5.694   5.921  -2.344  0.00  0.00    +0.111 A 
ATOM     10  C   UNL     1      -6.082   7.042  -1.635  0.00  0.00    -0.024 A 
ATOM     11  C   UNL     1      -7.051   7.884  -2.148  0.00  0.00    +0.008 A 
ATOM     12  C   UNL     1      -5.445   7.350  -0.304  0.00  0.00    +0.046 C 
ATOM     13  C   UNL     1      -5.865   4.409  -4.332  0.00  0.00    +0.046 C 
ENDBRANCH   2   9
ENDBRANCH   1   2
BRANCH   1  14
ATOM     14  C   UNL     1      -5.685   2.442  -1.692  0.00  0.00    +0.114 C 
BRANCH  14  15
ATOM     15  C   UNL     1      -7.207   2.485  -1.838  0.00  0.00    +0.052 C 
BRANCH  15  16
ATOM     16  C   UNL     1      -7.670   1.287  -2.627  0.00  0.00    -0.046 A 
ATOM     17  C   UNL     1      -7.772   1.363  -4.003  0.00  0.00    +0.003 A 
ATOM     18  C   UNL     1      -8.192   0.262  -4.726  0.00  0.00    +0.000 A 
ATOM     19  C   UNL     1      -8.519  -0.911  -4.072  0.00  0.00    +0.000 A 
ATOM     20  C   UNL     1      -8.422  -0.985  -2.695  0.00  0.00    +0.000 A 
ATOM     21  C   UNL     1      -7.997   0.114  -1.972  0.00  0.00    +0.003 A 
ENDBRANCH  15  16
ENDBRANCH  14  15
ENDBRANCH   1  14
BRANCH   1  22
ATOM     22  C   UNL     1      -5.475   3.672   0.518  0.00  0.00    +0.150 C 
BRANCH  22  23
ATOM     23  C   UNL     1      -4.409   2.889   1.240  0.00  0.00    +0.033 A 
ATOM     24  C   UNL     1      -3.296   3.521   1.692  0.00  0.00    +0.020 A 
ATOM     25  C   UNL     1      -2.276   2.732   2.384  0.00  0.00    +0.003 A 
ATOM     26  C   UNL     1      -1.100   3.328   2.856  0.00  0.00    +0.059 A 
ATOM     27  C   UNL     1      -0.159   2.558   3.503  0.00  0.00    +0.162 A 
ATOM     28  C   UNL     1      -0.374   1.188   3.689  0.00  0.00    +0.163 A 
ATOM     29  C   UNL     1      -1.532   0.591   3.226  0.00  0.00    +0.075 A 
ATOM     30  C   UNL     1      -2.489   1.352   2.566  0.00  0.00    +0.053 A 
ATOM     31  N   UNL     1      -3.648   0.772   2.091  0.00  0.00    -0.322 N 
ATOM     32  H   UNL     1      -3.800  -0.207   2.225  0.00  0.00    +0.169 HD
ATOM     33  C   UNL     1      -4.576   1.505   1.452  0.00  0.00    +0.254 A 
ATOM     34  O   UNL     1      -5.588   0.960   1.046  0.00  0.00    -0.268 OA
BRANCH  28  35
ATOM     35  O   UNL     1       0.561   0.440   4.328  0.00  0.00    -0.491 OA
ATOM     36  C   UNL     1       0.281  -0.953   4.486  0.00  0.00    +0.277 C 
ENDBRANCH  28  35
BRANCH  27  37
ATOM     37  O   UNL     1       0.985   3.132   3.964  0.00  0.00    -0.491 OA
ATOM     38  C   UNL     1       1.142   4.535   3.742  0.00  0.00    +0.277 C 
ENDBRANCH  27  37
ENDBRANCH  22  23
ENDBRANCH   1  22
TORSDOF 9
