REMARK  Name = ZINC03330907
REMARK  6 active torsions:
REMARK  status: ('A' for Active; 'I' for Inactive)
REMARK    1  A    between atoms: C_4  and  N_7
REMARK    2  A    between atoms: N_7  and  C_8
REMARK    3  A    between atoms: C_8  and  N_10
REMARK    4  A    between atoms: N_10  and  C_11
REMARK    5  A    between atoms: C_11  and  C_12
REMARK    6  A    between atoms: C_12  and  N_58
REMARK                            x       y       z     vdW  Elec       q    Type
REMARK                         _______ _______ _______ _____ _____    ______ ____
ROOT
ATOM      1  C   UNL     1       3.044  -2.071   2.074  0.00  0.00    +0.091 C 
ENDROOT
BRANCH   1   2
ATOM      2  C   UNL     1       2.991  -0.550   2.226  0.00  0.00    -0.050 C 
ATOM      3  C   UNL     1       2.385  -0.194   3.585  0.00  0.00    -0.010 C 
ATOM      4  C   UNL     1       3.248  -0.789   4.699  0.00  0.00    -0.001 C 
ATOM      5  C   UNL     1       4.665  -0.218   4.608  0.00  0.00    -0.000 C 
ATOM      6  C   UNL     1       5.271  -0.574   3.249  0.00  0.00    -0.001 C 
ATOM      7  C   UNL     1       4.408   0.021   2.134  0.00  0.00    -0.010 C 
BRANCH   2  13
ATOM      8  C   UNL     1       0.793  -0.505   1.212  0.00  0.00    -0.078 C 
ATOM      9  C   UNL     1       0.002  -0.004   0.002  0.00  0.00    -0.019 C 
ATOM     10  C   UNL     1      -0.019   1.527   0.010  0.00  0.00    -0.004 C 
ATOM     11  C   UNL     1       1.421   2.049  -0.001  0.00  0.00    -0.019 C 
ATOM     12  C   UNL     1       2.171   1.488   1.210  0.00  0.00    -0.078 C 
ATOM     13  N   UNL     1       2.176   0.012   1.129  0.00  0.00    +0.384 N 
ATOM     14  H   UNL     1       2.584  -0.271   0.231  0.00  0.00    -0.081 HD
ENDBRANCH   2  13
ENDBRANCH   1   2
BRANCH   1  15
ATOM     15  N   UNL     1       3.624  -2.413   0.772  0.00  0.00    -0.328 N 
ATOM     16  H   UNL     1       3.904  -1.708   0.166  0.00  0.00    +0.148 HD
BRANCH  15  17
ATOM     17  C   UNL     1       3.770  -3.704   0.417  0.00  0.00    +0.130 C 
ATOM     18  S   UNL     1       3.277  -4.947   1.486  0.00  0.00    -0.019 S 
BRANCH  17  19
ATOM     19  N   UNL     1       4.304  -4.018  -0.780  0.00  0.00    -0.324 N 
ATOM     20  H   UNL     1       4.583  -3.314  -1.386  0.00  0.00    +0.148 HD
BRANCH  19  24
ATOM     21  C   UNL     1       5.960  -7.538  -2.531  0.00  0.00    +0.000 C 
ATOM     22  C   UNL     1       4.643  -7.000  -3.095  0.00  0.00    +0.002 C 
ATOM     23  C   UNL     1       4.478  -5.533  -2.692  0.00  0.00    +0.022 C 
ATOM     24  C   UNL     1       4.462  -5.422  -1.166  0.00  0.00    +0.072 C 
ATOM     25  C   UNL     1       5.779  -5.961  -0.602  0.00  0.00    +0.022 C 
ATOM     26  C   UNL     1       5.944  -7.427  -1.005  0.00  0.00    +0.002 C 
ENDBRANCH  19  24
ENDBRANCH  17  19
ENDBRANCH  15  17
ENDBRANCH   1  15
TORSDOF 6
