REMARK  Name = ZINC14811564
REMARK  8 active torsions:
REMARK  status: ('A' for Active; 'I' for Inactive)
REMARK    1  A    between atoms: C_9  and  C_11
REMARK    2  A    between atoms: C_12  and  C_13
REMARK    3  A    between atoms: C_13  and  O_15
REMARK    4  A    between atoms: O_15  and  C_16
REMARK    5  A    between atoms: C_16  and  C_17
REMARK    6  A    between atoms: N_19  and  C_20
REMARK    7  A    between atoms: C_24  and  S_26
REMARK    8  A    between atoms: S_26  and  N_29
REMARK                            x       y       z     vdW  Elec       q    Type
REMARK                         _______ _______ _______ _____ _____    ______ ____
ROOT
ATOM      1  C   UNL     1       2.435   4.099   0.161  0.00  0.00    +0.328 C 
ENDROOT
BRANCH   1   2
ATOM      2  C   UNL     1       2.234   5.592   0.176  0.00  0.00    +0.255 C 
ATOM      3  O   UNL     1       1.125   6.053   0.343  0.00  0.00    -0.272 OA
ATOM      4  N   UNL     1       3.288   6.415   0.005  0.00  0.00    -0.283 N 
ATOM      5  H   UNL     1       4.184   6.050  -0.051  0.00  0.00    +0.155 HD
BRANCH   4   6
ATOM      6  C   UNL     1       3.087   7.797  -0.091  0.00  0.00    +0.035 A 
ATOM      7  C   UNL     1       1.936   8.293  -0.689  0.00  0.00    +0.023 A 
ATOM      8  C   UNL     1       1.739   9.657  -0.778  0.00  0.00    +0.004 A 
ATOM      9  C   UNL     1       2.691  10.529  -0.282  0.00  0.00    +0.028 A 
ATOM     10  C   UNL     1       3.841  10.038   0.309  0.00  0.00    +0.107 A 
ATOM     11  C   UNL     1       4.042   8.675   0.405  0.00  0.00    +0.051 A 
BRANCH  10  12
ATOM     12  S   UNL     1       5.052  11.152   0.939  0.00  0.00    +0.056 S 
ATOM     13  O   UNL     1       4.376  12.371   1.216  0.00  0.00    -0.153 OA
ATOM     14  O   UNL     1       5.781  10.442   1.930  0.00  0.00    -0.153 OA
BRANCH  12  15
ATOM     15  N   UNL     1       6.113  11.469  -0.293  0.00  0.00    -0.204 NA
ATOM     16  H   UNL     1       5.986  11.056  -1.161  0.00  0.00    +0.144 HD
ATOM     17  H   UNL     1       6.861  12.069  -0.146  0.00  0.00    +0.144 HD
ENDBRANCH  12  15
ENDBRANCH  10  12
ENDBRANCH   4   6
ENDBRANCH   1   2
BRANCH   1  18
ATOM     18  O   UNL     1       1.179   3.447   0.362  0.00  0.00    -0.452 OA
BRANCH  18  19
ATOM     19  C   UNL     1       1.184   2.098   0.376  0.00  0.00    +0.332 C 
ATOM     20  O   UNL     1       2.228   1.492   0.221  0.00  0.00    -0.246 OA
BRANCH  19  22
ATOM     21  C   UNL     1      -0.021   0.034   0.584  0.00  0.00    +0.017 C 
ATOM     22  C   UNL     1      -0.026   1.387   0.570  0.00  0.00    +0.092 C 
BRANCH  21  31
ATOM     23  C   UNL     1      -3.660  -0.720   1.156  0.00  0.00    +0.001 A 
ATOM     24  C   UNL     1      -3.694  -2.082   1.175  0.00  0.00    +0.010 A 
ATOM     25  C   UNL     1      -2.520  -2.831   1.000  0.00  0.00    +0.001 A 
ATOM     26  C   UNL     1      -2.538  -4.239   1.018  0.00  0.00    +0.011 A 
ATOM     27  C   UNL     1      -1.355  -4.900   0.842  0.00  0.00    +0.020 A 
ATOM     28  C   UNL     1      -0.178  -4.181   0.653  0.00  0.00    +0.111 A 
ATOM     29  N   UNL     1      -0.167  -2.868   0.637  0.00  0.00    -0.254 NA
ATOM     30  C   UNL     1      -1.286  -2.166   0.802  0.00  0.00    +0.078 A 
ATOM     31  C   UNL     1      -1.274  -0.702   0.785  0.00  0.00    +0.001 A 
ATOM     32  C   UNL     1      -2.475  -0.023   0.969  0.00  0.00    +0.010 A 
ENDBRANCH  21  31
ENDBRANCH  19  22
ENDBRANCH  18  19
ENDBRANCH   1  18
TORSDOF 8
