REMARK  Name = ZINC19368590
REMARK  9 active torsions:
REMARK  status: ('A' for Active; 'I' for Inactive)
REMARK    1  A    between atoms: C_1  and  C_2
REMARK    2  A    between atoms: C_2  and  C_3
REMARK    3  A    between atoms: C_3  and  C_5
REMARK    4  A    between atoms: C_3  and  C_6
REMARK    5  A    between atoms: C_6  and  C_7
REMARK    6  A    between atoms: C_8  and  C_34
REMARK    7  A    between atoms: C_16  and  S_18
REMARK    8  A    between atoms: S_18  and  C_19
REMARK    9  A    between atoms: C_19  and  C_20
REMARK                            x       y       z     vdW  Elec       q    Type
REMARK                         _______ _______ _______ _____ _____    ______ ____
ROOT
ATOM      1  C   UNL     1      -8.983  -1.146   7.363  0.00  0.00    -0.023 A 
ATOM      2  C   UNL     1      -8.882   0.181   7.200  0.00  0.00    -0.007 A 
ATOM      3  S   UNL     1      -7.712   0.347   5.865  0.00  0.00    -0.073 S 
ATOM      4  C   UNL     1      -7.392  -1.373   5.564  0.00  0.00    +0.117 A 
ATOM      5  C   UNL     1      -8.204  -2.027   6.510  0.00  0.00    +0.075 A 
ATOM      6  C   UNL     1      -8.146  -3.456   6.497  0.00  0.00    +0.261 A 
ATOM      7  O   UNL     1      -8.815  -4.109   7.281  0.00  0.00    -0.267 OA
ATOM      8  N   UNL     1      -7.347  -4.072   5.606  0.00  0.00    -0.301 N 
ATOM      9  H   UNL     1      -7.298  -5.170   5.578  0.00  0.00    +0.171 HD
ATOM     10  C   UNL     1      -6.587  -3.358   4.725  0.00  0.00    +0.170 A 
ATOM     11  N   UNL     1      -6.622  -2.041   4.715  0.00  0.00    -0.216 NA
ATOM     12  C   UNL     1      -9.589   1.272   7.963  0.00  0.00    +0.052 C 
ENDROOT
BRANCH   1  13
ATOM     13  C   UNL     1      -9.895  -1.717   8.418  0.00  0.00    +0.040 C 
BRANCH  13  14
ATOM     14  C   UNL     1     -11.285  -1.945   7.822  0.00  0.00    -0.010 C 
ATOM     15  C   UNL     1     -11.204  -3.017   6.734  0.00  0.00    +0.008 C 
BRANCH  14  17
ATOM     16  C   UNL     1     -13.659  -2.514   8.355  0.00  0.00    +0.004 C 
ATOM     17  C   UNL     1     -12.243  -2.406   8.923  0.00  0.00    +0.000 C 
ENDBRANCH  14  17
ENDBRANCH  13  14
ENDBRANCH   1  13
BRANCH  10  18
ATOM     18  S   UNL     1      -5.552  -4.209   3.582  0.00  0.00    -0.078 S 
BRANCH  18  19
ATOM     19  C   UNL     1      -4.827  -2.801   2.706  0.00  0.00    +0.173 C 
BRANCH  19  20
ATOM     20  C   UNL     1      -3.878  -3.303   1.648  0.00  0.00    +0.226 C 
ATOM     21  O   UNL     1      -3.708  -4.494   1.500  0.00  0.00    -0.275 OA
ATOM     22  N   UNL     1      -3.217  -2.426   0.865  0.00  0.00    -0.298 N 
ATOM     23  C   UNL     1      -2.287  -2.894  -0.173  0.00  0.00    +0.126 C 
ATOM     24  C   UNL     1      -0.954  -2.158   0.000  0.00  0.00    +0.125 C 
ATOM     25  N   UNL     1      -1.196  -0.709   0.010  0.00  0.00    -0.314 N 
ATOM     26  C   UNL     1      -2.030  -0.316   1.153  0.00  0.00    +0.125 C 
ATOM     27  C   UNL     1      -3.407  -0.977   1.028  0.00  0.00    +0.126 C 
ATOM     28  C   UNL     1       0.002  -0.004   0.002  0.00  0.00    +0.099 A 
ATOM     29  C   UNL     1      -0.017   1.387   0.010  0.00  0.00    +0.042 A 
ATOM     30  C   UNL     1       1.182   2.076   0.002  0.00  0.00    +0.005 A 
ATOM     31  C   UNL     1       2.365   1.348  -0.013  0.00  0.00    +0.018 A 
ATOM     32  C   UNL     1       2.310  -0.031  -0.020  0.00  0.00    +0.084 A 
ATOM     33  N   UNL     1       1.151  -0.662  -0.013  0.00  0.00    -0.350 N 
ATOM     34  H   UNL     1       1.154  -1.762  -0.018  0.00  0.00    +0.166 HD
ENDBRANCH  19  20
ENDBRANCH  18  19
ENDBRANCH  10  18
TORSDOF 6
