REMARK  Name = ZINC15449977
REMARK  7 active torsions:
REMARK  status: ('A' for Active; 'I' for Inactive)
REMARK    1  A    between atoms: C_1  and  N_2
REMARK    2  A    between atoms: N_2  and  C_3
REMARK    3  A    between atoms: N_2  and  C_14
REMARK    4  A    between atoms: C_3  and  C_4
REMARK    5  A    between atoms: N_6  and  C_7
REMARK    6  A    between atoms: C_14  and  C_16
REMARK    7  A    between atoms: C_14  and  C_22
REMARK                            x       y       z     vdW  Elec       q    Type
REMARK                         _______ _______ _______ _____ _____    ______ ____
ROOT
ATOM      1  C   UNL     1       1.622  -1.899   0.256  0.00  0.00    +0.174 C 
ENDROOT
BRANCH   1   2
ATOM      2  C   UNL     1       3.058  -2.091   0.671  0.00  0.00    +0.242 C 
ATOM      3  O   UNL     1       3.810  -1.141   0.712  0.00  0.00    -0.273 OA
ATOM      4  N   UNL     1       3.507  -3.320   0.997  0.00  0.00    -0.239 N 
ATOM      5  C   UNL     1       4.791  -3.491   1.368  0.00  0.00    +0.303 C 
ATOM      6  O   UNL     1       5.545  -2.538   1.409  0.00  0.00    -0.253 OA
ATOM      7  N   UNL     1       5.240  -4.720   1.694  0.00  0.00    -0.313 N 
ATOM      8  H   UNL     1       2.825  -4.182   0.959  0.00  0.00    +0.159 HD
ATOM      9  H   UNL     1       6.288  -4.860   1.997  0.00  0.00    +0.146 HD
ATOM     10  H   UNL     1       4.559  -5.582   1.656  0.00  0.00    +0.146 HD
ENDBRANCH   1   2
BRANCH   1  11
ATOM     11  C   UNL     1       1.339  -2.727  -0.971  0.00  0.00    -0.021 A 
ATOM     12  C   UNL     1       2.314  -2.886  -1.938  0.00  0.00    +0.005 A 
ATOM     13  C   UNL     1       2.056  -3.649  -3.062  0.00  0.00    +0.000 A 
ATOM     14  C   UNL     1       0.820  -4.246  -3.222  0.00  0.00    +0.000 A 
ATOM     15  C   UNL     1      -0.157  -4.084  -2.257  0.00  0.00    +0.000 A 
ATOM     16  C   UNL     1       0.103  -3.324  -1.132  0.00  0.00    +0.005 A 
ENDBRANCH   1  11
BRANCH   1  18
ATOM     17  C   UNL     1       2.081  -0.080  -1.275  0.00  0.00    +0.106 C 
ATOM     18  N   UNL     1       1.385  -0.481  -0.045  0.00  0.00    -0.282 NA
BRANCH  18  19
ATOM     19  C   UNL     1      -0.053  -0.196  -0.137  0.00  0.00    +0.181 C 
BRANCH  19  20
ATOM     20  C   UNL     1      -0.267   1.294  -0.201  0.00  0.00    +0.231 C 
ATOM     21  O   UNL     1       0.685   2.045  -0.172  0.00  0.00    -0.274 OA
ATOM     22  N   UNL     1      -1.515   1.793  -0.295  0.00  0.00    -0.284 N 
ATOM     23  H   UNL     1      -2.371   1.113  -0.423  0.00  0.00    +0.155 HD
BRANCH  22  24
ATOM     24  C   UNL     1      -1.724   3.175  -0.231  0.00  0.00    +0.047 A 
ATOM     25  C   UNL     1      -0.803   3.988   0.417  0.00  0.00    +0.024 A 
ATOM     26  C   UNL     1      -1.009   5.353   0.475  0.00  0.00    +0.002 A 
ATOM     27  C   UNL     1      -2.136   5.909  -0.102  0.00  0.00    +0.001 A 
ATOM     28  C   UNL     1      -3.058   5.102  -0.743  0.00  0.00    +0.017 A 
ATOM     29  C   UNL     1      -2.855   3.736  -0.809  0.00  0.00    +0.039 A 
ATOM     30 BR   UNL     1      -4.117   2.634  -1.685  0.00  0.00    -0.048 Br
ENDBRANCH  22  24
ENDBRANCH  19  20
ENDBRANCH  18  19
ENDBRANCH   1  18
TORSDOF 6
