REMARK  Name = ZINC63627349
REMARK  7 active torsions:
REMARK  status: ('A' for Active; 'I' for Inactive)
REMARK    1  A    between atoms: C_1  and  C_2
REMARK    2  A    between atoms: C_2  and  C_3
REMARK    3  A    between atoms: C_2  and  C_4
REMARK    4  A    between atoms: C_7  and  S_10
REMARK    5  A    between atoms: S_10  and  N_13
REMARK    6  A    between atoms: N_13  and  C_14
REMARK    7  A    between atoms: C_17  and  C_20
REMARK                            x       y       z     vdW  Elec       q    Type
REMARK                         _______ _______ _______ _____ _____    ______ ____
ROOT
ATOM      1  C   UNL     1      -6.257  -0.816  -2.194  0.00  0.00    +0.048 A 
ATOM      2  C   UNL     1      -4.962  -0.900  -2.688  0.00  0.00    +0.025 A 
ATOM      3  C   UNL     1      -4.730  -0.757  -4.042  0.00  0.00    +0.008 A 
ATOM      4  C   UNL     1      -5.786  -0.529  -4.906  0.00  0.00    -0.021 A 
ATOM      5  C   UNL     1      -7.077  -0.445  -4.417  0.00  0.00    +0.008 A 
ATOM      6  C   UNL     1      -7.316  -0.593  -3.065  0.00  0.00    +0.025 A 
ENDROOT
BRANCH   4   7
ATOM      7  C   UNL     1      -5.529  -0.373  -6.382  0.00  0.00    +0.133 C 
ATOM      8  C   UNL     1      -5.585   1.088  -6.769  0.00  0.00    +0.012 C 
ATOM      9  C   UNL     1      -6.588   1.199  -7.670  0.00  0.00    -0.002 A 
ATOM     10  C   UNL     1      -7.137   2.341  -8.412  0.00  0.00    +0.029 A 
ATOM     11  C   UNL     1      -8.168   2.135  -9.263  0.00  0.00    +0.042 A 
ATOM     12  C   UNL     1      -8.724   0.862  -9.454  0.00  0.00    +0.022 A 
ATOM     13  C   UNL     1      -8.274  -0.234  -8.808  0.00  0.00    +0.027 A 
ATOM     14  C   UNL     1      -7.193  -0.134  -7.889  0.00  0.00    +0.043 A 
ATOM     15  N   UNL     1      -6.587  -1.036  -7.153  0.00  0.00    -0.374 N 
ATOM     16 CL   UNL     1      -8.820   3.483 -10.142  0.00  0.00    -0.084 Cl
ATOM     17  H   UNL     1      -6.801  -1.981  -7.122  0.00  0.00    +0.161 HD
ENDBRANCH   4   7
BRANCH   1  18
ATOM     18  N   UNL     1      -6.495  -0.960  -0.826  0.00  0.00    -0.216 N 
ATOM     19  H   UNL     1      -6.701  -0.182  -0.284  0.00  0.00    +0.174 HD
BRANCH  18  20
ATOM     20  S   UNL     1      -6.427  -2.460  -0.127  0.00  0.00    +0.072 S 
ATOM     21  O   UNL     1      -6.789  -2.290   1.236  0.00  0.00    -0.150 OA
ATOM     22  O   UNL     1      -5.188  -3.035  -0.520  0.00  0.00    -0.150 OA
BRANCH  20  26
ATOM     23  C   UNL     1      -9.678  -4.973  -2.026  0.00  0.00    -0.045 A 
ATOM     24  C   UNL     1      -8.385  -5.033  -2.513  0.00  0.00    +0.006 A 
ATOM     25  C   UNL     1      -7.392  -4.265  -1.933  0.00  0.00    +0.029 A 
ATOM     26  C   UNL     1      -7.692  -3.438  -0.867  0.00  0.00    +0.109 A 
ATOM     27  C   UNL     1      -8.985  -3.378  -0.381  0.00  0.00    +0.029 A 
ATOM     28  C   UNL     1      -9.979  -4.142  -0.964  0.00  0.00    +0.006 A 
BRANCH  23  30
ATOM     29  C   UNL     1     -10.898  -5.435  -4.135  0.00  0.00    +0.012 C 
ATOM     30  C   UNL     1     -10.760  -5.810  -2.659  0.00  0.00    +0.013 C 
ATOM     31  C   UNL     1     -10.394  -7.291  -2.541  0.00  0.00    +0.012 C 
ENDBRANCH  23  30
ENDBRANCH  20  26
ENDBRANCH  18  20
ENDBRANCH   1  18
TORSDOF 5
