REMARK  Name = ZINC35682381
REMARK  5 active torsions:
REMARK  status: ('A' for Active; 'I' for Inactive)
REMARK    1  A    between atoms: C_1  and  O_2
REMARK    2  A    between atoms: O_2  and  C_3
REMARK    3  A    between atoms: C_8  and  C_9
REMARK    4  A    between atoms: N_15  and  C_20
REMARK    5  A    between atoms: C_25  and  C_26
REMARK                            x       y       z     vdW  Elec       q    Type
REMARK                         _______ _______ _______ _____ _____    ______ ____
ROOT
ATOM      1  C   UNL     1      -0.023  -2.831  -0.012  0.00  0.00    +0.044 C 
ATOM      2  C   UNL     1      -0.083  -4.202   0.085  0.00  0.00    +0.129 C 
ATOM      3  C   UNL     1       1.053  -5.135   0.193  0.00  0.00    +0.272 C 
ATOM      4  O   UNL     1       2.238  -4.856   0.182  0.00  0.00    -0.268 OA
ATOM      5  N   UNL     1       0.504  -6.364   0.309  0.00  0.00    -0.229 N 
ATOM      6  C   UNL     1       1.234  -7.603   0.565  0.00  0.00    +0.224 C 
ATOM      7  N   UNL     1       0.440  -8.790   0.340  0.00  0.00    -0.303 N 
ATOM      8  C   UNL     1      -0.937  -8.981   0.759  0.00  0.00    +0.184 C 
ATOM      9  S   UNL     1      -1.974  -7.612   0.174  0.00  0.00    -0.071 S 
ATOM     10  C   UNL     1      -0.864  -6.236   0.201  0.00  0.00    +0.166 C 
ATOM     11  N   UNL     1      -1.207  -4.978   0.106  0.00  0.00    -0.220 NA
ENDROOT
BRANCH   1  17
ATOM     12  C   UNL     1      -1.195  -0.658   0.308  0.00  0.00    +0.127 A 
ATOM     13  C   UNL     1      -2.365   0.081   0.357  0.00  0.00    +0.046 A 
ATOM     14  C   UNL     1      -3.585  -0.537   0.156  0.00  0.00    +0.004 A 
ATOM     15  C   UNL     1      -3.650  -1.898  -0.096  0.00  0.00    +0.001 A 
ATOM     16  C   UNL     1      -2.498  -2.651  -0.148  0.00  0.00    +0.011 A 
ATOM     17  C   UNL     1      -1.254  -2.038   0.048  0.00  0.00    +0.019 A 
BRANCH  12  19
ATOM     18  C   UNL     1      -0.015   1.353   0.764  0.00  0.00    +0.277 C 
ATOM     19  O   UNL     1       0.003  -0.052   0.505  0.00  0.00    -0.495 OA
ENDBRANCH  12  19
ENDBRANCH   1  17
BRANCH   7  20
ATOM     20  C   UNL     1       1.050  -9.845  -0.341  0.00  0.00    +0.043 A 
ATOM     21  C   UNL     1       1.732 -10.829   0.365  0.00  0.00    +0.024 A 
ATOM     22  C   UNL     1       2.334 -11.871  -0.311  0.00  0.00    +0.002 A 
ATOM     23  C   UNL     1       2.260 -11.937  -1.691  0.00  0.00    +0.001 A 
ATOM     24  C   UNL     1       1.582 -10.960  -2.397  0.00  0.00    +0.014 A 
ATOM     25  C   UNL     1       0.973  -9.918  -1.726  0.00  0.00    +0.076 A 
BRANCH  25  26
ATOM     26  C   UNL     1       0.229  -8.857  -2.496  0.00  0.00    +0.419 C 
ATOM     27  F   UNL     1       0.290  -9.145  -3.864  0.00  0.00    -0.166 F 
ATOM     28  F   UNL     1      -1.108  -8.832  -2.084  0.00  0.00    -0.166 F 
ATOM     29  F   UNL     1       0.815  -7.609  -2.256  0.00  0.00    -0.166 F 
ENDBRANCH  25  26
ENDBRANCH   7  20
TORSDOF 4
