REMARK  Name = ZINC39672199
REMARK  8 active torsions:
REMARK  status: ('A' for Active; 'I' for Inactive)
REMARK    1  A    between atoms: C_1  and  C_2
REMARK    2  A    between atoms: C_2  and  C_4
REMARK    3  A    between atoms: C_2  and  O_32
REMARK    4  A    between atoms: C_8  and  C_17
REMARK    5  A    between atoms: N_19  and  C_20
REMARK    6  A    between atoms: C_20  and  C_21
REMARK    7  A    between atoms: N_30  and  C_31
REMARK    8  A    between atoms: O_32  and  C_33
REMARK                            x       y       z     vdW  Elec       q    Type
REMARK                         _______ _______ _______ _____ _____    ______ ____
ROOT
ATOM      1  C   UNL     1      -1.339  -0.528  -0.225  0.00  0.00    +0.256 C 
ATOM      2  O   UNL     1      -1.568  -0.811   0.932  0.00  0.00    -0.272 OA
ATOM      3  N   UNL     1      -2.352  -0.442  -1.111  0.00  0.00    -0.297 N 
ATOM      4  C   UNL     1      -2.270  -0.118  -2.554  0.00  0.00    +0.121 C 
ATOM      5  C   UNL     1      -3.299  -1.056  -3.224  0.00  0.00    +0.100 C 
ATOM      6  C   UNL     1      -4.300  -1.401  -2.108  0.00  0.00    -0.004 C 
ATOM      7  C   UNL     1      -3.797  -0.657  -0.862  0.00  0.00    +0.115 C 
ATOM      8  C   UNL     1      -5.698  -0.919  -2.484  0.00  0.00    -0.010 C 
ATOM      9  C   UNL     1      -6.685  -1.325  -1.386  0.00  0.00    -0.082 C 
ATOM     10  N   UNL     1      -6.674  -2.784  -1.230  0.00  0.00    +0.379 N 
ATOM     11  C   UNL     1      -5.351  -3.230  -0.778  0.00  0.00    -0.082 C 
ATOM     12  C   UNL     1      -4.307  -2.905  -1.851  0.00  0.00    -0.010 C 
ATOM     13  H   UNL     1      -7.369  -3.054  -0.550  0.00  0.00    -0.086 HD
ATOM     14  H   UNL     1      -6.889  -3.217  -2.116  0.00  0.00    -0.086 HD
ENDROOT
BRANCH   5  15
ATOM     15  C   UNL     1      -3.997  -0.347  -4.356  0.00  0.00    +0.218 C 
ATOM     16  O   UNL     1      -4.162   0.853  -4.310  0.00  0.00    -0.275 OA
ATOM     17  N   UNL     1      -4.436  -1.048  -5.421  0.00  0.00    -0.311 N 
ATOM     18  H   UNL     1      -4.303  -2.008  -5.458  0.00  0.00    +0.149 HD
BRANCH  17  19
ATOM     19  C   UNL     1      -5.114  -0.359  -6.522  0.00  0.00    +0.139 C 
BRANCH  19  20
ATOM     20  C   UNL     1      -5.502  -1.361  -7.578  0.00  0.00    -0.030 A 
ATOM     21  C   UNL     1      -4.622  -1.657  -8.604  0.00  0.00    +0.007 A 
ATOM     22  C   UNL     1      -4.978  -2.574  -9.572  0.00  0.00    +0.024 A 
ATOM     23  C   UNL     1      -6.219  -3.199  -9.516  0.00  0.00    +0.033 A 
ATOM     24  C   UNL     1      -7.098  -2.904  -8.486  0.00  0.00    -0.026 A 
ATOM     25  C   UNL     1      -6.732  -1.985  -7.517  0.00  0.00    +0.010 A 
ATOM     26  C   UNL     1      -8.446  -3.569  -8.388  0.00  0.00    +0.038 C 
ATOM     27  C   UNL     1      -8.865  -4.133  -9.745  0.00  0.00    +0.024 C 
ATOM     28  C   UNL     1      -7.724  -4.996 -10.298  0.00  0.00    +0.105 C 
ATOM     29  N   UNL     1      -6.562  -4.122 -10.511  0.00  0.00    -0.333 N 
ATOM     30  C   UNL     1      -5.777  -4.214 -11.744  0.00  0.00    +0.129 C 
ENDBRANCH  19  20
ENDBRANCH  17  19
ENDBRANCH   5  15
BRANCH   1  32
ATOM     31  C   UNL     1       0.218   1.188  -1.107  0.00  0.00    +0.062 C 
ATOM     32  C   UNL     1       0.077  -0.272  -0.672  0.00  0.00    +0.256 C 
BRANCH  32  33
ATOM     33  O   UNL     1       0.973  -0.535   0.409  0.00  0.00    -0.480 OA
BRANCH  33  34
ATOM     34  C   UNL     1       2.250  -0.868   0.085  0.00  0.00    +0.122 A 
ATOM     35  C   UNL     1       3.142  -1.248   1.077  0.00  0.00    +0.045 A 
ATOM     36  C   UNL     1       4.440  -1.586   0.746  0.00  0.00    +0.004 A 
ATOM     37  C   UNL     1       4.850  -1.546  -0.575  0.00  0.00    +0.000 A 
ATOM     38  C   UNL     1       3.962  -1.168  -1.565  0.00  0.00    +0.004 A 
ATOM     39  C   UNL     1       2.662  -0.834  -1.239  0.00  0.00    +0.045 A 
ENDBRANCH  33  34
ENDBRANCH  32  33
ENDBRANCH   1  32
TORSDOF 6
