REMARK  Name = ZINC02461585
REMARK  6 active torsions:
REMARK  status: ('A' for Active; 'I' for Inactive)
REMARK    1  A    between atoms: C_1  and  C_2
REMARK    2  A    between atoms: C_2  and  C_3
REMARK    3  A    between atoms: C_3  and  C_4
REMARK    4  A    between atoms: C_4  and  N_5
REMARK    5  A    between atoms: C_21  and  C_26
REMARK    6  A    between atoms: C_31  and  O_32
REMARK                            x       y       z     vdW  Elec       q    Type
REMARK                         _______ _______ _______ _____ _____    ______ ____
ROOT
ATOM      1  N   UNL     1      -1.334   2.689  -0.671  0.00  0.00    -0.224 N 
ATOM      2  C   UNL     1      -0.300   1.936  -1.172  0.00  0.00    +0.244 C 
ATOM      3  O   UNL     1       0.078   1.847  -2.321  0.00  0.00    -0.273 OA
ATOM      4  C   UNL     1       0.273   1.223   0.036  0.00  0.00    +0.169 C 
ATOM      5  C   UNL     1       1.734   1.644   0.237  0.00  0.00    +0.069 C 
ATOM      6  C   UNL     1       2.114   1.456   1.685  0.00  0.00    -0.015 A 
ATOM      7  C   UNL     1       3.451   1.353   2.239  0.00  0.00    +0.003 A 
ATOM      8  C   UNL     1       4.721   1.386   1.656  0.00  0.00    +0.010 A 
ATOM      9  C   UNL     1       5.795   1.257   2.501  0.00  0.00    +0.001 A 
ATOM     10  C   UNL     1       5.641   1.101   3.869  0.00  0.00    +0.002 A 
ATOM     11  C   UNL     1       4.395   1.064   4.472  0.00  0.00    +0.026 A 
ATOM     12  C   UNL     1       3.286   1.193   3.639  0.00  0.00    +0.047 A 
ATOM     13  N   UNL     1       1.945   1.200   3.893  0.00  0.00    -0.356 N 
ATOM     14  H   UNL     1       1.543   1.109   4.771  0.00  0.00    +0.166 HD
ATOM     15  C   UNL     1       1.254   1.355   2.721  0.00  0.00    +0.046 A 
ATOM     16  C   UNL     1      -0.254   1.399   2.569  0.00  0.00    +0.159 C 
ATOM     17  N   UNL     1      -0.515   1.756   1.169  0.00  0.00    -0.261 N 
ATOM     18  C   UNL     1      -1.444   2.567   0.659  0.00  0.00    +0.313 C 
ATOM     19  O   UNL     1      -2.292   3.129   1.324  0.00  0.00    -0.252 OA
ENDROOT
BRANCH  16  20
ATOM     20  C   UNL     1      -0.836   2.442   3.488  0.00  0.00    +0.021 A 
ATOM     21  C   UNL     1      -0.034   3.453   3.983  0.00  0.00    +0.024 A 
ATOM     22  C   UNL     1      -0.568   4.410   4.827  0.00  0.00    +0.018 A 
ATOM     23  C   UNL     1      -1.905   4.356   5.178  0.00  0.00    +0.019 A 
ATOM     24  C   UNL     1      -2.710   3.348   4.686  0.00  0.00    +0.047 A 
ATOM     25  C   UNL     1      -2.178   2.390   3.834  0.00  0.00    +0.122 A 
ATOM     26 BR   UNL     1       0.532   5.792   5.503  0.00  0.00    -0.050 Br
BRANCH  25  27
ATOM     27  O   UNL     1      -2.969   1.400   3.345  0.00  0.00    -0.506 OA
ATOM     28  H   UNL     1      -3.061   0.641   3.936  0.00  0.00    +0.292 HD
ENDBRANCH  25  27
ENDBRANCH  16  20
BRANCH   1  29
ATOM     29  C   UNL     1      -2.201   3.535  -1.495  0.00  0.00    +0.118 C 
BRANCH  29  30
ATOM     30  C   UNL     1      -1.594   4.935  -1.604  0.00  0.00    +0.019 C 
BRANCH  30  32
ATOM     31  C   UNL     1      -1.892   7.218  -2.573  0.00  0.00    +0.004 C 
ATOM     32  C   UNL     1      -2.500   5.818  -2.463  0.00  0.00    -0.002 C 
ENDBRANCH  30  32
ENDBRANCH  29  30
ENDBRANCH   1  29
TORSDOF 5
