REMARK  Name = ZINC40780667
REMARK  6 active torsions:
REMARK  status: ('A' for Active; 'I' for Inactive)
REMARK    1  A    between atoms: C_1  and  C_2
REMARK    2  A    between atoms: C_4  and  O_10
REMARK    3  A    between atoms: C_6  and  C_9
REMARK    4  A    between atoms: O_10  and  C_11
REMARK    5  A    between atoms: C_12  and  N_27
REMARK    6  A    between atoms: C_13  and  N_17
REMARK                            x       y       z     vdW  Elec       q    Type
REMARK                         _______ _______ _______ _____ _____    ______ ____
ROOT
ATOM      1  C   UNL     1       0.135  -4.101  -2.348  0.00  0.00    +0.246 A 
ATOM      2  C   UNL     1       0.259  -4.835  -3.526  0.00  0.00    +0.128 A 
ATOM      3  C   UNL     1       0.400  -6.221  -3.430  0.00  0.00    +0.149 A 
ATOM      4  N   UNL     1       0.410  -6.785  -2.224  0.00  0.00    -0.219 NA
ATOM      5  C   UNL     1       0.289  -6.054  -1.135  0.00  0.00    +0.227 A 
ATOM      6  N   UNL     1       0.160  -4.744  -1.183  0.00  0.00    -0.199 NA
ENDROOT
BRANCH   3   7
ATOM      7  N   UNL     1       0.527  -7.000  -4.574  0.00  0.00    -0.309 N 
ATOM      8  C   UNL     1       1.838  -7.223  -5.206  0.00  0.00    +0.111 C 
ATOM      9  C   UNL     1       2.159  -8.713  -5.109  0.00  0.00    +0.054 C 
ATOM     10  C   UNL     1       0.979  -9.545  -5.539  0.00  0.00    -0.041 A 
ATOM     11  C   UNL     1       1.221 -10.860  -5.917  0.00  0.00    +0.004 A 
ATOM     12  C   UNL     1       0.183 -11.678  -6.312  0.00  0.00    +0.000 A 
ATOM     13  C   UNL     1      -1.110 -11.189  -6.332  0.00  0.00    +0.000 A 
ATOM     14  C   UNL     1      -1.352  -9.883  -5.960  0.00  0.00    +0.005 A 
ATOM     15  C   UNL     1      -0.308  -9.056  -5.568  0.00  0.00    -0.027 A 
ATOM     16  C   UNL     1      -0.638  -7.637  -5.196  0.00  0.00    +0.142 C 
ENDBRANCH   3   7
BRANCH   2  17
ATOM     17  N   UNL     1       0.243  -4.197  -4.777  0.00  0.00    -0.351 N 
ATOM     18  H   UNL     1       0.221  -3.229  -4.828  0.00  0.00    +0.143 HD
ATOM     19  H   UNL     1       0.254  -4.725  -5.591  0.00  0.00    +0.143 HD
ENDBRANCH   2  17
BRANCH   1  20
ATOM     20  O   UNL     1      -0.004  -2.753  -2.387  0.00  0.00    -0.436 OA
BRANCH  20  24
ATOM     21  C   UNL     1       2.421  -0.927   1.435  0.00  0.00    +0.045 C 
ATOM     22  C   UNL     1       1.138  -1.170   0.683  0.00  0.00    -0.028 A 
ATOM     23  C   UNL     1       1.159  -1.856  -0.515  0.00  0.00    +0.051 A 
ATOM     24  C   UNL     1      -0.023  -2.078  -1.207  0.00  0.00    +0.131 A 
ATOM     25  C   UNL     1      -1.224  -1.611  -0.693  0.00  0.00    +0.051 A 
ATOM     26  C   UNL     1      -1.241  -0.926   0.506  0.00  0.00    -0.028 A 
ATOM     27  C   UNL     1      -0.062  -0.710   1.197  0.00  0.00    +0.047 A 
ATOM     28 CL   UNL     1      -0.086   0.145   2.708  0.00  0.00    -0.083 Cl
ATOM     29  C   UNL     1      -2.545  -0.418   1.065  0.00  0.00    +0.045 C 
ENDBRANCH  20  24
ENDBRANCH   1  20
TORSDOF 4
