REMARK  Name = ZINC13839108
REMARK  6 active torsions:
REMARK  status: ('A' for Active; 'I' for Inactive)
REMARK    1  A    between atoms: C_6  and  C_7
REMARK    2  A    between atoms: C_7  and  C_8
REMARK    3  A    between atoms: N_10  and  N_11
REMARK    4  A    between atoms: C_12  and  C_13
REMARK    5  A    between atoms: C_16  and  O_21
REMARK    6  A    between atoms: C_18  and  O_19
REMARK                            x       y       z     vdW  Elec       q    Type
REMARK                         _______ _______ _______ _____ _____    ______ ____
ROOT
ATOM      1  N   UNL     1      -3.293  -1.933  -2.965  0.00  0.00    -0.188 NA
ATOM      2  C   UNL     1      -4.392  -2.584  -3.195  0.00  0.00    +0.142 C 
ENDROOT
BRANCH   2   3
ATOM      3  C   UNL     1      -4.827  -2.828  -4.581  0.00  0.00    +0.038 A 
ATOM      4  C   UNL     1      -6.013  -3.525  -4.832  0.00  0.00    +0.032 A 
ATOM      5  C   UNL     1      -6.417  -3.750  -6.130  0.00  0.00    +0.061 A 
ATOM      6  C   UNL     1      -5.648  -3.288  -7.193  0.00  0.00    +0.148 A 
ATOM      7  C   UNL     1      -4.469  -2.596  -6.954  0.00  0.00    +0.102 A 
ATOM      8  C   UNL     1      -4.056  -2.358  -5.654  0.00  0.00    +0.143 A 
ATOM      9 BR   UNL     1      -3.430  -1.971  -8.405  0.00  0.00    -0.043 Br
ATOM     10 BR   UNL     1      -8.021  -4.692  -6.468  0.00  0.00    -0.046 Br
BRANCH   8  11
ATOM     11  O   UNL     1      -2.906  -1.676  -5.418  0.00  0.00    -0.505 OA
ATOM     12  H   UNL     1      -2.121  -2.237  -5.359  0.00  0.00    +0.292 HD
ENDBRANCH   8  11
BRANCH   6  13
ATOM     13  O   UNL     1      -6.053  -3.514  -8.470  0.00  0.00    -0.504 OA
ATOM     14  H   UNL     1      -6.618  -2.819  -8.833  0.00  0.00    +0.292 HD
ENDBRANCH   6  13
ENDBRANCH   2   3
BRANCH   1  17
ATOM     15  C   UNL     1      -1.738  -1.024  -1.408  0.00  0.00    +0.237 C 
ATOM     16  O   UNL     1      -1.069  -0.616  -2.334  0.00  0.00    -0.274 OA
ATOM     17  N   UNL     1      -2.879  -1.701  -1.647  0.00  0.00    -0.207 N 
ATOM     18  H   UNL     1      -3.413  -2.027  -0.906  0.00  0.00    +0.177 HD
BRANCH  15  19
ATOM     19  C   UNL     1      -1.293  -0.775   0.010  0.00  0.00    +0.132 C 
BRANCH  19  25
ATOM     20  C   UNL     1      -0.017   1.378   0.010  0.00  0.00    +0.005 A 
ATOM     21  C   UNL     1       1.171   2.086   0.002  0.00  0.00    +0.015 A 
ATOM     22  C   UNL     1       2.378   1.411  -0.013  0.00  0.00    +0.018 A 
ATOM     23  C   UNL     1       2.396   0.027  -0.021  0.00  0.00    +0.015 A 
ATOM     24  C   UNL     1       1.208  -0.679  -0.013  0.00  0.00    +0.005 A 
ATOM     25  C   UNL     1       0.002  -0.004   0.002  0.00  0.00    -0.039 A 
ATOM     26 BR   UNL     1       4.003   2.378  -0.024  0.00  0.00    -0.050 Br
ENDBRANCH  19  25
ENDBRANCH  15  19
ENDBRANCH   1  17
TORSDOF 6
