REMARK  Name = ZINC38789157
REMARK  6 active torsions:
REMARK  status: ('A' for Active; 'I' for Inactive)
REMARK    1  A    between atoms: C_6  and  C_10
REMARK    2  A    between atoms: C_10  and  C_11
REMARK    3  A    between atoms: C_11  and  C_12
REMARK    4  A    between atoms: C_15  and  N_18
REMARK    5  A    between atoms: N_18  and  C_19
REMARK    6  A    between atoms: C_19  and  C_20
REMARK                            x       y       z     vdW  Elec       q    Type
REMARK                         _______ _______ _______ _____ _____    ______ ____
ROOT
ATOM      1  C   UNL     1      -5.411  -4.721   1.188  0.00  0.00    -0.047 A 
ATOM      2  C   UNL     1      -6.609  -4.799   0.502  0.00  0.00    +0.005 A 
ATOM      3  C   UNL     1      -7.330  -5.977   0.498  0.00  0.00    +0.023 A 
ATOM      4  C   UNL     1      -6.850  -7.085   1.184  0.00  0.00    +0.027 A 
ATOM      5  C   UNL     1      -5.646  -7.004   1.873  0.00  0.00    +0.023 A 
ATOM      6  C   UNL     1      -4.928  -5.824   1.868  0.00  0.00    +0.005 A 
ENDROOT
BRANCH   4   7
ATOM      7  N   UNL     1      -7.576  -8.278   1.183  0.00  0.00    -0.343 N 
ATOM      8  H   UNL     1      -8.417  -8.333   0.702  0.00  0.00    +0.146 HD
BRANCH   7   9
ATOM      9  C   UNL     1      -7.068  -9.446   1.907  0.00  0.00    +0.118 C 
BRANCH   9  10
ATOM     10  C   UNL     1      -8.046 -10.611   1.746  0.00  0.00    +0.115 C 
ATOM     11  C   UNL     1      -7.606 -11.721   2.680  0.00  0.00    -0.003 C 
ATOM     12  C   UNL     1      -7.325 -12.931   2.125  0.00  0.00    -0.003 A 
ATOM     13  C   UNL     1      -6.892 -14.054   2.958  0.00  0.00    +0.059 A 
ATOM     14  C   UNL     1      -6.618 -15.249   2.372  0.00  0.00    +0.167 A 
ATOM     15  C   UNL     1      -6.745 -15.425   0.977  0.00  0.00    +0.168 A 
ATOM     16  C   UNL     1      -7.149 -14.399   0.149  0.00  0.00    +0.073 A 
ATOM     17  C   UNL     1      -7.451 -13.134   0.669  0.00  0.00    +0.044 A 
ATOM     18  N   UNL     1      -7.841 -12.153  -0.149  0.00  0.00    -0.284 N 
ATOM     19  C   UNL     1      -8.139 -10.938   0.273  0.00  0.00    +0.226 C 
ATOM     20  O   UNL     1      -8.488 -10.085  -0.522  0.00  0.00    -0.275 OA
ATOM     21  O   UNL     1      -6.408 -16.713   0.679  0.00  0.00    -0.453 OA
ATOM     22  C   UNL     1      -5.679 -17.198   1.821  0.00  0.00    +0.466 C 
ATOM     23  O   UNL     1      -6.203 -16.431   2.920  0.00  0.00    -0.453 OA
ATOM     24  H   UNL     1      -7.907 -12.343  -1.098  0.00  0.00    +0.155 HD
ENDBRANCH   9  10
ENDBRANCH   7   9
ENDBRANCH   4   7
BRANCH   1  25
ATOM     25  C   UNL     1      -4.628  -3.434   1.190  0.00  0.00    +0.043 C 
BRANCH  25  26
ATOM     26  C   UNL     1      -3.662  -3.423   0.003  0.00  0.00    +0.079 C 
BRANCH  26  32
ATOM     27  C   UNL     1      -0.017   1.374   0.010  0.00  0.00    +0.002 A 
ATOM     28  C   UNL     1      -1.222   2.061   0.019  0.00  0.00    +0.002 A 
ATOM     29  C   UNL     1      -2.409   1.385   0.021  0.00  0.00    +0.030 A 
ATOM     30  C   UNL     1      -2.415  -0.012   0.014  0.00  0.00    +0.089 A 
ATOM     31  N   UNL     1      -3.402  -0.944   0.014  0.00  0.00    -0.232 NA
ATOM     32  C   UNL     1      -2.879  -2.135   0.005  0.00  0.00    +0.108 A 
ATOM     33  N   UNL     1      -1.521  -2.049  -0.001  0.00  0.00    -0.342 N 
ATOM     34  C   UNL     1      -1.194  -0.708   0.004  0.00  0.00    +0.066 A 
ATOM     35  C   UNL     1       0.002  -0.004   0.002  0.00  0.00    +0.028 A 
ATOM     36  H   UNL     1      -0.898  -2.793  -0.008  0.00  0.00    +0.167 HD
ENDBRANCH  26  32
ENDBRANCH  25  26
ENDBRANCH   1  25
TORSDOF 6
