REMARK  Name = ZINC21334073
REMARK  12 active torsions:
REMARK  status: ('A' for Active; 'I' for Inactive)
REMARK    1  A    between atoms: C_1  and  O_2
REMARK    2  A    between atoms: O_2  and  C_3
REMARK    3  A    between atoms: C_3  and  C_4
REMARK    4  A    between atoms: C_4  and  N_5
REMARK    5  A    between atoms: N_7  and  N_21
REMARK    6  A    between atoms: C_8  and  C_11
REMARK    7  A    between atoms: C_14  and  O_20
REMARK    8  A    between atoms: C_15  and  C_17
REMARK    9  A    between atoms: C_22  and  C_23
REMARK   10  A    between atoms: C_26  and  O_31
REMARK   11  A    between atoms: C_27  and  O_29
REMARK   12  A    between atoms: O_29  and  C_30
REMARK                            x       y       z     vdW  Elec       q    Type
REMARK                         _______ _______ _______ _____ _____    ______ ____
ROOT
ATOM      1  N   UNL     1       2.294   1.075   0.435  0.00  0.00    -0.257 NA
ATOM      2  C   UNL     1       1.152   1.691   0.259  0.00  0.00    +0.190 A 
ATOM      3  N   UNL     1      -0.121   1.162   0.182  0.00  0.00    -0.208 N 
ATOM      4  C   UNL     1      -1.172   2.018  -0.014  0.00  0.00    +0.082 A 
ATOM      5  C   UNL     1      -0.945   3.343  -0.116  0.00  0.00    +0.077 A 
ATOM      6  S   UNL     1       0.830   3.435   0.055  0.00  0.00    -0.056 S 
ENDROOT
BRANCH   4   7
ATOM      7  C   UNL     1      -2.552   1.491  -0.109  0.00  0.00    +0.002 A 
ATOM      8  C   UNL     1      -2.779   0.222  -0.649  0.00  0.00    +0.013 A 
ATOM      9  C   UNL     1      -4.061  -0.276  -0.735  0.00  0.00    +0.047 A 
ATOM     10  C   UNL     1      -5.137   0.483  -0.297  0.00  0.00    +0.129 A 
ATOM     11  C   UNL     1      -4.921   1.760   0.241  0.00  0.00    +0.078 A 
ATOM     12  C   UNL     1      -3.622   2.261   0.333  0.00  0.00    +0.026 A 
BRANCH  11  13
ATOM     13  C   UNL     1      -6.062   2.570   0.708  0.00  0.00    +0.245 C 
ATOM     14  O   UNL     1      -7.193   2.131   0.626  0.00  0.00    -0.270 OA
ATOM     15  N   UNL     1      -5.851   3.797   1.224  0.00  0.00    -0.325 N 
ATOM     16  H   UNL     1      -6.702   4.401   1.571  0.00  0.00    +0.145 HD
ATOM     17  H   UNL     1      -4.828   4.194   1.298  0.00  0.00    +0.145 HD
ENDBRANCH  11  13
BRANCH  10  18
ATOM     18  O   UNL     1      -6.398  -0.009  -0.389  0.00  0.00    -0.506 OA
ATOM     19  H   UNL     1      -7.250   0.593  -0.042  0.00  0.00    +0.292 HD
ENDBRANCH  10  18
ENDBRANCH   4   7
BRANCH   3  20
ATOM     20  N   UNL     1      -0.332  -0.218   0.296  0.00  0.00    -0.172 NA
ATOM     21  C   UNL     1       0.531  -0.957   0.925  0.00  0.00    +0.141 C 
BRANCH  21  22
ATOM     22  C   UNL     1       0.376  -2.423   0.937  0.00  0.00    -0.002 A 
ATOM     23  C   UNL     1      -0.699  -3.019   0.272  0.00  0.00    +0.013 A 
ATOM     24  C   UNL     1      -0.841  -4.391   0.284  0.00  0.00    +0.050 A 
ATOM     25  C   UNL     1       0.081  -5.181   0.955  0.00  0.00    +0.158 A 
ATOM     26  C   UNL     1       1.155  -4.594   1.619  0.00  0.00    +0.162 A 
ATOM     27  C   UNL     1       1.308  -3.220   1.608  0.00  0.00    +0.059 A 
BRANCH  26  28
ATOM     28  O   UNL     1       2.056  -5.373   2.276  0.00  0.00    -0.491 OA
ATOM     29  C   UNL     1       3.133  -4.703   2.936  0.00  0.00    +0.277 C 
ENDBRANCH  26  28
BRANCH  25  30
ATOM     30  O   UNL     1      -0.064  -6.533   0.963  0.00  0.00    -0.503 OA
ATOM     31  H   UNL     1       0.666  -7.162   1.494  0.00  0.00    +0.292 HD
ENDBRANCH  25  30
ENDBRANCH  21  22
ENDBRANCH   3  20
BRANCH   1  32
ATOM     32  C   UNL     1       3.540   1.844   0.486  0.00  0.00    +0.172 C 
BRANCH  32  33
ATOM     33  C   UNL     1       4.221   1.623   1.838  0.00  0.00    +0.182 C 
BRANCH  33  35
ATOM     34  C   UNL     1       5.266  -0.060   3.188  0.00  0.00    +0.194 C 
ATOM     35  O   UNL     1       4.616   0.254   1.954  0.00  0.00    -0.381 OA
ENDBRANCH  33  35
ENDBRANCH  32  33
ENDBRANCH   1  32
TORSDOF 10
