REMARK  Name = ZINC24252324
REMARK  10 active torsions:
REMARK  status: ('A' for Active; 'I' for Inactive)
REMARK    1  A    between atoms: C_1  and  C_2
REMARK    2  A    between atoms: C_2  and  N_3
REMARK    3  A    between atoms: N_3  and  C_4
REMARK    4  A    between atoms: N_3  and  S_6
REMARK    5  A    between atoms: C_4  and  C_5
REMARK    6  A    between atoms: S_6  and  C_9
REMARK    7  A    between atoms: C_13  and  N_15
REMARK    8  A    between atoms: C_25  and  N_26
REMARK    9  A    between atoms: N_26  and  C_27
REMARK   10  A    between atoms: C_30  and  C_33
REMARK                            x       y       z     vdW  Elec       q    Type
REMARK                         _______ _______ _______ _____ _____    ______ ____
ROOT
ATOM      1  N   UNL     1      -0.064   9.818   0.265  0.00  0.00    -0.202 N 
ATOM      2  C   UNL     1      -1.091  10.328   0.963  0.00  0.00    +0.258 C 
ATOM      3  O   UNL     1      -0.945  11.375   1.565  0.00  0.00    -0.269 OA
ATOM      4  C   UNL     1      -2.389   9.644   1.011  0.00  0.00    +0.046 A 
ATOM      5  C   UNL     1      -3.462  10.168   1.734  0.00  0.00    +0.014 A 
ATOM      6  C   UNL     1      -4.664   9.495   1.754  0.00  0.00    +0.001 A 
ATOM      7  C   UNL     1      -4.821   8.302   1.064  0.00  0.00    +0.001 A 
ATOM      8  C   UNL     1      -3.773   7.766   0.343  0.00  0.00    +0.009 A 
ATOM      9  C   UNL     1      -2.554   8.433   0.306  0.00  0.00    +0.000 A 
ATOM     10  C   UNL     1      -1.399   7.900  -0.446  0.00  0.00    +0.059 C 
ATOM     11  C   UNL     1      -1.494   6.721  -1.151  0.00  0.00    +0.085 C 
ATOM     12  C   UNL     1      -0.149   8.668  -0.424  0.00  0.00    +0.259 C 
ATOM     13  O   UNL     1       0.821   8.259  -1.036  0.00  0.00    -0.269 OA
ENDROOT
BRANCH   1  18
ATOM     14  C   UNL     1       3.345  10.877   1.154  0.00  0.00    +0.107 A 
ATOM     15  C   UNL     1       3.551  11.893   0.238  0.00  0.00    +0.028 A 
ATOM     16  C   UNL     1       2.560  12.222  -0.669  0.00  0.00    +0.004 A 
ATOM     17  C   UNL     1       1.361  11.536  -0.662  0.00  0.00    +0.024 A 
ATOM     18  C   UNL     1       1.151  10.516   0.256  0.00  0.00    +0.046 A 
ATOM     19  C   UNL     1       2.147  10.192   1.169  0.00  0.00    +0.052 A 
BRANCH  14  20
ATOM     20  S   UNL     1       4.611  10.463   2.307  0.00  0.00    +0.061 S 
ATOM     21  O   UNL     1       4.380   9.116   2.697  0.00  0.00    -0.153 OA
ATOM     22  O   UNL     1       5.839  10.890   1.734  0.00  0.00    -0.153 OA
BRANCH  20  23
ATOM     23  N   UNL     1       4.369  11.394   3.655  0.00  0.00    -0.177 NA
BRANCH  23  25
ATOM     24  C   UNL     1       4.389  10.233   5.808  0.00  0.00    +0.022 C 
ATOM     25  C   UNL     1       3.519  10.902   4.742  0.00  0.00    +0.106 C 
ENDBRANCH  23  25
BRANCH  23  26
ATOM     26  C   UNL     1       5.005  12.709   3.761  0.00  0.00    +0.106 C 
ATOM     27  C   UNL     1       4.029  13.788   3.288  0.00  0.00    +0.022 C 
ENDBRANCH  23  26
ENDBRANCH  20  23
ENDBRANCH  14  20
ENDBRANCH   1  18
BRANCH  11  28
ATOM     28  N   UNL     1      -0.393   6.197  -1.751  0.00  0.00    -0.320 N 
ATOM     29  H   UNL     1       0.593   6.658  -1.592  0.00  0.00    +0.152 HD
BRANCH  28  30
ATOM     30  C   UNL     1      -0.513   5.071  -2.571  0.00  0.00    +0.031 A 
ATOM     31  C   UNL     1       0.612   4.535  -3.186  0.00  0.00    +0.023 A 
ATOM     32  C   UNL     1       0.490   3.422  -3.995  0.00  0.00    +0.005 A 
ATOM     33  C   UNL     1      -0.750   2.843  -4.194  0.00  0.00    -0.050 A 
ATOM     34  C   UNL     1      -1.872   3.378  -3.588  0.00  0.00    +0.005 A 
ATOM     35  C   UNL     1      -1.757   4.487  -2.773  0.00  0.00    +0.023 A 
ATOM     36  C   UNL     1      -0.879   1.629  -5.078  0.00  0.00    +0.044 C 
ENDBRANCH  28  30
ENDBRANCH  11  28
TORSDOF 7
