REMARK  Name = ZINC39654635
REMARK  9 active torsions:
REMARK  status: ('A' for Active; 'I' for Inactive)
REMARK    1  A    between atoms: C_1  and  C_2
REMARK    2  A    between atoms: C_2  and  C_3
REMARK    3  A    between atoms: C_6  and  C_9
REMARK    4  A    between atoms: C_9  and  C_10
REMARK    5  A    between atoms: C_10  and  N_11
REMARK    6  A    between atoms: C_12  and  C_14
REMARK    7  A    between atoms: C_25  and  C_27
REMARK    8  A    between atoms: C_27  and  C_28
REMARK    9  A    between atoms: C_33  and  C_34
REMARK                            x       y       z     vdW  Elec       q    Type
REMARK                         _______ _______ _______ _____ _____    ______ ____
ROOT
ATOM      1  C   UNL     1       5.056  -0.741  -8.911  0.00  0.00    +0.100 C 
ATOM      2  C   UNL     1       4.120  -1.649  -9.741  0.00  0.00    +0.121 C 
ATOM      3  N   UNL     1       3.513  -0.743 -10.744  0.00  0.00    -0.300 N 
ATOM      4  C   UNL     1       4.621   0.156 -11.147  0.00  0.00    +0.115 C 
ATOM      5  C   UNL     1       5.385   0.440  -9.839  0.00  0.00    -0.004 C 
ATOM      6  C   UNL     1       6.886   0.500 -10.106  0.00  0.00    -0.010 C 
ATOM      7  C   UNL     1       7.196   1.717 -10.983  0.00  0.00    -0.082 C 
ATOM      8  N   UNL     1       6.750   2.939 -10.302  0.00  0.00    +0.379 N 
ATOM      9  C   UNL     1       5.292   2.914 -10.133  0.00  0.00    -0.082 C 
ATOM     10  C   UNL     1       4.902   1.748  -9.220  0.00  0.00    -0.010 C 
ATOM     11  C   UNL     1       2.241  -0.738 -11.190  0.00  0.00    +0.220 C 
ATOM     12  O   UNL     1       1.893   0.074 -12.021  0.00  0.00    -0.275 OA
ATOM     13  H   UNL     1       7.192   2.998  -9.397  0.00  0.00    -0.086 HD
ATOM     14  H   UNL     1       7.010   3.743 -10.854  0.00  0.00    -0.086 HD
ENDROOT
BRANCH   1  16
ATOM     15  N   UNL     1       5.061   0.043  -6.565  0.00  0.00    -0.315 N 
ATOM     16  C   UNL     1       4.351  -0.254  -7.671  0.00  0.00    +0.218 C 
ATOM     17  O   UNL     1       3.144  -0.130  -7.669  0.00  0.00    -0.275 OA
ATOM     18  H   UNL     1       6.026  -0.056  -6.567  0.00  0.00    +0.149 HD
BRANCH  15  19
ATOM     19  C   UNL     1       4.375   0.517  -5.360  0.00  0.00    +0.109 C 
BRANCH  19  20
ATOM     20  C   UNL     1       5.404   0.780  -4.258  0.00  0.00    +0.054 C 
BRANCH  20  24
ATOM     21  C   UNL     1       3.407   2.161  -0.744  0.00  0.00    -0.048 A 
ATOM     22  C   UNL     1       3.613   0.807  -0.935  0.00  0.00    +0.004 A 
ATOM     23  C   UNL     1       4.259   0.361  -2.072  0.00  0.00    +0.004 A 
ATOM     24  C   UNL     1       4.698   1.267  -3.019  0.00  0.00    -0.046 A 
ATOM     25  C   UNL     1       4.491   2.620  -2.828  0.00  0.00    +0.004 A 
ATOM     26  C   UNL     1       3.841   3.067  -1.693  0.00  0.00    +0.004 A 
BRANCH  21  28
ATOM     27  C   UNL     1       1.196   2.709   0.237  0.00  0.00    +0.009 C 
ATOM     28  C   UNL     1       2.702   2.648   0.496  0.00  0.00    +0.032 C 
ENDBRANCH  21  28
ENDBRANCH  20  24
ENDBRANCH  19  20
ENDBRANCH  15  19
ENDBRANCH   1  16
BRANCH  11  29
ATOM     29  C   UNL     1       1.251  -1.740 -10.655  0.00  0.00    +0.131 C 
BRANCH  29  30
ATOM     30  C   UNL     1      -0.088  -1.523 -11.310  0.00  0.00    -0.036 A 
ATOM     31  C   UNL     1      -1.042  -0.737 -10.690  0.00  0.00    +0.004 A 
ATOM     32  C   UNL     1      -2.270  -0.537 -11.291  0.00  0.00    +0.000 A 
ATOM     33  C   UNL     1      -2.546  -1.123 -12.512  0.00  0.00    +0.000 A 
ATOM     34  C   UNL     1      -1.592  -1.908 -13.133  0.00  0.00    +0.003 A 
ATOM     35  C   UNL     1      -0.362  -2.104 -12.534  0.00  0.00    -0.047 A 
ATOM     36  C   UNL     1       0.680  -2.955 -13.213  0.00  0.00    +0.044 C 
ENDBRANCH  29  30
ENDBRANCH  11  29
TORSDOF 7
