REMARK  Name = ZINC05264766
REMARK  6 active torsions:
REMARK  status: ('A' for Active; 'I' for Inactive)
REMARK    1  A    between atoms: C_1  and  S_2
REMARK    2  A    between atoms: S_2  and  C_3
REMARK    3  A    between atoms: N_11  and  C_12
REMARK    4  A    between atoms: C_12  and  C_14
REMARK    5  A    between atoms: N_20  and  C_21
REMARK    6  A    between atoms: C_21  and  C_22
REMARK                            x       y       z     vdW  Elec       q    Type
REMARK                         _______ _______ _______ _____ _____    ______ ____
ROOT
ATOM      1  C   UNL     1      -0.016  -2.332  -3.491  0.00  0.00    +0.009 A 
ATOM      2  C   UNL     1      -0.036  -0.946  -3.608  0.00  0.00    +0.017 A 
ATOM      3  C   UNL     1      -0.031  -0.139  -2.497  0.00  0.00    +0.028 A 
ATOM      4  C   UNL     1      -0.005  -0.688  -1.203  0.00  0.00    +0.059 A 
ATOM      5  C   UNL     1       0.019  -2.087  -1.115  0.00  0.00    +0.040 A 
ATOM      6  C   UNL     1       0.020  -2.901  -2.223  0.00  0.00    +0.032 A 
ATOM      7  S   UNL     1       0.040  -2.389   0.636  0.00  0.00    -0.052 S 
ATOM      8  C   UNL     1       0.022  -0.689   1.180  0.00  0.00    +0.168 A 
ATOM      9  N   UNL     1       0.028  -0.213   2.419  0.00  0.00    -0.149 NA
ATOM     10  N   UNL     1       0.002  -0.004   0.002  0.00  0.00    -0.310 N 
ENDROOT
BRANCH   1  12
ATOM     11  C   UNL     1      -0.059  -2.170  -6.304  0.00  0.00    +0.090 C 
ATOM     12  S   UNL     1      -0.023  -3.352  -4.928  0.00  0.00    -0.129 S 
ENDBRANCH   1  12
BRANCH   9  13
ATOM     13  C   UNL     1       0.048  -1.056   3.461  0.00  0.00    +0.307 C 
ATOM     14  O   UNL     1       0.062  -2.261   3.271  0.00  0.00    -0.265 OA
BRANCH  13  15
ATOM     15  C   UNL     1       0.054  -0.529   4.832  0.00  0.00    +0.219 C 
ATOM     16  C   UNL     1       0.044   0.795   5.022  0.00  0.00    +0.238 C 
ATOM     17  O   UNL     1       0.051   1.335   6.261  0.00  0.00    -0.492 OA
ATOM     18  C   UNL     1      -0.297   0.466   7.346  0.00  0.00    +0.269 C 
ATOM     19  C   UNL     1       0.451  -0.861   7.152  0.00  0.00    +0.270 C 
ATOM     20  O   UNL     1       0.075  -1.399   5.879  0.00  0.00    -0.481 OA
ENDBRANCH  13  15
ENDBRANCH   9  13
BRANCH  10  21
ATOM     21  C   UNL     1      -0.018   1.461   0.010  0.00  0.00    +0.212 C 
BRANCH  21  22
ATOM     22  C   UNL     1       1.363   1.970  -0.000  0.00  0.00    -0.084 C 
ATOM     23  C   UNL     1       2.465   2.377  -0.009  0.00  0.00    +0.005 C 
ENDBRANCH  21  22
ENDBRANCH  10  21
TORSDOF 5
