REMARK  Name = ZINC13065452
REMARK  9 active torsions:
REMARK  status: ('A' for Active; 'I' for Inactive)
REMARK    1  A    between atoms: C_1  and  C_2
REMARK    2  A    between atoms: C_9  and  C_14
REMARK    3  A    between atoms: C_14  and  N_61
REMARK    4  A    between atoms: C_15  and  C_16
REMARK    5  A    between atoms: C_15  and  N_61
REMARK    6  A    between atoms: C_23  and  C_24
REMARK    7  A    between atoms: C_23  and  N_61
REMARK    8  A    between atoms: N_28  and  C_29
REMARK    9  A    between atoms: C_29  and  C_30
REMARK                            x       y       z     vdW  Elec       q    Type
REMARK                         _______ _______ _______ _____ _____    ______ ____
ROOT
ATOM      1  N   UNL     1      -1.956  -0.580  -1.729  0.00  0.00    +0.390 N 
ATOM      2  H   UNL     1      -1.711   0.225  -2.317  0.00  0.00    -0.080 HD
ENDROOT
BRANCH   1   3
ATOM      3  C   UNL     1      -3.420  -0.780  -1.775  0.00  0.00    -0.036 C 
BRANCH   3  12
ATOM      4  C   UNL     1      -5.186  -4.665  -7.891  0.00  0.00    +0.044 C 
ATOM      5  C   UNL     1      -5.000  -3.351  -7.177  0.00  0.00    -0.050 A 
ATOM      6  C   UNL     1      -5.232  -2.161  -7.854  0.00  0.00    +0.005 A 
ATOM      7  C   UNL     1      -5.068  -0.948  -7.220  0.00  0.00    +0.026 A 
ATOM      8  C   UNL     1      -4.665  -0.913  -5.889  0.00  0.00    +0.049 A 
ATOM      9  C   UNL     1      -4.430  -2.122  -5.207  0.00  0.00    -0.001 A 
ATOM     10  C   UNL     1      -4.603  -3.341  -5.870  0.00  0.00    +0.013 A 
ATOM     11  C   UNL     1      -4.006  -2.075  -3.806  0.00  0.00    +0.017 A 
ATOM     12  C   UNL     1      -3.855  -0.864  -3.216  0.00  0.00    +0.001 A 
ATOM     13  C   UNL     1      -4.108   0.319  -3.943  0.00  0.00    +0.251 A 
ATOM     14  O   UNL     1      -3.971   1.397  -3.392  0.00  0.00    -0.268 OA
ATOM     15  N   UNL     1      -4.492   0.286  -5.231  0.00  0.00    -0.322 N 
ATOM     16  H   UNL     1      -4.655   1.118  -5.703  0.00  0.00    +0.169 HD
ENDBRANCH   3  12
ENDBRANCH   1   3
BRANCH   1  17
ATOM     17  C   UNL     1      -1.266  -1.780  -2.247  0.00  0.00    -0.040 C 
BRANCH  17  18
ATOM     18  C   UNL     1       0.187  -1.447  -2.469  0.00  0.00    -0.046 A 
ATOM     19  C   UNL     1       0.581  -0.811  -3.631  0.00  0.00    +0.003 A 
ATOM     20  C   UNL     1       1.912  -0.501  -3.833  0.00  0.00    +0.000 A 
ATOM     21  C   UNL     1       2.853  -0.835  -2.876  0.00  0.00    +0.001 A 
ATOM     22  C   UNL     1       2.461  -1.475  -1.716  0.00  0.00    +0.020 A 
ATOM     23  C   UNL     1       1.127  -1.782  -1.511  0.00  0.00    +0.042 A 
ATOM     24 CL   UNL     1       0.635  -2.586  -0.054  0.00  0.00    -0.083 Cl
ENDBRANCH  17  18
ENDBRANCH   1  17
BRANCH   1  25
ATOM     25  C   UNL     1      -1.526  -0.310  -0.341  0.00  0.00    +0.001 C 
BRANCH  25  26
ATOM     26  C   UNL     1      -0.172   0.350  -0.375  0.00  0.00    +0.135 A 
ATOM     27  N   UNL     1       0.842   0.096   0.415  0.00  0.00    -0.115 NA
ATOM     28  N   UNL     1       1.818   0.864   0.071  0.00  0.00    -0.023 NA
ATOM     29  N   UNL     1       1.452   1.601  -0.919  0.00  0.00    -0.044 NA
ATOM     30  N   UNL     1       0.231   1.314  -1.223  0.00  0.00    -0.229 N 
BRANCH  30  31
ATOM     31  C   UNL     1      -0.566   1.924  -2.290  0.00  0.00    +0.178 C 
BRANCH  31  32
ATOM     32  C   UNL     1      -1.178   3.232  -1.786  0.00  0.00    +0.140 C 
ATOM     33  C   UNL     1      -2.037   3.888  -2.896  0.00  0.00    +0.035 C 
ATOM     34  C   UNL     1      -3.018   4.740  -2.044  0.00  0.00    +0.031 C 
ATOM     35  C   UNL     1      -3.210   3.863  -0.788  0.00  0.00    +0.160 C 
ATOM     36  O   UNL     1      -2.091   2.972  -0.707  0.00  0.00    -0.375 OA
ENDBRANCH  31  32
ENDBRANCH  30  31
ENDBRANCH  25  26
ENDBRANCH   1  25
TORSDOF 8
