REMARK  Name = ZINC39672306
REMARK  7 active torsions:
REMARK  status: ('A' for Active; 'I' for Inactive)
REMARK    1  A    between atoms: C_1  and  C_2
REMARK    2  A    between atoms: C_5  and  C_8
REMARK    3  A    between atoms: C_8  and  C_9
REMARK    4  A    between atoms: C_13  and  C_22
REMARK    5  A    between atoms: N_24  and  C_25
REMARK    6  A    between atoms: C_25  and  C_26
REMARK    7  A    between atoms: N_35  and  C_36
REMARK                            x       y       z     vdW  Elec       q    Type
REMARK                         _______ _______ _______ _____ _____    ______ ____
ROOT
ATOM      1  C   UNL     1       1.637  -4.779   0.007  0.00  0.00    +0.220 C 
ATOM      2  O   UNL     1       2.566  -4.001  -0.045  0.00  0.00    -0.275 OA
ATOM      3  N   UNL     1       1.866  -6.106  -0.035  0.00  0.00    -0.300 N 
ATOM      4  C   UNL     1       0.870  -7.202   0.009  0.00  0.00    +0.121 C 
ATOM      5  C   UNL     1       1.397  -8.250  -0.997  0.00  0.00    +0.100 C 
ATOM      6  C   UNL     1       2.909  -7.982  -1.087  0.00  0.00    -0.004 C 
ATOM      7  C   UNL     1       3.172  -6.800  -0.143  0.00  0.00    +0.115 C 
ATOM      8  C   UNL     1       3.295  -7.606  -2.514  0.00  0.00    -0.010 C 
ATOM      9  C   UNL     1       4.810  -7.400  -2.590  0.00  0.00    -0.082 C 
ATOM     10  N   UNL     1       5.494  -8.634  -2.186  0.00  0.00    +0.379 N 
ATOM     11  C   UNL     1       5.191  -8.938  -0.782  0.00  0.00    -0.082 C 
ATOM     12  C   UNL     1       3.691  -9.209  -0.630  0.00  0.00    -0.010 C 
ATOM     13  H   UNL     1       5.183  -9.396  -2.769  0.00  0.00    -0.086 HD
ATOM     14  H   UNL     1       6.491  -8.516  -2.295  0.00  0.00    -0.086 HD
ENDROOT
BRANCH   5  15
ATOM     15  C   UNL     1       1.138  -9.644  -0.487  0.00  0.00    +0.218 C 
ATOM     16  O   UNL     1       1.127  -9.860   0.706  0.00  0.00    -0.275 OA
ATOM     17  N   UNL     1       0.919 -10.650  -1.356  0.00  0.00    -0.311 N 
ATOM     18  H   UNL     1       0.928 -10.477  -2.311  0.00  0.00    +0.149 HD
BRANCH  17  19
ATOM     19  C   UNL     1       0.668 -12.005  -0.860  0.00  0.00    +0.139 C 
BRANCH  19  20
ATOM     20  C   UNL     1       0.456 -12.936  -2.026  0.00  0.00    -0.030 A 
ATOM     21  C   UNL     1      -0.816 -13.128  -2.534  0.00  0.00    +0.007 A 
ATOM     22  C   UNL     1      -1.010 -13.982  -3.601  0.00  0.00    +0.024 A 
ATOM     23  C   UNL     1       0.073 -14.647  -4.166  0.00  0.00    +0.033 A 
ATOM     24  C   UNL     1       1.348 -14.451  -3.659  0.00  0.00    -0.026 A 
ATOM     25  C   UNL     1       1.534 -13.591  -2.590  0.00  0.00    +0.010 A 
ATOM     26  C   UNL     1       2.546 -15.146  -4.252  0.00  0.00    +0.038 C 
ATOM     27  C   UNL     1       2.111 -16.381  -5.042  0.00  0.00    +0.024 C 
ATOM     28  C   UNL     1       1.007 -15.976  -6.027  0.00  0.00    +0.105 C 
ATOM     29  N   UNL     1      -0.146 -15.511  -5.244  0.00  0.00    -0.333 N 
ATOM     30  C   UNL     1      -1.502 -15.947  -5.586  0.00  0.00    +0.129 C 
ENDBRANCH  19  20
ENDBRANCH  17  19
ENDBRANCH   5  15
BRANCH   1  31
ATOM     31  C   UNL     1       0.226  -4.261   0.119  0.00  0.00    +0.131 C 
BRANCH  31  36
ATOM     32  C   UNL     1       0.293   1.516   0.227  0.00  0.00    +0.044 C 
ATOM     33  C   UNL     1       0.275   0.009   0.199  0.00  0.00    -0.050 A 
ATOM     34  C   UNL     1       0.182  -0.658  -1.008  0.00  0.00    +0.003 A 
ATOM     35  C   UNL     1       0.166  -2.040  -1.034  0.00  0.00    +0.004 A 
ATOM     36  C   UNL     1       0.244  -2.755   0.147  0.00  0.00    -0.039 A 
ATOM     37  C   UNL     1       0.338  -2.087   1.354  0.00  0.00    +0.004 A 
ATOM     38  C   UNL     1       0.358  -0.705   1.379  0.00  0.00    +0.003 A 
ENDBRANCH  31  36
ENDBRANCH   1  31
TORSDOF 5
