REMARK  Name = ZINC09155431
REMARK  8 active torsions:
REMARK  status: ('A' for Active; 'I' for Inactive)
REMARK    1  A    between atoms: C_1  and  N_2
REMARK    2  A    between atoms: N_2  and  C_3
REMARK    3  A    between atoms: C_3  and  C_4
REMARK    4  A    between atoms: C_7  and  C_9
REMARK    5  A    between atoms: C_16  and  C_18
REMARK    6  A    between atoms: C_18  and  N_19
REMARK    7  A    between atoms: C_22  and  C_27
REMARK    8  A    between atoms: C_27  and  C_28
REMARK                            x       y       z     vdW  Elec       q    Type
REMARK                         _______ _______ _______ _____ _____    ______ ____
ROOT
ATOM      1  N   UNL     1      -3.660   5.206  -2.068  0.00  0.00    -0.216 N 
ATOM      2  C   UNL     1      -2.494   5.175  -1.394  0.00  0.00    +0.244 C 
ATOM      3  O   UNL     1      -1.910   6.114  -0.897  0.00  0.00    -0.273 OA
ATOM      4  C   UNL     1      -2.063   3.721  -1.387  0.00  0.00    +0.165 C 
ATOM      5  N   UNL     1      -3.139   3.038  -2.127  0.00  0.00    -0.287 N 
ATOM      6  C   UNL     1      -4.024   3.987  -2.483  0.00  0.00    +0.310 C 
ATOM      7  O   UNL     1      -5.040   3.762  -3.111  0.00  0.00    -0.252 OA
ATOM      8  H   UNL     1      -3.197   2.090  -2.320  0.00  0.00    +0.151 HD
ENDROOT
BRANCH   1   9
ATOM      9  C   UNL     1      -4.435   6.425  -2.315  0.00  0.00    +0.213 C 
BRANCH   9  12
ATOM     10  C   UNL     1      -5.630   8.815  -3.259  0.00  0.00    +0.132 C 
ATOM     11  N   UNL     1      -4.572   8.182  -4.051  0.00  0.00    -0.296 N 
ATOM     12  C   UNL     1      -3.994   7.045  -3.616  0.00  0.00    +0.234 C 
ATOM     13  O   UNL     1      -3.118   6.521  -4.271  0.00  0.00    -0.274 OA
BRANCH  11  14
ATOM     14  C   UNL     1      -4.143   8.785  -5.315  0.00  0.00    +0.181 C 
BRANCH  14  15
ATOM     15  C   UNL     1      -4.973   8.229  -6.444  0.00  0.00    +0.123 A 
ATOM     16  C   UNL     1      -6.135   8.743  -6.891  0.00  0.00    +0.047 A 
ATOM     17  C   UNL     1      -6.569   7.921  -7.950  0.00  0.00    +0.050 A 
ATOM     18  C   UNL     1      -5.642   6.937  -8.088  0.00  0.00    +0.135 A 
ATOM     19  O   UNL     1      -4.679   7.136  -7.167  0.00  0.00    -0.458 OA
BRANCH  18  20
ATOM     20  C   UNL     1      -5.682   5.838  -9.076  0.00  0.00    +0.017 A 
ATOM     21  C   UNL     1      -6.746   5.744  -9.975  0.00  0.00    +0.013 A 
ATOM     22  C   UNL     1      -6.776   4.719 -10.897  0.00  0.00    +0.021 A 
ATOM     23  C   UNL     1      -5.759   3.779 -10.927  0.00  0.00    +0.041 A 
ATOM     24  C   UNL     1      -4.704   3.865 -10.034  0.00  0.00    +0.021 A 
ATOM     25  C   UNL     1      -4.660   4.888  -9.110  0.00  0.00    +0.013 A 
ATOM     26 CL   UNL     1      -5.808   2.489 -12.087  0.00  0.00    -0.084 Cl
ENDBRANCH  18  20
ENDBRANCH  14  15
ENDBRANCH  11  14
ENDBRANCH   9  12
ENDBRANCH   1   9
BRANCH   4  27
ATOM     27  C   UNL     1      -1.976   3.193   0.046  0.00  0.00    +0.069 C 
BRANCH  27  28
ATOM     28  C   UNL     1      -1.430   1.788   0.031  0.00  0.00    -0.020 A 
ATOM     29  C   UNL     1      -2.147   0.653   0.026  0.00  0.00    +0.087 A 
ATOM     30  N   UNL     1      -1.308  -0.428   0.012  0.00  0.00    -0.360 N 
ATOM     31  H   UNL     1      -1.594  -1.355   0.010  0.00  0.00    +0.165 HD
ATOM     32  C   UNL     1       0.002  -0.004   0.002  0.00  0.00    +0.047 A 
ATOM     33  C   UNL     1      -0.017   1.403   0.010  0.00  0.00    +0.003 A 
ATOM     34  C   UNL     1       1.183   2.116   0.002  0.00  0.00    +0.010 A 
ATOM     35  C   UNL     1       2.372   1.442  -0.012  0.00  0.00    +0.001 A 
ATOM     36  C   UNL     1       2.396   0.055  -0.020  0.00  0.00    +0.002 A 
ATOM     37  C   UNL     1       1.224  -0.669  -0.013  0.00  0.00    +0.026 A 
ENDBRANCH  27  28
ENDBRANCH   4  27
TORSDOF 7
