REMARK  Name = ZINC12994326
REMARK  3 active torsions:
REMARK  status: ('A' for Active; 'I' for Inactive)
REMARK    1  A    between atoms: C_5  and  C_7
REMARK    2  A    between atoms: C_8  and  C_9
REMARK    3  A    between atoms: C_15  and  C_17
REMARK                            x       y       z     vdW  Elec       q    Type
REMARK                         _______ _______ _______ _____ _____    ______ ____
ROOT
ATOM      1  C   UNL     1      -2.126  -0.204   2.199  0.00  0.00    +0.240 C 
ATOM      2  O   UNL     1      -1.982   0.853   2.784  0.00  0.00    -0.271 OA
ATOM      3  N   UNL     1      -2.382  -0.213   0.876  0.00  0.00    -0.291 N 
ATOM      4  C   UNL     1      -2.579  -1.416   0.047  0.00  0.00    +0.109 C 
ATOM      5  C   UNL     1      -3.422  -0.933  -1.160  0.00  0.00    +0.021 C 
ATOM      6  C   UNL     1      -2.832   0.481  -1.406  0.00  0.00    +0.029 C 
ATOM      7  C   UNL     1      -2.513   0.976   0.020  0.00  0.00    +0.107 C 
ENDROOT
BRANCH   7   8
ATOM      8  C   UNL     1      -1.220   1.750   0.017  0.00  0.00    -0.023 A 
ATOM      9  C   UNL     1      -0.013   1.076   0.008  0.00  0.00    +0.009 A 
ATOM     10  C   UNL     1       1.175   1.782   0.000  0.00  0.00    +0.050 A 
ATOM     11  C   UNL     1       1.160   3.169   0.008  0.00  0.00    +0.162 A 
ATOM     12  C   UNL     1      -0.054   3.846   0.020  0.00  0.00    +0.162 A 
ATOM     13  C   UNL     1      -1.243   3.131   0.029  0.00  0.00    +0.055 A 
ATOM     14  O   UNL     1      -0.092   5.207   0.023  0.00  0.00    -0.485 OA
ATOM     15  C   UNL     1       1.113   5.883   0.395  0.00  0.00    +0.270 C 
ATOM     16  C   UNL     1       2.281   5.233  -0.359  0.00  0.00    +0.270 C 
ATOM     17  O   UNL     1       2.338   3.850   0.008  0.00  0.00    -0.485 OA
ENDBRANCH   7   8
BRANCH   1  19
ATOM     18  C   UNL     1      -1.765  -1.458   4.256  0.00  0.00    +0.014 C 
ATOM     19  C   UNL     1      -2.022  -1.467   2.933  0.00  0.00    +0.068 C 
BRANCH  18  24
ATOM     20  C   UNL     1      -1.726  -5.129   5.023  0.00  0.00    +0.001 A 
ATOM     21  C   UNL     1      -1.463  -5.117   6.383  0.00  0.00    +0.001 A 
ATOM     22  C   UNL     1      -1.298  -3.917   7.052  0.00  0.00    +0.016 A 
ATOM     23  C   UNL     1      -1.394  -2.722   6.368  0.00  0.00    +0.025 A 
ATOM     24  C   UNL     1      -1.660  -2.727   4.994  0.00  0.00    -0.011 A 
ATOM     25  C   UNL     1      -1.831  -3.944   4.327  0.00  0.00    +0.009 A 
ATOM     26 BR   UNL     1      -1.168  -1.084   7.284  0.00  0.00    -0.050 Br
ENDBRANCH  18  24
ENDBRANCH   1  19
TORSDOF 3
