REMARK  Name = ZINC40615598
REMARK  9 active torsions:
REMARK  status: ('A' for Active; 'I' for Inactive)
REMARK    1  A    between atoms: C_1  and  C_2
REMARK    2  A    between atoms: C_5  and  C_8
REMARK    3  A    between atoms: C_8  and  C_10
REMARK    4  A    between atoms: C_8  and  N_23
REMARK    5  A    between atoms: C_10  and  N_11
REMARK    6  A    between atoms: N_11  and  S_12
REMARK    7  A    between atoms: S_12  and  C_15
REMARK    8  A    between atoms: C_16  and  C_22
REMARK    9  A    between atoms: C_20  and  C_21
REMARK                            x       y       z     vdW  Elec       q    Type
REMARK                         _______ _______ _______ _____ _____    ______ ____
ROOT
ATOM      1  C   UNL     1       0.088  -4.411  -0.109  0.00  0.00    -0.022 C 
ENDROOT
BRANCH   1   6
ATOM      2  C   UNL     1       0.619   1.338   0.150  0.00  0.00    +0.044 C 
ATOM      3  C   UNL     1       0.481  -0.162   0.083  0.00  0.00    -0.050 A 
ATOM      4  C   UNL     1       0.442  -0.797  -1.144  0.00  0.00    +0.003 A 
ATOM      5  C   UNL     1       0.315  -2.173  -1.206  0.00  0.00    +0.002 A 
ATOM      6  C   UNL     1       0.227  -2.912  -0.041  0.00  0.00    -0.060 A 
ATOM      7  C   UNL     1       0.267  -2.276   1.186  0.00  0.00    +0.002 A 
ATOM      8  C   UNL     1       0.399  -0.901   1.248  0.00  0.00    +0.003 A 
ENDBRANCH   1   6
BRANCH   1   9
ATOM      9  N   UNL     1       0.908  -5.027   0.943  0.00  0.00    +0.385 N 
ATOM     10  C   UNL     1       2.302  -4.590   0.793  0.00  0.00    -0.078 C 
ATOM     11  C   UNL     1       3.145  -5.164   1.933  0.00  0.00    -0.019 C 
ATOM     12  C   UNL     1       3.080  -6.694   1.889  0.00  0.00    -0.004 C 
ATOM     13  C   UNL     1       1.616  -7.135   1.972  0.00  0.00    -0.019 C 
ATOM     14  C   UNL     1       0.829  -6.488   0.830  0.00  0.00    -0.078 C 
ATOM     15  H   UNL     1       0.564  -4.741   1.847  0.00  0.00    -0.081 HD
ENDBRANCH   1   9
BRANCH   1  16
ATOM     16  C   UNL     1      -1.378  -4.796   0.097  0.00  0.00    +0.095 C 
BRANCH  16  17
ATOM     17  N   UNL     1      -2.181  -4.271  -1.010  0.00  0.00    -0.191 NA
ATOM     18  H   UNL     1      -1.820  -3.578  -1.585  0.00  0.00    +0.148 HD
BRANCH  17  19
ATOM     19  S   UNL     1      -3.705  -4.859  -1.280  0.00  0.00    +0.062 S 
ATOM     20  O   UNL     1      -4.228  -4.141  -2.389  0.00  0.00    -0.153 OA
ATOM     21  O   UNL     1      -3.601  -6.277  -1.271  0.00  0.00    -0.153 OA
BRANCH  19  22
ATOM     22  C   UNL     1      -4.689  -4.418   0.114  0.00  0.00    +0.148 A 
ATOM     23  C   UNL     1      -4.854  -5.154   1.237  0.00  0.00    +0.060 A 
ATOM     24  N   UNL     1      -5.677  -4.471   2.060  0.00  0.00    -0.280 N 
ATOM     25  H   UNL     1      -5.972  -4.757   2.938  0.00  0.00    +0.189 HD
ATOM     26  N   UNL     1      -6.030  -3.275   1.421  0.00  0.00    -0.177 NA
ATOM     27  C   UNL     1      -5.432  -3.242   0.257  0.00  0.00    +0.086 A 
ATOM     28  C   UNL     1      -5.532  -2.130  -0.756  0.00  0.00    +0.069 C 
ATOM     29  C   UNL     1      -4.229  -6.497   1.519  0.00  0.00    +0.067 C 
ENDBRANCH  19  22
ENDBRANCH  17  19
ENDBRANCH  16  17
ENDBRANCH   1  16
TORSDOF 6
