REMARK  Name = ZINC12374892
REMARK  4 active torsions:
REMARK  status: ('A' for Active; 'I' for Inactive)
REMARK    1  A    between atoms: C_3  and  C_6
REMARK    2  A    between atoms: C_9  and  C_35
REMARK    3  A    between atoms: C_13  and  C_16
REMARK    4  A    between atoms: N_21  and  C_24
REMARK                            x       y       z     vdW  Elec       q    Type
REMARK                         _______ _______ _______ _____ _____    ______ ____
ROOT
ATOM      1  C   UNL     1       1.401  -0.452  -0.287  0.00  0.00    +0.140 C 
ATOM      2  C   UNL     1       2.043  -0.095   1.058  0.00  0.00    +0.066 C 
ATOM      3  C   UNL     1       2.506  -1.373   1.768  0.00  0.00    +0.215 C 
ATOM      4  N   UNL     1       3.288  -2.181   0.826  0.00  0.00    -0.238 N 
ATOM      5  C   UNL     1       3.232  -2.030  -0.518  0.00  0.00    +0.130 A 
ATOM      6  C   UNL     1       4.097  -2.952  -1.078  0.00  0.00    +0.096 A 
ATOM      7  C   UNL     1       4.679  -3.671  -0.004  0.00  0.00    +0.149 A 
ATOM      8  N   UNL     1       4.191  -3.203   1.113  0.00  0.00    -0.177 NA
ATOM      9  N   UNL     1       2.420  -1.093  -1.141  0.00  0.00    -0.319 N 
ATOM     10  H   UNL     1       2.516  -0.870  -2.081  0.00  0.00    +0.148 HD
ENDROOT
BRANCH   6  11
ATOM     11  C   UNL     1       4.361  -3.149  -2.509  0.00  0.00    +0.251 C 
ATOM     12  O   UNL     1       4.405  -2.190  -3.257  0.00  0.00    -0.270 OA
ATOM     13  N   UNL     1       4.555  -4.391  -2.993  0.00  0.00    -0.301 N 
ATOM     14  C   UNL     1       4.388  -5.573  -2.134  0.00  0.00    +0.089 C 
ATOM     15  C   UNL     1       3.470  -6.569  -2.850  0.00  0.00    -0.059 C 
ATOM     16  N   UNL     1       4.011  -6.861  -4.183  0.00  0.00    +0.385 N 
ATOM     17  C   UNL     1       3.995  -5.645  -5.007  0.00  0.00    -0.059 C 
ATOM     18  C   UNL     1       4.934  -4.604  -4.399  0.00  0.00    +0.089 C 
ATOM     19  H   UNL     1       4.960  -7.193  -4.094  0.00  0.00    -0.081 HD
BRANCH  16  20
ATOM     20  C   UNL     1       3.192  -7.897  -4.827  0.00  0.00    -0.065 C 
ATOM     21  C   UNL     1       1.751  -7.399  -4.958  0.00  0.00    -0.009 C 
ATOM     22  C   UNL     1       0.898  -8.479  -5.628  0.00  0.00    -0.012 C 
ATOM     23  C   UNL     1       1.461  -8.784  -7.018  0.00  0.00    +0.007 C 
ATOM     24  C   UNL     1       2.902  -9.282  -6.886  0.00  0.00    -0.012 C 
ATOM     25  C   UNL     1       3.755  -8.203  -6.216  0.00  0.00    -0.009 C 
ATOM     26  C   UNL     1       2.927 -10.553  -6.035  0.00  0.00    +0.007 C 
ATOM     27  C   UNL     1       2.364 -10.247  -4.645  0.00  0.00    -0.012 C 
ATOM     28  C   UNL     1       0.923  -9.750  -4.777  0.00  0.00    +0.007 C 
ATOM     29  C   UNL     1       3.217  -9.168  -3.975  0.00  0.00    -0.009 C 
ENDBRANCH  16  20
ENDBRANCH   6  11
BRANCH   1  32
ATOM     30  C   UNL     1      -1.769  -2.270   0.196  0.00  0.00    +0.041 A 
ATOM     31  C   UNL     1      -1.049  -1.076  -0.042  0.00  0.00    +0.046 A 
ATOM     32  C   UNL     1       0.255  -1.405  -0.064  0.00  0.00    +0.125 A 
ATOM     33  O   UNL     1       0.363  -2.728   0.145  0.00  0.00    -0.466 OA
ATOM     34  C   UNL     1      -0.861  -3.257   0.303  0.00  0.00    +0.195 A 
ENDBRANCH   1  32
BRANCH   3  35
ATOM     35  C   UNL     1       3.373  -1.004   2.973  0.00  0.00    +0.412 C 
ATOM     36  F   UNL     1       2.627  -0.222   3.862  0.00  0.00    -0.168 F 
ATOM     37  F   UNL     1       3.795  -2.171   3.619  0.00  0.00    -0.168 F 
ATOM     38  F   UNL     1       4.490  -0.281   2.541  0.00  0.00    -0.168 F 
ENDBRANCH   3  35
TORSDOF 4
