REMARK  Name = ZINC14744707
REMARK  7 active torsions:
REMARK  status: ('A' for Active; 'I' for Inactive)
REMARK    1  A    between atoms: C_1  and  C_2
REMARK    2  A    between atoms: N_4  and  C_5
REMARK    3  A    between atoms: C_8  and  C_10
REMARK    4  A    between atoms: C_10  and  N_61
REMARK    5  A    between atoms: C_16  and  C_21
REMARK    6  A    between atoms: N_19  and  C_20
REMARK    7  A    between atoms: C_25  and  C_27
REMARK                            x       y       z     vdW  Elec       q    Type
REMARK                         _______ _______ _______ _____ _____    ______ ____
ROOT
ATOM      1  C   UNL     1       5.537   2.690   1.394  0.00  0.00    -0.072 C 
ATOM      2  C   UNL     1       5.808   3.130   2.832  0.00  0.00    +0.035 C 
ATOM      3  C   UNL     1       5.608   1.970   3.776  0.00  0.00    +0.021 A 
ATOM      4  C   UNL     1       4.928   0.862   3.407  0.00  0.00    -0.044 A 
ATOM      5  C   UNL     1       4.756  -0.190   4.321  0.00  0.00    +0.017 A 
ATOM      6  C   UNL     1       5.290  -0.084   5.593  0.00  0.00    +0.047 A 
ATOM      7  C   UNL     1       6.000   1.092   5.936  0.00  0.00    +0.259 A 
ATOM      8  O   UNL     1       6.484   1.214   7.049  0.00  0.00    -0.267 OA
ATOM      9  N   UNL     1       6.138   2.073   5.029  0.00  0.00    -0.315 N 
ATOM     10  C   UNL     1       6.877   3.285   5.394  0.00  0.00    +0.152 C 
ATOM     11  C   UNL     1       4.335   0.704   2.031  0.00  0.00    -0.041 C 
ATOM     12  N   UNL     1       4.224   2.015   1.373  0.00  0.00    +0.386 N 
ATOM     13  H   UNL     1       3.542   2.590   1.882  0.00  0.00    -0.081 HD
ENDROOT
BRANCH   6  14
ATOM     14  C   UNL     1       5.122  -1.179   6.577  0.00  0.00    -0.012 A 
ATOM     15  C   UNL     1       3.851  -1.503   7.052  0.00  0.00    +0.009 A 
ATOM     16  C   UNL     1       3.693  -2.526   7.966  0.00  0.00    +0.001 A 
ATOM     17  C   UNL     1       4.792  -3.229   8.421  0.00  0.00    +0.008 A 
ATOM     18  C   UNL     1       6.067  -2.911   7.957  0.00  0.00    -0.017 A 
ATOM     19  C   UNL     1       6.233  -1.884   7.033  0.00  0.00    +0.017 A 
BRANCH  18  20
ATOM     20  C   UNL     1       7.247  -3.666   8.448  0.00  0.00    -0.018 A 
ATOM     21  C   UNL     1       8.521  -3.353   7.982  0.00  0.00    +0.008 A 
ATOM     22  C   UNL     1       9.615  -4.055   8.446  0.00  0.00    +0.001 A 
ATOM     23  C   UNL     1       9.446  -5.075   9.365  0.00  0.00    +0.000 A 
ATOM     24  C   UNL     1       8.182  -5.394   9.828  0.00  0.00    +0.001 A 
ATOM     25  C   UNL     1       7.082  -4.695   9.374  0.00  0.00    +0.008 A 
ENDBRANCH  18  20
ENDBRANCH   6  14
BRANCH  12  26
ATOM     26  C   UNL     1       3.762   1.844  -0.024  0.00  0.00    -0.035 C 
BRANCH  26  30
ATOM     27  C   UNL     1       0.002  -0.004   0.002  0.00  0.00    +0.072 A 
ATOM     28  C   UNL     1      -0.016   1.358   0.009  0.00  0.00    +0.031 A 
ATOM     29  C   UNL     1       1.186   2.041   0.002  0.00  0.00    +0.011 A 
ATOM     30  C   UNL     1       2.343   1.336  -0.013  0.00  0.00    -0.025 A 
ATOM     31  S   UNL     1       1.754  -0.349  -0.017  0.00  0.00    -0.080 S 
BRANCH  27  35
ATOM     32  C   UNL     1      -1.999  -3.192   0.003  0.00  0.00    +0.109 C 
ATOM     33  C   UNL     1      -0.841  -2.227  -0.002  0.00  0.00    +0.214 C 
ATOM     34  O   UNL     1       0.297  -2.645  -0.015  0.00  0.00    -0.276 OA
ATOM     35  N   UNL     1      -1.071  -0.899   0.007  0.00  0.00    -0.280 N 
ATOM     36  H   UNL     1      -1.982  -0.564   0.017  0.00  0.00    +0.155 HD
ENDBRANCH  27  35
ENDBRANCH  26  30
ENDBRANCH  12  26
TORSDOF 5
