REMARK  Name = ZINC00675443
REMARK  7 active torsions:
REMARK  status: ('A' for Active; 'I' for Inactive)
REMARK    1  A    between atoms: C_1  and  C_2
REMARK    2  A    between atoms: C_2  and  O_3
REMARK    3  A    between atoms: O_3  and  C_4
REMARK    4  A    between atoms: C_6  and  C_11
REMARK    5  A    between atoms: C_9  and  O_10
REMARK    6  A    between atoms: C_29  and  C_31
REMARK    7  A    between atoms: C_29  and  C_32
REMARK                            x       y       z     vdW  Elec       q    Type
REMARK                         _______ _______ _______ _____ _____    ______ ____
ROOT
ATOM      1  C   UNL     1      -1.192  -2.027  -0.710  0.00  0.00    +0.128 C 
ATOM      2  C   UNL     1       0.022  -2.826  -0.296  0.00  0.00    -0.034 C 
ATOM      3  C   UNL     1       1.152  -2.185   0.068  0.00  0.00    +0.028 C 
ATOM      4  C   UNL     1       1.206  -0.709  -0.023  0.00  0.00    +0.014 A 
ATOM      5  C   UNL     1       2.408   0.013  -0.173  0.00  0.00    -0.008 A 
ATOM      6  C   UNL     1       3.626  -0.605  -0.492  0.00  0.00    +0.009 A 
ATOM      7  C   UNL     1       4.781   0.117  -0.473  0.00  0.00    +0.001 A 
ATOM      8  C   UNL     1       4.767   1.482  -0.192  0.00  0.00    +0.001 A 
ATOM      9  C   UNL     1       3.590   2.140  -0.008  0.00  0.00    +0.008 A 
ATOM     10  C   UNL     1       2.379   1.428  -0.058  0.00  0.00    -0.017 A 
ATOM     11  C   UNL     1       1.144   2.099   0.002  0.00  0.00    +0.010 A 
ATOM     12  C   UNL     1      -0.017   1.389   0.010  0.00  0.00    +0.024 A 
ATOM     13  C   UNL     1       0.002  -0.004   0.002  0.00  0.00    +0.036 A 
ATOM     14  N   UNL     1      -1.185  -0.742   0.001  0.00  0.00    -0.333 N 
ATOM     15  C   UNL     1       2.286  -2.949   0.611  0.00  0.00    +0.164 C 
ATOM     16  O   UNL     1       3.244  -2.379   1.105  0.00  0.00    -0.292 OA
ATOM     17  C   UNL     1       2.264  -4.459   0.591  0.00  0.00    +0.086 C 
ATOM     18  C   UNL     1       1.322  -4.947  -0.512  0.00  0.00    -0.024 C 
ATOM     19  C   UNL     1      -0.058  -4.328  -0.311  0.00  0.00    +0.040 C 
ATOM     20  C   UNL     1       1.872  -4.561  -1.886  0.00  0.00    +0.011 C 
ATOM     21  C   UNL     1       1.200  -6.474  -0.433  0.00  0.00    +0.011 C 
ATOM     22  H   UNL     1      -1.976  -0.417   0.453  0.00  0.00    +0.147 HD
ENDROOT
BRANCH   1  25
ATOM     23  C   UNL     1      -1.899  -2.339  -4.408  0.00  0.00    +0.162 A 
ATOM     24  C   UNL     1      -1.927  -2.563  -3.041  0.00  0.00    +0.055 A 
ATOM     25  C   UNL     1      -1.160  -1.782  -2.196  0.00  0.00    -0.020 A 
ATOM     26  C   UNL     1      -0.368  -0.773  -2.712  0.00  0.00    +0.009 A 
ATOM     27  C   UNL     1      -0.331  -0.548  -4.075  0.00  0.00    +0.049 A 
ATOM     28  C   UNL     1      -1.097  -1.327  -4.927  0.00  0.00    +0.158 A 
BRANCH  28  29
ATOM     29  O   UNL     1      -1.066  -1.103  -6.268  0.00  0.00    -0.503 OA
ATOM     30  H   UNL     1      -1.726  -0.467  -6.576  0.00  0.00    +0.292 HD
ENDBRANCH  28  29
BRANCH  23  31
ATOM     31  O   UNL     1      -2.652  -3.107  -5.240  0.00  0.00    -0.489 OA
BRANCH  31  33
ATOM     32  C   UNL     1      -4.222  -4.880  -5.722  0.00  0.00    +0.048 C 
ATOM     33  C   UNL     1      -3.451  -4.127  -4.636  0.00  0.00    +0.226 C 
ENDBRANCH  31  33
ENDBRANCH  23  31
ENDBRANCH   1  25
TORSDOF 4
