REMARK  Name = ZINC39729568
REMARK  5 active torsions:
REMARK  status: ('A' for Active; 'I' for Inactive)
REMARK    1  A    between atoms: C_1  and  C_2
REMARK    2  A    between atoms: C_2  and  C_3
REMARK    3  A    between atoms: C_2  and  N_14
REMARK    4  A    between atoms: C_3  and  C_5
REMARK    5  A    between atoms: C_17  and  N_20
REMARK                            x       y       z     vdW  Elec       q    Type
REMARK                         _______ _______ _______ _____ _____    ______ ____
ROOT
ATOM      1  N   UNL     1       0.713  -0.491   1.192  0.00  0.00    -0.293 NA
ATOM      2  C   UNL     1       2.050   0.107   1.288  0.00  0.00    +0.087 C 
ATOM      3  C   UNL     1       2.813  -0.529   2.452  0.00  0.00    +0.040 C 
ATOM      4  C   UNL     1       2.036  -0.298   3.751  0.00  0.00    +0.095 C 
ATOM      5  C   UNL     1       0.631  -0.888   3.608  0.00  0.00    +0.040 C 
ATOM      6  C   UNL     1      -0.069  -0.241   2.410  0.00  0.00    +0.087 C 
ENDROOT
BRANCH   4   7
ATOM      7  N   UNL     1       2.732  -0.955   4.861  0.00  0.00    -0.289 N 
ATOM      8  C   UNL     1       3.229  -0.325   5.999  0.00  0.00    +0.070 A 
ATOM      9  C   UNL     1       3.237   0.993   6.430  0.00  0.00    +0.028 A 
ATOM     10  C   UNL     1       3.821   1.318   7.638  0.00  0.00    +0.002 A 
ATOM     11  C   UNL     1       4.399   0.333   8.421  0.00  0.00    +0.002 A 
ATOM     12  C   UNL     1       4.397  -0.982   8.000  0.00  0.00    +0.028 A 
ATOM     13  C   UNL     1       3.812  -1.318   6.789  0.00  0.00    +0.067 A 
ATOM     14  N   UNL     1       3.651  -2.521   6.106  0.00  0.00    -0.306 N 
ATOM     15  H   UNL     1       3.956  -3.391   6.408  0.00  0.00    +0.170 HD
ATOM     16  C   UNL     1       2.995  -2.272   4.956  0.00  0.00    +0.328 A 
ATOM     17  O   UNL     1       2.690  -3.110   4.128  0.00  0.00    -0.247 OA
ENDBRANCH   4   7
BRANCH   1  19
ATOM     18  C   UNL     1      -0.019   1.526   0.010  0.00  0.00    +0.032 C 
ATOM     19  C   UNL     1       0.002  -0.004   0.002  0.00  0.00    +0.125 C 
BRANCH  19  20
ATOM     20  C   UNL     1       0.707  -0.490  -1.238  0.00  0.00    +0.178 C 
ATOM     21  O   UNL     1       1.835  -0.934  -1.160  0.00  0.00    -0.291 OA
BRANCH  20  22
ATOM     22  C   UNL     1       0.058  -0.429  -2.489  0.00  0.00    +0.025 C 
ATOM     23  C   UNL     1       0.559  -0.836  -3.712  0.00  0.00    +0.006 A 
ATOM     24  C   UNL     1       1.792  -1.406  -4.106  0.00  0.00    +0.010 A 
ATOM     25  C   UNL     1       2.019  -1.712  -5.403  0.00  0.00    +0.001 A 
ATOM     26  C   UNL     1       1.065  -1.486  -6.408  0.00  0.00    +0.002 A 
ATOM     27  C   UNL     1      -0.143  -0.946  -6.139  0.00  0.00    +0.026 A 
ATOM     28  C   UNL     1      -0.471  -0.584  -4.750  0.00  0.00    +0.043 A 
ATOM     29  N   UNL     1      -1.538  -0.059  -4.217  0.00  0.00    -0.380 N 
ATOM     30  C   UNL     1      -1.335   0.089  -2.772  0.00  0.00    +0.152 C 
ATOM     31  H   UNL     1      -2.341   0.191  -4.699  0.00  0.00    +0.160 HD
ENDBRANCH  20  22
ENDBRANCH  19  20
ENDBRANCH   1  19
TORSDOF 4
