REMARK  Name = ZINC02431591
REMARK  7 active torsions:
REMARK  status: ('A' for Active; 'I' for Inactive)
REMARK    1  A    between atoms: C_1  and  C_2
REMARK    2  A    between atoms: C_5  and  S_9
REMARK    3  A    between atoms: C_7  and  C_8
REMARK    4  A    between atoms: S_9  and  C_12
REMARK    5  A    between atoms: N_23  and  C_26
REMARK    6  A    between atoms: C_24  and  N_25
REMARK    7  A    between atoms: C_29  and  C_33
REMARK                            x       y       z     vdW  Elec       q    Type
REMARK                         _______ _______ _______ _____ _____    ______ ____
ROOT
ATOM      1  C   UNL     1       1.466   3.377   0.006  0.00  0.00    +0.160 A 
ATOM      2  C   UNL     1       1.126   2.002   0.002  0.00  0.00    +0.136 A 
ATOM      3  C   UNL     1       2.400   1.272  -0.015  0.00  0.00    +0.168 A 
ATOM      4  N   UNL     1       2.397  -0.042  -0.021  0.00  0.00    -0.225 NA
ATOM      5  C   UNL     1       1.233  -0.706  -0.013  0.00  0.00    +0.092 A 
ATOM      6  C   UNL     1       1.221  -2.113  -0.021  0.00  0.00    +0.030 A 
ATOM      7  C   UNL     1       0.035  -2.780  -0.013  0.00  0.00    +0.002 A 
ATOM      8  C   UNL     1      -1.175  -2.090   0.003  0.00  0.00    +0.002 A 
ATOM      9  C   UNL     1      -1.204  -0.730   0.010  0.00  0.00    +0.030 A 
ATOM     10  C   UNL     1       0.002  -0.004   0.002  0.00  0.00    +0.090 A 
ATOM     11  N   UNL     1      -0.016   1.333   0.009  0.00  0.00    -0.240 NA
ATOM     12  N   UNL     1       3.394   2.230  -0.019  0.00  0.00    -0.279 N 
ATOM     13  C   UNL     1       2.815   3.477  -0.007  0.00  0.00    +0.130 A 
ENDROOT
BRANCH  12  14
ATOM     14  C   UNL     1       4.771   1.972  -0.035  0.00  0.00    +0.051 A 
ATOM     15  C   UNL     1       5.350   1.351  -1.133  0.00  0.00    +0.026 A 
ATOM     16  C   UNL     1       6.708   1.098  -1.147  0.00  0.00    +0.007 A 
ATOM     17  C   UNL     1       7.491   1.463  -0.067  0.00  0.00    -0.032 A 
ATOM     18  C   UNL     1       6.917   2.082   1.030  0.00  0.00    +0.046 A 
ATOM     19  C   UNL     1       5.560   2.343   1.046  0.00  0.00    +0.046 A 
ATOM     20 CL   UNL     1       7.904   2.537   2.384  0.00  0.00    -0.083 Cl
ATOM     21  C   UNL     1       8.972   1.185  -0.084  0.00  0.00    +0.045 C 
ENDBRANCH  12  14
BRANCH   1  22
ATOM     22  S   UNL     1       0.329   4.723   0.023  0.00  0.00    +0.030 S 
ATOM     23  O   UNL     1      -0.879   4.227   0.583  0.00  0.00    -0.164 OA
ATOM     24  O   UNL     1       1.024   5.834   0.573  0.00  0.00    -0.164 OA
BRANCH  22  29
ATOM     25  C   UNL     1      -0.877   6.115  -5.723  0.00  0.00    +0.044 C 
ATOM     26  C   UNL     1      -0.576   5.768  -4.288  0.00  0.00    -0.047 A 
ATOM     27  C   UNL     1      -1.352   4.835  -3.625  0.00  0.00    +0.005 A 
ATOM     28  C   UNL     1      -1.076   4.516  -2.308  0.00  0.00    +0.027 A 
ATOM     29  C   UNL     1      -0.023   5.129  -1.655  0.00  0.00    +0.094 A 
ATOM     30  C   UNL     1       0.750   6.065  -2.316  0.00  0.00    +0.031 A 
ATOM     31  C   UNL     1       0.476   6.381  -3.634  0.00  0.00    -0.046 A 
ATOM     32  C   UNL     1       1.322   7.398  -4.356  0.00  0.00    +0.044 C 
ENDBRANCH  22  29
ENDBRANCH   1  22
BRANCH  13  33
ATOM     33  N   UNL     1       3.516   4.669  -0.007  0.00  0.00    -0.343 N 
ATOM     34  H   UNL     1       4.486   4.662  -0.016  0.00  0.00    +0.144 HD
ATOM     35  H   UNL     1       3.038   5.513   0.003  0.00  0.00    +0.144 HD
ENDBRANCH  13  33
TORSDOF 4
