REMARK  Name = ZINC04510893
REMARK  12 active torsions:
REMARK  status: ('A' for Active; 'I' for Inactive)
REMARK    1  A    between atoms: C_1  and  C_2
REMARK    2  A    between atoms: C_5  and  S_8
REMARK    3  A    between atoms: S_8  and  N_11
REMARK    4  A    between atoms: N_11  and  C_12
REMARK    5  A    between atoms: C_12  and  C_14
REMARK    6  A    between atoms: C_12  and  C_17
REMARK    7  A    between atoms: C_14  and  C_15
REMARK    8  A    between atoms: C_14  and  C_16
REMARK    9  A    between atoms: C_17  and  O_19
REMARK   10  A    between atoms: O_19  and  C_20
REMARK   11  A    between atoms: C_22  and  O_37
REMARK   12  A    between atoms: C_27  and  C_31
REMARK                            x       y       z     vdW  Elec       q    Type
REMARK                         _______ _______ _______ _____ _____    ______ ____
ROOT
ATOM      1  O   UNL     1       0.242  -3.190   2.480  0.00  0.00    -0.424 OA
ENDROOT
BRANCH   1   2
ATOM      2  C   UNL     1       0.107  -2.679   1.229  0.00  0.00    +0.139 A 
ATOM      3  C   UNL     1       1.076  -1.815   0.731  0.00  0.00    +0.092 A 
ATOM      4  C   UNL     1       0.949  -1.288  -0.542  0.00  0.00    +0.135 A 
ATOM      5  C   UNL     1      -0.165  -1.627  -1.320  0.00  0.00    +0.105 A 
ATOM      6  C   UNL     1      -0.343  -1.084  -2.677  0.00  0.00    +0.197 A 
ATOM      7  O   UNL     1       0.474  -0.322  -3.168  0.00  0.00    -0.287 OA
ATOM      8  C   UNL     1      -1.500  -1.482  -3.391  0.00  0.00    +0.098 A 
ATOM      9  C   UNL     1      -2.387  -2.332  -2.809  0.00  0.00    +0.139 A 
ATOM     10  O   UNL     1      -2.208  -2.828  -1.575  0.00  0.00    -0.454 OA
ATOM     11  C   UNL     1      -1.140  -2.505  -0.815  0.00  0.00    +0.146 A 
ATOM     12  C   UNL     1      -0.995  -3.022   0.463  0.00  0.00    +0.093 A 
BRANCH   9  13
ATOM     13  C   UNL     1      -3.587  -2.736  -3.570  0.00  0.00    +0.017 A 
ATOM     14  C   UNL     1      -3.800  -2.242  -4.858  0.00  0.00    +0.011 A 
ATOM     15  C   UNL     1      -4.920  -2.628  -5.565  0.00  0.00    +0.001 A 
ATOM     16  C   UNL     1      -5.837  -3.492  -4.995  0.00  0.00    +0.000 A 
ATOM     17  C   UNL     1      -5.636  -3.981  -3.716  0.00  0.00    +0.001 A 
ATOM     18  C   UNL     1      -4.517  -3.608  -3.001  0.00  0.00    +0.011 A 
ENDBRANCH   9  13
BRANCH   4  19
ATOM     19  O   UNL     1       1.894  -0.446  -1.030  0.00  0.00    -0.506 OA
ATOM     20  H   UNL     1       2.612  -0.890  -1.502  0.00  0.00    +0.292 HD
ENDBRANCH   4  19
ENDBRANCH   1   2
BRANCH   1  21
ATOM     21  C   UNL     1       0.147  -2.327   3.505  0.00  0.00    +0.331 C 
ATOM     22  O   UNL     1      -0.143  -1.172   3.298  0.00  0.00    -0.249 OA
BRANCH  21  23
ATOM     23  C   UNL     1       0.402  -2.798   4.913  0.00  0.00    +0.188 C 
BRANCH  23  24
ATOM     24  C   UNL     1       1.829  -3.341   5.019  0.00  0.00    +0.012 C 
ATOM     25  C   UNL     1       2.132  -3.699   6.475  0.00  0.00    +0.009 C 
ATOM     26  C   UNL     1       1.963  -4.593   4.148  0.00  0.00    +0.009 C 
ENDBRANCH  23  24
BRANCH  23  27
ATOM     27  N   UNL     1       0.237  -1.677   5.841  0.00  0.00    -0.176 NA
ATOM     28  H   UNL     1       0.966  -1.052   5.981  0.00  0.00    +0.149 HD
BRANCH  27  29
ATOM     29  S   UNL     1      -1.193  -1.476   6.652  0.00  0.00    +0.059 S 
ATOM     30  O   UNL     1      -1.025  -0.347   7.498  0.00  0.00    -0.153 OA
ATOM     31  O   UNL     1      -2.225  -1.552   5.678  0.00  0.00    -0.153 OA
BRANCH  29  36
ATOM     32  C   UNL     1      -1.880  -6.256  10.270  0.00  0.00    +0.044 C 
ATOM     33  C   UNL     1      -1.708  -5.062   9.366  0.00  0.00    -0.050 A 
ATOM     34  C   UNL     1      -1.140  -3.901   9.855  0.00  0.00    +0.005 A 
ATOM     35  C   UNL     1      -0.983  -2.806   9.027  0.00  0.00    +0.029 A 
ATOM     36  C   UNL     1      -1.393  -2.872   7.708  0.00  0.00    +0.105 A 
ATOM     37  C   UNL     1      -1.966  -4.032   7.220  0.00  0.00    +0.029 A 
ATOM     38  C   UNL     1      -2.119  -5.128   8.048  0.00  0.00    +0.005 A 
ENDBRANCH  29  36
ENDBRANCH  27  29
ENDBRANCH  23  27
ENDBRANCH  21  23
ENDBRANCH   1  21
TORSDOF 9
