REMARK  Name = ZINC63809692
REMARK  5 active torsions:
REMARK  status: ('A' for Active; 'I' for Inactive)
REMARK    1  A    between atoms: N_13  and  C_17
REMARK    2  A    between atoms: C_17  and  C_18
REMARK    3  A    between atoms: N_20  and  C_21
REMARK    4  A    between atoms: C_21  and  C_22
REMARK    5  A    between atoms: C_22  and  C_23
REMARK                            x       y       z     vdW  Elec       q    Type
REMARK                         _______ _______ _______ _____ _____    ______ ____
ROOT
ATOM      1  C   UNL     1      -0.017   1.375   0.010  0.00  0.00    +0.000 A 
ATOM      2  C   UNL     1       1.174   2.078   0.002  0.00  0.00    +0.000 A 
ATOM      3  C   UNL     1       2.373   1.395  -0.016  0.00  0.00    +0.006 A 
ATOM      4  C   UNL     1       2.394   0.006  -0.025  0.00  0.00    -0.012 A 
ATOM      5  C   UNL     1       1.207  -0.693  -0.013  0.00  0.00    -0.042 A 
ATOM      6  C   UNL     1       0.002  -0.004   0.002  0.00  0.00    +0.004 A 
ATOM      7  C   UNL     1       1.158  -2.199  -0.009  0.00  0.00    +0.035 C 
ATOM      8  C   UNL     1       2.489  -2.783  -0.478  0.00  0.00    +0.008 C 
ATOM      9  C   UNL     1       3.616  -2.145   0.344  0.00  0.00    +0.040 C 
ATOM     10  C   UNL     1       3.731  -0.679  -0.052  0.00  0.00    +0.138 C 
ATOM     11  C   UNL     1       4.355  -0.552  -1.424  0.00  0.00    +0.251 C 
ATOM     12  O   UNL     1       3.919  -0.982  -2.470  0.00  0.00    -0.272 OA
ATOM     13  N   UNL     1       5.499   0.138  -1.238  0.00  0.00    -0.215 N 
ATOM     14  C   UNL     1       5.678   0.460   0.049  0.00  0.00    +0.310 C 
ATOM     15  O   UNL     1       6.636   1.083   0.463  0.00  0.00    -0.252 OA
ATOM     16  N   UNL     1       4.677   0.017   0.833  0.00  0.00    -0.281 N 
ATOM     17  H   UNL     1       4.596   0.133   1.792  0.00  0.00    +0.152 HD
ENDROOT
BRANCH  13  18
ATOM     18  C   UNL     1       6.431   0.492  -2.312  0.00  0.00    +0.213 C 
BRANCH  18  19
ATOM     19  C   UNL     1       6.048   1.831  -2.888  0.00  0.00    +0.231 C 
ATOM     20  O   UNL     1       5.092   2.431  -2.445  0.00  0.00    -0.274 OA
ATOM     21  N   UNL     1       6.769   2.362  -3.895  0.00  0.00    -0.314 N 
ATOM     22  H   UNL     1       7.534   1.883  -4.250  0.00  0.00    +0.149 HD
BRANCH  21  23
ATOM     23  C   UNL     1       6.397   3.664  -4.455  0.00  0.00    +0.108 C 
BRANCH  23  24
ATOM     24  C   UNL     1       7.370   4.034  -5.577  0.00  0.00    +0.052 C 
BRANCH  24  25
ATOM     25  C   UNL     1       6.988   5.373  -6.152  0.00  0.00    -0.040 C 
ATOM     26  C   UNL     1       7.496   6.579  -5.812  0.00  0.00    -0.001 A 
ATOM     27  C   UNL     1       8.517   6.990  -4.841  0.00  0.00    +0.010 A 
ATOM     28  C   UNL     1       8.819   8.303  -4.722  0.00  0.00    +0.001 A 
ATOM     29  C   UNL     1       8.182   9.279  -5.502  0.00  0.00    +0.002 A 
ATOM     30  C   UNL     1       7.235   8.979  -6.415  0.00  0.00    +0.026 A 
ATOM     31  C   UNL     1       6.839   7.629  -6.624  0.00  0.00    +0.043 A 
ATOM     32  N   UNL     1       5.960   7.093  -7.434  0.00  0.00    -0.380 N 
ATOM     33  C   UNL     1       5.963   5.639  -7.232  0.00  0.00    +0.144 C 
ATOM     34  H   UNL     1       5.402   7.575  -8.065  0.00  0.00    +0.160 HD
ENDBRANCH  24  25
ENDBRANCH  23  24
ENDBRANCH  21  23
ENDBRANCH  18  19
ENDBRANCH  13  18
TORSDOF 5
