REMARK  Name = ZINC51615331
REMARK  8 active torsions:
REMARK  status: ('A' for Active; 'I' for Inactive)
REMARK    1  A    between atoms: C_1  and  C_2
REMARK    2  A    between atoms: N_7  and  C_9
REMARK    3  A    between atoms: C_9  and  C_10
REMARK    4  A    between atoms: C_13  and  N_16
REMARK    5  A    between atoms: N_19  and  C_20
REMARK    6  A    between atoms: C_20  and  C_21
REMARK    7  A    between atoms: N_23  and  C_24
REMARK    8  A    between atoms: C_24  and  C_25
REMARK                            x       y       z     vdW  Elec       q    Type
REMARK                         _______ _______ _______ _____ _____    ______ ____
ROOT
ATOM      1  C   UNL     1       1.668  -3.961   2.334  0.00  0.00    -0.064 A 
ATOM      2  C   UNL     1       0.817  -4.769   3.065  0.00  0.00    +0.003 A 
ATOM      3  C   UNL     1       0.935  -6.144   2.992  0.00  0.00    +0.023 A 
ATOM      4  C   UNL     1       1.910  -6.713   2.183  0.00  0.00    +0.035 A 
ATOM      5  C   UNL     1       2.763  -5.899   1.451  0.00  0.00    +0.023 A 
ATOM      6  C   UNL     1       2.636  -4.525   1.524  0.00  0.00    +0.003 A 
ENDROOT
BRANCH   4   7
ATOM      7  N   UNL     1       2.032  -8.105   2.107  0.00  0.00    -0.269 N 
ATOM      8  C   UNL     1       0.937  -8.884   2.207  0.00  0.00    +0.304 C 
ATOM      9  O   UNL     1      -0.167  -8.377   2.265  0.00  0.00    -0.252 OA
ATOM     10  N   UNL     1       1.065 -10.226   2.241  0.00  0.00    -0.291 N 
ATOM     11  H   UNL     1       2.905  -8.509   1.983  0.00  0.00    +0.156 HD
ATOM     12  H   UNL     1       1.946 -10.630   2.195  0.00  0.00    +0.151 HD
BRANCH  10  13
ATOM     13  C   UNL     1      -0.125 -11.073   2.349  0.00  0.00    +0.201 C 
BRANCH  13  14
ATOM     14  C   UNL     1       0.289 -12.522   2.368  0.00  0.00    +0.231 C 
ATOM     15  O   UNL     1       1.463 -12.818   2.298  0.00  0.00    -0.274 OA
ATOM     16  N   UNL     1      -0.645 -13.488   2.462  0.00  0.00    -0.303 N 
ATOM     17  H   UNL     1      -1.584 -13.252   2.518  0.00  0.00    +0.150 HD
BRANCH  16  18
ATOM     18  C   UNL     1      -0.242 -14.897   2.480  0.00  0.00    +0.193 C 
BRANCH  18  19
ATOM     19  C   UNL     1      -1.439 -15.748   2.588  0.00  0.00    -0.087 C 
ATOM     20  C   UNL     1      -2.393 -16.427   2.675  0.00  0.00    +0.005 C 
ENDBRANCH  18  19
ENDBRANCH  16  18
ENDBRANCH  13  14
ENDBRANCH  10  13
ENDBRANCH   4   7
BRANCH   1  21
ATOM     21  C   UNL     1       1.537  -2.462   2.417  0.00  0.00    -0.043 C 
BRANCH  21  27
ATOM     22  C   UNL     1      -0.377   1.494   0.259  0.00  0.00    +0.005 C 
ATOM     23  C   UNL     1      -0.346  -0.036   0.260  0.00  0.00    -0.031 C 
ATOM     24  C   UNL     1      -1.761  -0.576   0.487  0.00  0.00    -0.001 C 
ATOM     25  C   UNL     1      -1.707  -2.105   0.564  0.00  0.00    -0.018 C 
ATOM     26  C   UNL     1      -0.742  -2.520   1.676  0.00  0.00    -0.078 C 
ATOM     27  N   UNL     1       0.598  -1.996   1.388  0.00  0.00    +0.383 N 
ATOM     28  C   UNL     1       0.569  -0.528   1.383  0.00  0.00    -0.075 C 
ATOM     29  H   UNL     1       0.901  -2.328   0.484  0.00  0.00    -0.081 HD
ENDBRANCH  21  27
ENDBRANCH   1  21
TORSDOF 7
