REMARK  Name = ZINC37875640
REMARK  6 active torsions:
REMARK  status: ('A' for Active; 'I' for Inactive)
REMARK    1  A    between atoms: C_1  and  C_2
REMARK    2  A    between atoms: C_7  and  N_8
REMARK    3  A    between atoms: N_8  and  C_9
REMARK    4  A    between atoms: C_9  and  C_10
REMARK    5  A    between atoms: C_10  and  C_12
REMARK    6  A    between atoms: C_10  and  O_21
REMARK                            x       y       z     vdW  Elec       q    Type
REMARK                         _______ _______ _______ _____ _____    ______ ____
ROOT
ATOM      1  C   UNL     1       0.046   0.229   4.849  0.00  0.00    +0.162 C 
ENDROOT
BRANCH   1   2
ATOM      2  C   UNL     1       0.192  -0.528   6.144  0.00  0.00    -0.014 A 
ATOM      3  C   UNL     1      -0.906  -1.153   6.705  0.00  0.00    +0.010 A 
ATOM      4  C   UNL     1      -0.776  -1.848   7.893  0.00  0.00    +0.050 A 
ATOM      5  C   UNL     1       0.455  -1.921   8.523  0.00  0.00    +0.166 A 
ATOM      6  C   UNL     1       1.561  -1.292   7.957  0.00  0.00    +0.167 A 
ATOM      7  C   UNL     1       1.425  -0.601   6.764  0.00  0.00    +0.055 A 
ATOM      8  O   UNL     1       2.644  -1.508   8.760  0.00  0.00    -0.453 OA
ATOM      9  C   UNL     1       2.106  -1.928  10.028  0.00  0.00    +0.466 C 
ATOM     10  O   UNL     1       0.845  -2.531   9.680  0.00  0.00    -0.453 OA
ENDBRANCH   1   2
BRANCH   1  11
ATOM     11  O   UNL     1      -1.185   0.955   4.858  0.00  0.00    -0.386 OA
ATOM     12  H   UNL     1      -1.969   0.398   4.953  0.00  0.00    +0.210 HD
ENDBRANCH   1  11
BRANCH   1  13
ATOM     13  C   UNL     1       0.048  -0.757   3.679  0.00  0.00    +0.137 C 
BRANCH  13  14
ATOM     14  N   UNL     1       0.026  -0.016   2.415  0.00  0.00    -0.341 N 
ATOM     15  H   UNL     1       0.013   0.954   2.422  0.00  0.00    +0.146 HD
BRANCH  14  22
ATOM     16  C   UNL     1      -0.018   1.503   0.010  0.00  0.00    +0.046 C 
ATOM     17  C   UNL     1       0.002  -0.004   0.002  0.00  0.00    -0.029 A 
ATOM     18  C   UNL     1       0.006  -0.689  -1.198  0.00  0.00    +0.020 A 
ATOM     19  C   UNL     1       0.024  -2.072  -1.206  0.00  0.00    +0.018 A 
ATOM     20  C   UNL     1       0.039  -2.774  -0.013  0.00  0.00    +0.017 A 
ATOM     21  C   UNL     1       0.035  -2.095   1.189  0.00  0.00    +0.024 A 
ATOM     22  C   UNL     1       0.023  -0.706   1.200  0.00  0.00    +0.030 A 
ATOM     23 BR   UNL     1       0.028  -3.006  -2.850  0.00  0.00    -0.050 Br
ENDBRANCH  14  22
ENDBRANCH  13  14
ENDBRANCH   1  13
TORSDOF 5
