REMARK  Name = ZINC03348902
REMARK  9 active torsions:
REMARK  status: ('A' for Active; 'I' for Inactive)
REMARK    1  A    between atoms: C_6  and  O_11
REMARK    2  A    between atoms: O_11  and  C_12
REMARK    3  A    between atoms: C_12  and  C_13
REMARK    4  A    between atoms: C_13  and  O_15
REMARK    5  A    between atoms: O_15  and  C_16
REMARK    6  A    between atoms: C_16  and  C_17
REMARK    7  A    between atoms: N_19  and  C_20
REMARK    8  A    between atoms: C_23  and  S_26
REMARK    9  A    between atoms: S_26  and  N_29
REMARK                            x       y       z     vdW  Elec       q    Type
REMARK                         _______ _______ _______ _____ _____    ______ ____
ROOT
ATOM      1  C   UNL     1       7.800  -6.381  -0.112  0.00  0.00    +0.328 C 
ENDROOT
BRANCH   1   2
ATOM      2  C   UNL     1       7.832  -7.888  -0.112  0.00  0.00    +0.255 C 
ATOM      3  O   UNL     1       6.795  -8.517  -0.097  0.00  0.00    -0.272 OA
ATOM      4  N   UNL     1       9.013  -8.537  -0.128  0.00  0.00    -0.283 N 
ATOM      5  H   UNL     1       9.841  -8.036  -0.208  0.00  0.00    +0.155 HD
BRANCH   4   6
ATOM      6  C   UNL     1       9.047  -9.932  -0.030  0.00  0.00    +0.034 A 
ATOM      7  C   UNL     1      10.079 -10.557   0.658  0.00  0.00    +0.025 A 
ATOM      8  C   UNL     1      10.108 -11.934   0.753  0.00  0.00    +0.030 A 
ATOM      9  C   UNL     1       9.112 -12.691   0.164  0.00  0.00    +0.105 A 
ATOM     10  C   UNL     1       8.084 -12.072  -0.522  0.00  0.00    +0.030 A 
ATOM     11  C   UNL     1       8.045 -10.695  -0.616  0.00  0.00    +0.025 A 
BRANCH   9  12
ATOM     12  S   UNL     1       9.154 -14.449   0.288  0.00  0.00    +0.056 S 
ATOM     13  O   UNL     1       8.406 -14.951  -0.811  0.00  0.00    -0.153 OA
ATOM     14  O   UNL     1      10.511 -14.808   0.514  0.00  0.00    -0.153 OA
BRANCH  12  15
ATOM     15  N   UNL     1       8.320 -14.863   1.657  0.00  0.00    -0.204 NA
ATOM     16  H   UNL     1       7.853 -15.712   1.702  0.00  0.00    +0.144 HD
ATOM     17  H   UNL     1       8.300 -14.257   2.414  0.00  0.00    +0.144 HD
ENDBRANCH  12  15
ENDBRANCH   9  12
ENDBRANCH   4   6
ENDBRANCH   1   2
BRANCH   1  18
ATOM     18  O   UNL     1       6.443  -5.934  -0.093  0.00  0.00    -0.453 OA
BRANCH  18  19
ATOM     19  C   UNL     1       6.239  -4.607  -0.091  0.00  0.00    +0.346 C 
ATOM     20  O   UNL     1       7.181  -3.851  -0.105  0.00  0.00    -0.247 OA
BRANCH  19  21
ATOM     21  C   UNL     1       4.834  -4.061  -0.072  0.00  0.00    +0.349 C 
BRANCH  21  22
ATOM     22  O   UNL     1       4.878  -2.633  -0.073  0.00  0.00    -0.481 OA
BRANCH  22  28
ATOM     23  C   UNL     1      -0.015   1.358  -0.006  0.00  0.00    +0.001 A 
ATOM     24  C   UNL     1       1.169   2.092  -0.023  0.00  0.00    +0.001 A 
ATOM     25  C   UNL     1       2.379   1.468  -0.040  0.00  0.00    +0.008 A 
ATOM     26  C   UNL     1       2.438   0.064  -0.040  0.00  0.00    -0.014 A 
ATOM     27  C   UNL     1       3.668  -0.613  -0.058  0.00  0.00    +0.054 A 
ATOM     28  C   UNL     1       3.687  -1.979  -0.057  0.00  0.00    +0.122 A 
ATOM     29  C   UNL     1       2.497  -2.713  -0.040  0.00  0.00    +0.046 A 
ATOM     30  C   UNL     1       1.290  -2.087  -0.023  0.00  0.00    +0.012 A 
ATOM     31  C   UNL     1       1.233  -0.682  -0.023  0.00  0.00    -0.018 A 
ATOM     32  C   UNL     1       0.003  -0.003  -0.005  0.00  0.00    +0.008 A 
ENDBRANCH  22  28
ENDBRANCH  21  22
ENDBRANCH  19  21
ENDBRANCH  18  19
ENDBRANCH   1  18
TORSDOF 9
