REMARK  Name = ZINC38670961
REMARK  7 active torsions:
REMARK  status: ('A' for Active; 'I' for Inactive)
REMARK    1  A    between atoms: C_1  and  N_2
REMARK    2  A    between atoms: C_10  and  C_12
REMARK    3  A    between atoms: C_12  and  C_14
REMARK    4  A    between atoms: C_12  and  N_30
REMARK    5  A    between atoms: C_14  and  N_15
REMARK    6  A    between atoms: C_16  and  C_18
REMARK    7  A    between atoms: C_18  and  C_24
REMARK                            x       y       z     vdW  Elec       q    Type
REMARK                         _______ _______ _______ _____ _____    ______ ____
ROOT
ATOM      1  C   UNL     1       5.048  -2.655  -0.433  0.00  0.00    -0.020 C 
ENDROOT
BRANCH   1  11
ATOM      2  C   UNL     1       0.080   1.478   0.467  0.00  0.00    +0.129 C 
ATOM      3  N   UNL     1       0.109   0.017   0.366  0.00  0.00    -0.333 N 
ATOM      4  C   UNL     1      -1.132  -0.763   0.463  0.00  0.00    +0.105 C 
ATOM      5  C   UNL     1      -0.863  -1.958   1.388  0.00  0.00    +0.024 C 
ATOM      6  C   UNL     1       0.202  -2.848   0.748  0.00  0.00    +0.038 C 
ATOM      7  C   UNL     1       1.403  -2.031   0.352  0.00  0.00    -0.026 A 
ATOM      8  C   UNL     1       1.319  -0.658   0.170  0.00  0.00    +0.033 A 
ATOM      9  C   UNL     1       2.445   0.066  -0.205  0.00  0.00    +0.023 A 
ATOM     10  C   UNL     1       3.649  -0.581  -0.400  0.00  0.00    +0.004 A 
ATOM     11  C   UNL     1       3.734  -1.949  -0.222  0.00  0.00    -0.059 A 
ATOM     12  C   UNL     1       2.616  -2.672   0.162  0.00  0.00    +0.007 A 
ENDBRANCH   1  11
BRANCH   1  13
ATOM     13  N   UNL     1       5.729  -2.083  -1.603  0.00  0.00    +0.385 N 
ATOM     14  C   UNL     1       4.836  -2.147  -2.766  0.00  0.00    -0.078 C 
ATOM     15  C   UNL     1       5.509  -1.479  -3.967  0.00  0.00    -0.019 C 
ATOM     16  C   UNL     1       6.816  -2.211  -4.285  0.00  0.00    -0.004 C 
ATOM     17  C   UNL     1       7.709  -2.203  -3.041  0.00  0.00    -0.019 C 
ATOM     18  C   UNL     1       6.955  -2.844  -1.874  0.00  0.00    -0.078 C 
ATOM     19  H   UNL     1       5.966  -1.121  -1.415  0.00  0.00    -0.081 HD
ENDBRANCH   1  13
BRANCH   1  20
ATOM     20  C   UNL     1       5.928  -2.477   0.806  0.00  0.00    +0.093 C 
BRANCH  20  21
ATOM     21  N   UNL     1       5.306  -3.153   1.948  0.00  0.00    -0.316 N 
ATOM     22  C   UNL     1       5.954  -3.216   3.128  0.00  0.00    +0.224 C 
ATOM     23  O   UNL     1       7.008  -2.634   3.273  0.00  0.00    -0.275 OA
ATOM     24  H   UNL     1       4.429  -3.557   1.853  0.00  0.00    +0.149 HD
BRANCH  22  25
ATOM     25  C   UNL     1       5.367  -4.008   4.268  0.00  0.00    +0.076 C 
ATOM     26  C   UNL     1       3.917  -3.574   4.501  0.00  0.00    +0.049 C 
ATOM     27  C   UNL     1       3.893  -2.100   4.914  0.00  0.00    +0.161 C 
ATOM     28  O   UNL     1       4.689  -1.922   6.087  0.00  0.00    -0.380 OA
ATOM     29  C   UNL     1       6.066  -2.267   5.915  0.00  0.00    +0.161 C 
ATOM     30  C   UNL     1       6.176  -3.748   5.543  0.00  0.00    +0.049 C 
BRANCH  25  31
ATOM     31  C   UNL     1       5.408  -5.477   3.935  0.00  0.00    -0.032 A 
ATOM     32  C   UNL     1       6.050  -6.360   4.784  0.00  0.00    +0.004 A 
ATOM     33  C   UNL     1       6.088  -7.707   4.478  0.00  0.00    +0.000 A 
ATOM     34  C   UNL     1       5.484  -8.172   3.325  0.00  0.00    +0.000 A 
ATOM     35  C   UNL     1       4.842  -7.289   2.477  0.00  0.00    +0.000 A 
ATOM     36  C   UNL     1       4.800  -5.942   2.784  0.00  0.00    +0.004 A 
ENDBRANCH  25  31
ENDBRANCH  22  25
ENDBRANCH  20  21
ENDBRANCH   1  20
TORSDOF 6
