REMARK  Name = ZINC14546069
REMARK  8 active torsions:
REMARK  status: ('A' for Active; 'I' for Inactive)
REMARK    1  A    between atoms: C_1  and  C_2
REMARK    2  A    between atoms: C_4  and  C_36
REMARK    3  A    between atoms: C_6  and  N_8
REMARK    4  A    between atoms: N_8  and  S_9
REMARK    5  A    between atoms: S_9  and  C_12
REMARK    6  A    between atoms: C_25  and  C_28
REMARK    7  A    between atoms: C_33  and  O_34
REMARK    8  A    between atoms: O_34  and  C_35
REMARK                            x       y       z     vdW  Elec       q    Type
REMARK                         _______ _______ _______ _____ _____    ______ ____
ROOT
ATOM      1  C   UNL     1       0.969  -0.266   1.671  0.00  0.00    +0.109 A 
ATOM      2  C   UNL     1       0.401  -0.442   2.919  0.00  0.00    +0.030 A 
ATOM      3  C   UNL     1       1.202  -0.770   3.995  0.00  0.00    +0.025 A 
ATOM      4  C   UNL     1       2.572  -0.921   3.821  0.00  0.00    +0.031 A 
ATOM      5  C   UNL     1       3.146  -0.748   2.571  0.00  0.00    -0.018 A 
ATOM      6  C   UNL     1       2.329  -0.423   1.496  0.00  0.00    +0.034 A 
ATOM      7  C   UNL     1       4.614  -0.906   2.335  0.00  0.00    +0.049 C 
ATOM      8  C   UNL     1       5.293   0.432   2.162  0.00  0.00    -0.023 C 
ATOM      9  C   UNL     1       6.487   0.408   2.703  0.00  0.00    -0.030 C 
ATOM     10  C   UNL     1       6.769  -0.954   3.307  0.00  0.00    +0.033 C 
ATOM     11  C   UNL     1       5.348  -1.552   3.526  0.00  0.00    +0.029 C 
ATOM     12  C   UNL     1       4.811  -0.982   4.842  0.00  0.00    +0.108 C 
ATOM     13  N   UNL     1       3.371  -1.248   4.922  0.00  0.00    -0.336 N 
ATOM     14  H   UNL     1       2.982  -1.641   5.719  0.00  0.00    +0.147 HD
ENDROOT
BRANCH  12  15
ATOM     15  C   UNL     1       5.514  -1.640   6.001  0.00  0.00    +0.015 A 
ATOM     16  C   UNL     1       6.460  -0.939   6.724  0.00  0.00    +0.009 A 
ATOM     17  C   UNL     1       7.105  -1.542   7.787  0.00  0.00    +0.001 A 
ATOM     18  C   UNL     1       6.805  -2.847   8.132  0.00  0.00    +0.004 A 
ATOM     19  C   UNL     1       5.859  -3.552   7.413  0.00  0.00    +0.046 A 
ATOM     20  C   UNL     1       5.207  -2.947   6.348  0.00  0.00    +0.125 A 
BRANCH  20  21
ATOM     21  O   UNL     1       4.272  -3.637   5.642  0.00  0.00    -0.495 OA
ATOM     22  C   UNL     1       4.007  -4.979   6.056  0.00  0.00    +0.277 C 
ENDBRANCH  20  21
ENDBRANCH  12  15
BRANCH   1  23
ATOM     23  S   UNL     1      -0.049   0.153   0.295  0.00  0.00    +0.072 S 
ATOM     24  O   UNL     1      -1.381  -0.185   0.657  0.00  0.00    -0.150 OA
ATOM     25  O   UNL     1       0.586  -0.382  -0.858  0.00  0.00    -0.150 OA
BRANCH  23  26
ATOM     26  N   UNL     1      -0.005   1.801   0.138  0.00  0.00    -0.216 N 
ATOM     27  H   UNL     1       0.357   2.202  -0.668  0.00  0.00    +0.174 HD
BRANCH  26  33
ATOM     28  C   UNL     1      -3.469   2.796   3.478  0.00  0.00    +0.044 C 
ATOM     29  C   UNL     1      -2.161   3.121   2.805  0.00  0.00    -0.048 A 
ATOM     30  C   UNL     1      -1.432   4.225   3.207  0.00  0.00    +0.006 A 
ATOM     31  C   UNL     1      -0.231   4.527   2.592  0.00  0.00    -0.048 A 
ATOM     32  C   UNL     1       0.246   3.724   1.574  0.00  0.00    +0.028 A 
ATOM     33  C   UNL     1      -0.483   2.614   1.167  0.00  0.00    +0.049 A 
ATOM     34  C   UNL     1      -1.692   2.317   1.784  0.00  0.00    +0.028 A 
ATOM     35  C   UNL     1       0.559   5.732   3.033  0.00  0.00    +0.044 C 
ENDBRANCH  26  33
ENDBRANCH  23  26
ENDBRANCH   1  23
TORSDOF 5
