REMARK  Name = ZINC36500590
REMARK  12 active torsions:
REMARK  status: ('A' for Active; 'I' for Inactive)
REMARK    1  A    between atoms: C_1  and  C_2
REMARK    2  A    between atoms: C_2  and  C_3
REMARK    3  A    between atoms: C_2  and  C_4
REMARK    4  A    between atoms: C_2  and  N_5
REMARK    5  A    between atoms: C_6  and  C_8
REMARK    6  A    between atoms: C_8  and  C_10
REMARK    7  A    between atoms: C_8  and  N_18
REMARK    8  A    between atoms: N_18  and  C_19
REMARK    9  A    between atoms: C_19  and  C_20
REMARK   10  A    between atoms: C_25  and  C_27
REMARK   11  A    between atoms: C_28  and  O_34
REMARK   12  A    between atoms: C_32  and  O_33
REMARK                            x       y       z     vdW  Elec       q    Type
REMARK                         _______ _______ _______ _____ _____    ______ ____
ROOT
ATOM      1  N   UNL     1       3.933  -0.093  -2.624  0.00  0.00    -0.274 N 
ATOM      2  C   UNL     1       4.524  -0.892  -3.534  0.00  0.00    +0.255 C 
ATOM      3  O   UNL     1       3.844  -1.577  -4.275  0.00  0.00    -0.270 OA
ENDROOT
BRANCH   2   4
ATOM      4  C   UNL     1       5.992  -0.937  -3.632  0.00  0.00    +0.119 A 
ATOM      5  C   UNL     1       6.723  -1.865  -2.875  0.00  0.00    +0.133 A 
ATOM      6  C   UNL     1       8.104  -1.898  -2.976  0.00  0.00    +0.046 A 
ATOM      7  C   UNL     1       8.763  -1.022  -3.818  0.00  0.00    +0.007 A 
ATOM      8  C   UNL     1       8.053  -0.104  -4.569  0.00  0.00    +0.046 A 
ATOM      9  C   UNL     1       6.670  -0.057  -4.488  0.00  0.00    +0.133 A 
BRANCH   9  10
ATOM     10  O   UNL     1       5.975   0.842  -5.230  0.00  0.00    -0.506 OA
ATOM     11  H   UNL     1       5.835   1.691  -4.790  0.00  0.00    +0.292 HD
ENDBRANCH   9  10
BRANCH   5  12
ATOM     12  O   UNL     1       6.079  -2.725  -2.047  0.00  0.00    -0.506 OA
ATOM     13  H   UNL     1       5.830  -3.561  -2.465  0.00  0.00    +0.292 HD
ENDBRANCH   5  12
ENDBRANCH   2   4
BRANCH   1  14
ATOM     14  C   UNL     1       2.472  -0.049  -2.526  0.00  0.00    +0.196 C 
BRANCH  14  15
ATOM     15  C   UNL     1       1.900   0.500  -3.807  0.00  0.00    +0.018 A 
ATOM     16  C   UNL     1       2.423   1.655  -4.360  0.00  0.00    +0.048 A 
ATOM     17  C   UNL     1       1.897   2.159  -5.536  0.00  0.00    +0.020 A 
ATOM     18  C   UNL     1       0.848   1.508  -6.159  0.00  0.00    +0.003 A 
ATOM     19  C   UNL     1       0.325   0.354  -5.607  0.00  0.00    +0.020 A 
ATOM     20  C   UNL     1       0.854  -0.154  -4.434  0.00  0.00    +0.048 A 
ATOM     21 CL   UNL     1       0.202  -1.607  -3.745  0.00  0.00    -0.083 Cl
ATOM     22 CL   UNL     1       3.740   2.472  -3.578  0.00  0.00    -0.083 Cl
ENDBRANCH  14  15
BRANCH  14  24
ATOM     23  N   UNL     1       0.960   1.595  -1.463  0.00  0.00    -0.309 N 
ATOM     24  C   UNL     1       2.073   0.839  -1.376  0.00  0.00    +0.239 C 
ATOM     25  O   UNL     1       2.752   0.874  -0.372  0.00  0.00    -0.273 OA
ATOM     26  H   UNL     1       0.417   1.567  -2.266  0.00  0.00    +0.149 HD
BRANCH  23  28
ATOM     27  C   UNL     1       1.685   3.470  -0.071  0.00  0.00    +0.031 C 
ATOM     28  C   UNL     1       0.572   2.458  -0.345  0.00  0.00    +0.026 C 
ATOM     29  C   UNL     1       0.341   1.603   0.903  0.00  0.00    +0.031 C 
ATOM     30  C   UNL     1      -0.718   3.202  -0.699  0.00  0.00    +0.031 C 
ENDBRANCH  23  28
ENDBRANCH  14  24
ENDBRANCH   1  14
BRANCH   1  31
ATOM     31  C   UNL     1       4.753   0.731  -1.731  0.00  0.00    +0.183 C 
BRANCH  31  32
ATOM     32  C   UNL     1       5.205  -0.098  -0.557  0.00  0.00    +0.122 A 
ATOM     33  C   UNL     1       6.451  -0.565  -0.357  0.00  0.00    +0.046 A 
ATOM     34  C   UNL     1       6.428  -1.286   0.859  0.00  0.00    +0.041 A 
ATOM     35  C   UNL     1       5.170  -1.216   1.330  0.00  0.00    +0.195 A 
ATOM     36  O   UNL     1       4.435  -0.491   0.471  0.00  0.00    -0.466 OA
ENDBRANCH  31  32
ENDBRANCH   1  31
TORSDOF 9
