REMARK  Name = ZINC16611031
REMARK  12 active torsions:
REMARK  status: ('A' for Active; 'I' for Inactive)
REMARK    1  A    between atoms: C_1  and  C_2
REMARK    2  A    between atoms: C_2  and  C_3
REMARK    3  A    between atoms: C_3  and  C_5
REMARK    4  A    between atoms: C_3  and  C_6
REMARK    5  A    between atoms: C_13  and  C_15
REMARK    6  A    between atoms: C_19  and  N_21
REMARK    7  A    between atoms: N_21  and  C_22
REMARK    8  A    between atoms: C_22  and  N_24
REMARK    9  A    between atoms: C_25  and  C_27
REMARK   10  A    between atoms: C_27  and  O_28
REMARK   11  A    between atoms: O_28  and  C_29
REMARK   12  A    between atoms: C_34  and  N_35
REMARK                            x       y       z     vdW  Elec       q    Type
REMARK                         _______ _______ _______ _____ _____    ______ ____
ROOT
ATOM      1  C   UNL     1       2.243   6.622  -0.236  0.00  0.00    +0.039 A 
ATOM      2  C   UNL     1       1.517   7.779   0.052  0.00  0.00    +0.013 A 
ATOM      3  C   UNL     1       2.179   8.961   0.316  0.00  0.00    +0.003 A 
ATOM      4  C   UNL     1       3.560   9.004   0.297  0.00  0.00    +0.023 A 
ATOM      5  C   UNL     1       4.292   7.857   0.012  0.00  0.00    +0.033 A 
ATOM      6  C   UNL     1       3.637   6.664  -0.250  0.00  0.00    +0.036 A 
ENDROOT
BRANCH   1  14
ATOM      7  C   UNL     1      -1.208   1.862  -1.288  0.00  0.00    -0.042 A 
ATOM      8  C   UNL     1       0.007   1.216  -1.461  0.00  0.00    +0.007 A 
ATOM      9  C   UNL     1       1.193   1.907  -1.325  0.00  0.00    +0.049 A 
ATOM     10  C   UNL     1       1.174   3.256  -1.006  0.00  0.00    +0.156 A 
ATOM     11  C   UNL     1      -0.053   3.913  -0.825  0.00  0.00    +0.110 A 
ATOM     12  C   UNL     1      -1.247   3.200  -0.967  0.00  0.00    +0.035 A 
ATOM     13  N   UNL     1       0.236   5.205  -0.526  0.00  0.00    -0.209 NA
ATOM     14  C   UNL     1       1.536   5.354  -0.520  0.00  0.00    +0.228 A 
ATOM     15  O   UNL     1       2.137   4.184  -0.809  0.00  0.00    -0.435 OA
BRANCH   7  16
ATOM     16  C   UNL     1      -2.494   1.093  -1.447  0.00  0.00    +0.016 C 
ATOM     17  C   UNL     1      -2.575   0.521  -2.864  0.00  0.00    +0.012 C 
BRANCH  16  19
ATOM     18  C   UNL     1      -3.889  -0.756  -0.508  0.00  0.00    +0.004 C 
ATOM     19  C   UNL     1      -2.533  -0.052  -0.432  0.00  0.00    +0.004 C 
ENDBRANCH  16  19
ENDBRANCH   7  16
ENDBRANCH   1  14
BRANCH   5  20
ATOM     20  N   UNL     1       5.690   7.906  -0.007  0.00  0.00    -0.297 N 
ATOM     21  H   UNL     1       6.167   8.405   0.675  0.00  0.00    +0.154 HD
BRANCH  20  22
ATOM     22  C   UNL     1       6.374   7.261  -0.972  0.00  0.00    +0.141 C 
ATOM     23  S   UNL     1       5.534   6.501  -2.255  0.00  0.00    -0.018 S 
BRANCH  22  24
ATOM     24  N   UNL     1       7.721   7.214  -0.927  0.00  0.00    -0.265 N 
ATOM     25  C   UNL     1       8.405   6.569  -1.892  0.00  0.00    +0.256 C 
ATOM     26  O   UNL     1       7.810   6.030  -2.801  0.00  0.00    -0.272 OA
ATOM     27  H   UNL     1       8.197   7.645  -0.200  0.00  0.00    +0.157 HD
BRANCH  25  28
ATOM     28  C   UNL     1       9.910   6.517  -1.842  0.00  0.00    +0.325 C 
BRANCH  28  29
ATOM     29  O   UNL     1      10.399   5.782  -2.966  0.00  0.00    -0.480 OA
BRANCH  29  30
ATOM     30  C   UNL     1      11.747   5.641  -3.072  0.00  0.00    +0.151 A 
ATOM     31  C   UNL     1      12.582   6.202  -2.116  0.00  0.00    +0.048 A 
ATOM     32  C   UNL     1      13.950   6.053  -2.224  0.00  0.00    +0.004 A 
ATOM     33  C   UNL     1      14.490   5.354  -3.288  0.00  0.00    +0.002 A 
ATOM     34  C   UNL     1      13.660   4.797  -4.244  0.00  0.00    +0.036 A 
ATOM     35  C   UNL     1      12.290   4.939  -4.138  0.00  0.00    +0.168 A 
BRANCH  35  36
ATOM     36  N   UNL     1      11.402   4.344  -5.162  0.00  0.00    +0.060 N 
ATOM     37  O   UNL     1      11.880   3.729  -6.098  0.00  0.00    -0.126 OA
ATOM     38  O   UNL     1      10.195   4.470  -5.069  0.00  0.00    -0.126 OA
ENDBRANCH  35  36
ENDBRANCH  29  30
ENDBRANCH  28  29
ENDBRANCH  25  28
ENDBRANCH  22  24
ENDBRANCH  20  22
ENDBRANCH   5  20
TORSDOF 10
