REMARK  Name = ZINC07010242
REMARK  8 active torsions:
REMARK  status: ('A' for Active; 'I' for Inactive)
REMARK    1  A    between atoms: C_1  and  C_2
REMARK    2  A    between atoms: C_5  and  C_12
REMARK    3  A    between atoms: C_6  and  C_7
REMARK    4  A    between atoms: C_6  and  C_8
REMARK    5  A    between atoms: N_14  and  N_15
REMARK    6  A    between atoms: C_16  and  C_18
REMARK    7  A    between atoms: C_24  and  C_27
REMARK    8  A    between atoms: C_24  and  C_28
REMARK                            x       y       z     vdW  Elec       q    Type
REMARK                         _______ _______ _______ _____ _____    ______ ____
ROOT
ATOM      1  C   UNL     1       2.091  -3.766   0.769  0.00  0.00    +0.236 C 
ATOM      2  O   UNL     1       2.757  -3.461   1.736  0.00  0.00    -0.274 OA
ATOM      3  N   UNL     1       1.662  -5.035   0.619  0.00  0.00    -0.234 N 
ATOM      4  H   UNL     1       1.130  -5.279  -0.154  0.00  0.00    +0.173 HD
ENDROOT
BRANCH   1   9
ATOM      5  C   UNL     1       1.918   0.853  -1.507  0.00  0.00    +0.019 C 
ATOM      6  C   UNL     1       1.665  -0.642  -1.300  0.00  0.00    +0.032 C 
ATOM      7  C   UNL     1       0.171  -1.067  -1.165  0.00  0.00    +0.016 C 
ATOM      8  C   UNL     1       0.221  -2.448  -0.471  0.00  0.00    +0.018 C 
ATOM      9  C   UNL     1       1.742  -2.725  -0.264  0.00  0.00    +0.061 C 
ATOM     10  C   UNL     1       2.267  -1.270   0.006  0.00  0.00    -0.008 C 
ATOM     11  C   UNL     1       1.656  -0.663   1.270  0.00  0.00    +0.013 C 
ATOM     12  C   UNL     1       3.795  -1.205   0.025  0.00  0.00    +0.013 C 
ATOM     13  C   UNL     1       2.292  -2.956  -1.705  0.00  0.00    +0.091 C 
ATOM     14  C   UNL     1       2.256  -1.574  -2.368  0.00  0.00    +0.141 C 
ATOM     15  O   UNL     1       2.597  -1.281  -3.488  0.00  0.00    -0.297 OA
ENDBRANCH   1   9
BRANCH   3  16
ATOM     16  N   UNL     1       1.987  -6.002   1.579  0.00  0.00    -0.234 N 
ATOM     17  C   UNL     1       1.558  -7.271   1.429  0.00  0.00    +0.239 C 
ATOM     18  O   UNL     1       0.892  -7.576   0.462  0.00  0.00    -0.273 OA
ATOM     19  H   UNL     1       2.519  -5.758   2.352  0.00  0.00    +0.173 HD
BRANCH  17  20
ATOM     20  C   UNL     1       1.907  -8.312   2.461  0.00  0.00    +0.070 C 
ATOM     21  C   UNL     1       3.428  -8.604   2.645  0.00  0.00    +0.021 C 
ATOM     22  C   UNL     1       3.478  -9.993   3.323  0.00  0.00    +0.006 C 
ATOM     23  C   UNL     1       1.981 -10.399   3.489  0.00  0.00    +0.000 C 
ATOM     24  C   UNL     1       1.362  -9.759   2.196  0.00  0.00    +0.025 C 
ATOM     25  C   UNL     1       1.440  -9.434   4.588  0.00  0.00    -0.010 C 
ATOM     26  C   UNL     1       1.371  -8.056   3.877  0.00  0.00    -0.056 C 
ATOM     27  C   UNL     1       0.968  -6.915   4.380  0.00  0.00    +0.009 C 
ATOM     28  C   UNL     1       0.038  -9.861   5.027  0.00  0.00    +0.016 C 
ATOM     29  C   UNL     1       2.389  -9.407   5.788  0.00  0.00    +0.016 C 
ENDBRANCH  17  20
ENDBRANCH   3  16
TORSDOF 3
