REMARK  Name = ZINC09672344
REMARK  9 active torsions:
REMARK  status: ('A' for Active; 'I' for Inactive)
REMARK    1  A    between atoms: C_1  and  C_2
REMARK    2  A    between atoms: C_5  and  S_8
REMARK    3  A    between atoms: S_8  and  C_9
REMARK    4  A    between atoms: C_9  and  C_11
REMARK    5  A    between atoms: C_9  and  C_12
REMARK    6  A    between atoms: N_14  and  C_15
REMARK    7  A    between atoms: C_18  and  N_21
REMARK    8  A    between atoms: N_21  and  S_22
REMARK    9  A    between atoms: S_22  and  C_25
REMARK                            x       y       z     vdW  Elec       q    Type
REMARK                         _______ _______ _______ _____ _____    ______ ____
ROOT
ATOM      1  C   UNL     1       1.923  -1.416   3.260  0.00  0.00    +0.034 A 
ATOM      2  C   UNL     1       0.703  -1.942   2.853  0.00  0.00    +0.025 A 
ATOM      3  C   UNL     1       0.086  -1.455   1.718  0.00  0.00    +0.026 A 
ATOM      4  C   UNL     1       0.684  -0.440   0.983  0.00  0.00    +0.048 A 
ATOM      5  C   UNL     1       1.906   0.081   1.387  0.00  0.00    +0.026 A 
ATOM      6  C   UNL     1       2.521  -0.402   2.525  0.00  0.00    +0.025 A 
ENDROOT
BRANCH   1   9
ATOM      7  C   UNL     1       2.424  -3.211   4.742  0.00  0.00    +0.230 C 
ATOM      8  O   UNL     1       1.849  -3.974   3.995  0.00  0.00    -0.274 OA
ATOM      9  N   UNL     1       2.549  -1.910   4.412  0.00  0.00    -0.285 N 
ATOM     10  H   UNL     1       3.073  -1.316   4.972  0.00  0.00    +0.155 HD
BRANCH   7  11
ATOM     11  C   UNL     1       2.998  -3.717   6.040  0.00  0.00    +0.134 C 
ATOM     12  C   UNL     1       1.990  -3.485   7.168  0.00  0.00    +0.029 C 
BRANCH  11  13
ATOM     13  S   UNL     1       3.346  -5.492   5.896  0.00  0.00    -0.113 S 
BRANCH  13  18
ATOM     14  C   UNL     1       7.939  -5.766   1.990  0.00  0.00    +0.044 C 
ATOM     15  C   UNL     1       6.792  -5.697   2.965  0.00  0.00    -0.050 A 
ATOM     16  C   UNL     1       6.195  -6.863   3.410  0.00  0.00    +0.004 A 
ATOM     17  C   UNL     1       5.144  -6.804   4.304  0.00  0.00    +0.015 A 
ATOM     18  C   UNL     1       4.686  -5.572   4.756  0.00  0.00    +0.009 A 
ATOM     19  C   UNL     1       5.285  -4.403   4.301  0.00  0.00    +0.015 A 
ATOM     20  C   UNL     1       6.339  -4.470   3.412  0.00  0.00    +0.004 A 
ENDBRANCH  13  18
ENDBRANCH  11  13
ENDBRANCH   7  11
ENDBRANCH   1   9
BRANCH   4  21
ATOM     21  N   UNL     1       0.059   0.053  -0.167  0.00  0.00    -0.216 N 
ATOM     22  H   UNL     1       0.398  -0.186  -1.044  0.00  0.00    +0.174 HD
BRANCH  21  23
ATOM     23  S   UNL     1      -1.261   1.044  -0.032  0.00  0.00    +0.072 S 
ATOM     24  O   UNL     1      -1.650   1.385  -1.355  0.00  0.00    -0.150 OA
ATOM     25  O   UNL     1      -2.147   0.417   0.885  0.00  0.00    -0.150 OA
BRANCH  23  26
ATOM     26  C   UNL     1      -0.717   2.535   0.734  0.00  0.00    +0.112 A 
ATOM     27  C   UNL     1      -0.661   2.621   2.112  0.00  0.00    +0.032 A 
ATOM     28  C   UNL     1      -0.230   3.786   2.720  0.00  0.00    +0.051 A 
ATOM     29  C   UNL     1       0.136   4.871   1.942  0.00  0.00    +0.162 A 
ATOM     30  C   UNL     1       0.075   4.787   0.558  0.00  0.00    +0.164 A 
ATOM     31  C   UNL     1      -0.352   3.617  -0.047  0.00  0.00    +0.078 A 
ATOM     32  O   UNL     1       0.439   5.861  -0.200  0.00  0.00    -0.488 OA
ATOM     33  C   UNL     1      -0.423   6.998  -0.127  0.00  0.00    +0.232 C 
ATOM     34  C   UNL     1      -0.072   7.866   1.072  0.00  0.00    +0.082 C 
ATOM     35  C   UNL     1      -0.313   7.153   2.393  0.00  0.00    +0.232 C 
ATOM     36  O   UNL     1       0.559   6.029   2.529  0.00  0.00    -0.488 OA
ENDBRANCH  23  26
ENDBRANCH  21  23
ENDBRANCH   4  21
TORSDOF 7
