REMARK  Name = ZINC06803553
REMARK  8 active torsions:
REMARK  status: ('A' for Active; 'I' for Inactive)
REMARK    1  A    between atoms: C_1  and  C_2
REMARK    2  A    between atoms: C_7  and  N_12
REMARK    3  A    between atoms: C_9  and  C_11
REMARK    4  A    between atoms: N_12  and  C_13
REMARK    5  A    between atoms: C_13  and  C_14
REMARK    6  A    between atoms: N_21  and  C_26
REMARK    7  A    between atoms: C_22  and  C_23
REMARK    8  A    between atoms: C_26  and  C_27
REMARK                            x       y       z     vdW  Elec       q    Type
REMARK                         _______ _______ _______ _____ _____    ______ ____
ROOT
ATOM      1  C   UNL     1      -2.010  -4.535   1.367  0.00  0.00    -0.025 A 
ATOM      2  C   UNL     1      -2.818  -4.732   2.511  0.00  0.00    +0.002 A 
ATOM      3  C   UNL     1      -2.609  -4.532   3.883  0.00  0.00    +0.010 A 
ATOM      4  C   UNL     1      -3.604  -4.821   4.770  0.00  0.00    +0.001 A 
ATOM      5  C   UNL     1      -4.826  -5.313   4.328  0.00  0.00    +0.002 A 
ATOM      6  C   UNL     1      -5.056  -5.518   2.986  0.00  0.00    +0.026 A 
ATOM      7  C   UNL     1      -4.057  -5.230   2.060  0.00  0.00    +0.050 A 
ATOM      8  N   UNL     1      -3.988  -5.327   0.691  0.00  0.00    -0.330 N 
ATOM      9  C   UNL     1      -2.740  -4.897   0.277  0.00  0.00    +0.134 A 
ENDROOT
BRANCH   9  10
ATOM     10  C   UNL     1      -2.278  -4.842  -1.113  0.00  0.00    +0.403 C 
ATOM     11  O   UNL     1      -3.022  -5.193  -2.020  0.00  0.00    -0.239 OA
ATOM     12  O   UNL     1      -1.148  -4.446  -1.367  0.00  0.00    -0.239 OA
ENDBRANCH   9  10
BRANCH   1  13
ATOM     13  C   UNL     1      -0.596  -4.014   1.356  0.00  0.00    -0.043 C 
BRANCH  13  14
ATOM     14  N   UNL     1      -0.615  -2.549   1.244  0.00  0.00    +0.384 N 
ATOM     15  H   UNL     1      -1.112  -2.158   2.030  0.00  0.00    -0.085 HD
ATOM     16  H   UNL     1      -1.078  -2.284   0.387  0.00  0.00    -0.085 HD
BRANCH  14  22
ATOM     17  C   UNL     1      -0.019   1.526   0.010  0.00  0.00    +0.008 C 
ATOM     18  C   UNL     1       0.002  -0.004   0.002  0.00  0.00    -0.013 C 
ATOM     19  C   UNL     1       0.718  -0.497  -1.257  0.00  0.00    +0.003 C 
ATOM     20  C   UNL     1       0.739  -2.027  -1.265  0.00  0.00    -0.001 C 
ATOM     21  C   UNL     1       1.479  -2.534  -0.026  0.00  0.00    -0.015 C 
ATOM     22  C   UNL     1       0.763  -2.041   1.233  0.00  0.00    -0.068 C 
ATOM     23  C   UNL     1       0.742  -0.511   1.242  0.00  0.00    -0.025 C 
ATOM     24  C   UNL     1       0.026  -0.018   2.500  0.00  0.00    +0.006 C 
ENDBRANCH  14  22
ENDBRANCH  13  14
ENDBRANCH   1  13
BRANCH   8  25
ATOM     25  C   UNL     1      -5.061  -5.802  -0.185  0.00  0.00    +0.157 C 
BRANCH  25  26
ATOM     26  C   UNL     1      -5.920  -4.637  -0.605  0.00  0.00    -0.028 A 
ATOM     27  C   UNL     1      -7.013  -4.274   0.160  0.00  0.00    +0.005 A 
ATOM     28  C   UNL     1      -7.800  -3.205  -0.225  0.00  0.00    +0.000 A 
ATOM     29  C   UNL     1      -7.495  -2.500  -1.375  0.00  0.00    +0.000 A 
ATOM     30  C   UNL     1      -6.402  -2.863  -2.139  0.00  0.00    +0.000 A 
ATOM     31  C   UNL     1      -5.612  -3.929  -1.751  0.00  0.00    +0.005 A 
ENDBRANCH  25  26
ENDBRANCH   8  25
TORSDOF 6
