REMARK  Name = ZINC01301824
REMARK  12 active torsions:
REMARK  status: ('A' for Active; 'I' for Inactive)
REMARK    1  A    between atoms: C_1  and  C_2
REMARK    2  A    between atoms: C_2  and  C_3
REMARK    3  A    between atoms: C_2  and  C_4
REMARK    4  A    between atoms: C_8  and  C_26
REMARK    5  A    between atoms: C_14  and  C_16
REMARK    6  A    between atoms: C_16  and  C_17
REMARK    7  A    between atoms: C_21  and  N_23
REMARK    8  A    between atoms: C_26  and  C_27
REMARK    9  A    between atoms: C_26  and  C_28
REMARK   10  A    between atoms: C_29  and  C_31
REMARK   11  A    between atoms: C_31  and  C_32
REMARK   12  A    between atoms: C_36  and  N_38
REMARK                            x       y       z     vdW  Elec       q    Type
REMARK                         _______ _______ _______ _____ _____    ______ ____
ROOT
ATOM      1  C   UNL     1       3.488  -1.950   3.375  0.00  0.00    +0.063 C 
ATOM      2  C   UNL     1       3.854  -1.369   4.750  0.00  0.00    +0.124 C 
ATOM      3  N   UNL     1       2.655  -1.376   5.597  0.00  0.00    -0.299 N 
ATOM      4  C   UNL     1       1.939  -2.636   5.832  0.00  0.00    +0.124 C 
ATOM      5  C   UNL     1       1.543  -3.237   4.475  0.00  0.00    +0.063 C 
ATOM      6  C   UNL     1       2.796  -3.283   3.614  0.00  0.00    +0.152 C 
ATOM      7  O   UNL     1       3.224  -4.317   3.160  0.00  0.00    -0.296 OA
ATOM      8  C   UNL     1       0.552  -2.282   3.792  0.00  0.00    +0.124 C 
ATOM      9  N   UNL     1       1.237  -1.014   3.513  0.00  0.00    -0.299 N 
ATOM     10  C   UNL     1       2.472  -1.021   2.692  0.00  0.00    +0.124 C 
ATOM     11  C   UNL     1       0.741   0.144   3.991  0.00  0.00    +0.220 C 
ATOM     12  O   UNL     1      -0.004   0.136   4.949  0.00  0.00    -0.275 OA
ATOM     13  C   UNL     1       2.215  -0.232   6.157  0.00  0.00    +0.220 C 
ATOM     14  O   UNL     1       2.831   0.800   5.994  0.00  0.00    -0.275 OA
ENDROOT
BRANCH   1  16
ATOM     15  C   UNL     1       5.404  -0.770   2.289  0.00  0.00    +0.008 C 
ATOM     16  C   UNL     1       4.736  -2.128   2.507  0.00  0.00    -0.001 C 
ATOM     17  C   UNL     1       5.715  -3.071   3.210  0.00  0.00    +0.008 C 
ENDBRANCH   1  16
BRANCH   5  18
ATOM     18  C   UNL     1       0.948  -4.636   4.649  0.00  0.00    -0.001 C 
ATOM     19  C   UNL     1      -0.299  -4.553   5.532  0.00  0.00    +0.008 C 
ATOM     20  C   UNL     1       0.566  -5.202   3.280  0.00  0.00    +0.008 C 
ENDBRANCH   5  18
BRANCH  11  21
ATOM     21  C   UNL     1       1.111   1.450   3.336  0.00  0.00    +0.131 C 
BRANCH  21  22
ATOM     22  C   UNL     1       1.835   2.322   4.329  0.00  0.00    -0.036 A 
ATOM     23  C   UNL     1       1.118   3.109   5.211  0.00  0.00    +0.004 A 
ATOM     24  C   UNL     1       1.783   3.909   6.121  0.00  0.00    +0.002 A 
ATOM     25  C   UNL     1       3.165   3.922   6.150  0.00  0.00    +0.033 A 
ATOM     26  C   UNL     1       3.882   3.135   5.269  0.00  0.00    +0.126 A 
ATOM     27  C   UNL     1       3.217   2.331   4.361  0.00  0.00    +0.036 A 
BRANCH  26  28
ATOM     28  N   UNL     1       5.362   3.149   5.300  0.00  0.00    +0.056 N 
ATOM     29  O   UNL     1       5.944   3.870   6.076  0.00  0.00    -0.126 OA
ATOM     30  O   UNL     1       5.989   2.439   4.548  0.00  0.00    -0.126 OA
ENDBRANCH  26  28
ENDBRANCH  21  22
ENDBRANCH  11  21
BRANCH  13  31
ATOM     31  C   UNL     1       0.956  -0.234   6.986  0.00  0.00    +0.131 C 
BRANCH  31  32
ATOM     32  C   UNL     1       0.632   1.175   7.411  0.00  0.00    -0.036 A 
ATOM     33  C   UNL     1       1.300   1.745   8.479  0.00  0.00    +0.004 A 
ATOM     34  C   UNL     1       1.002   3.037   8.869  0.00  0.00    +0.002 A 
ATOM     35  C   UNL     1       0.037   3.759   8.192  0.00  0.00    +0.033 A 
ATOM     36  C   UNL     1      -0.629   3.189   7.124  0.00  0.00    +0.126 A 
ATOM     37  C   UNL     1      -0.329   1.898   6.731  0.00  0.00    +0.036 A 
BRANCH  36  38
ATOM     38  N   UNL     1      -1.663   3.962   6.399  0.00  0.00    +0.056 N 
ATOM     39  O   UNL     1      -1.947   5.080   6.761  0.00  0.00    -0.126 OA
ATOM     40  O   UNL     1      -2.223   3.475   5.444  0.00  0.00    -0.126 OA
ENDBRANCH  36  38
ENDBRANCH  31  32
ENDBRANCH  13  31
TORSDOF 8
