REMARK  Name = ZINC64137182
REMARK  9 active torsions:
REMARK  status: ('A' for Active; 'I' for Inactive)
REMARK    1  A    between atoms: C_1  and  O_2
REMARK    2  A    between atoms: O_2  and  C_3
REMARK    3  A    between atoms: C_8  and  C_9
REMARK    4  A    between atoms: N_23  and  C_24
REMARK    5  A    between atoms: C_24  and  C_25
REMARK    6  A    between atoms: C_29  and  O_31
REMARK    7  A    between atoms: O_31  and  C_32
REMARK    8  A    between atoms: C_32  and  C_33
REMARK    9  A    between atoms: C_33  and  O_34
REMARK                            x       y       z     vdW  Elec       q    Type
REMARK                         _______ _______ _______ _____ _____    ______ ____
ROOT
ATOM      1  C   UNL     1       0.054  -2.863   0.255  0.00  0.00    +0.117 C 
ATOM      2  C   UNL     1      -1.426  -3.128   0.540  0.00  0.00    +0.128 C 
ATOM      3  C   UNL     1      -1.960  -3.898  -0.662  0.00  0.00    -0.035 C 
ATOM      4  C   UNL     1      -3.015  -3.225  -1.100  0.00  0.00    -0.001 A 
ATOM      5  C   UNL     1      -3.989  -3.511  -2.166  0.00  0.00    +0.010 A 
ATOM      6  C   UNL     1      -4.957  -2.577  -2.360  0.00  0.00    +0.001 A 
ATOM      7  C   UNL     1      -5.053  -1.401  -1.610  0.00  0.00    +0.002 A 
ATOM      8  C   UNL     1      -4.205  -1.060  -0.607  0.00  0.00    +0.026 A 
ATOM      9  C   UNL     1      -3.147  -1.966  -0.305  0.00  0.00    +0.043 A 
ATOM     10  N   UNL     1      -2.212  -1.898   0.622  0.00  0.00    -0.376 N 
ATOM     11  C   UNL     1      -1.254  -5.121  -1.197  0.00  0.00    +0.049 C 
ATOM     12  C   UNL     1       0.233  -4.742  -1.313  0.00  0.00    +0.090 C 
ATOM     13  N   UNL     1       0.703  -4.147  -0.058  0.00  0.00    -0.289 NA
ATOM     14  H   UNL     1      -2.062  -1.169   1.245  0.00  0.00    +0.160 HD
ENDROOT
BRANCH   1  20
ATOM     15  C   UNL     1       0.935  -3.022   2.597  0.00  0.00    +0.125 A 
ATOM     16  C   UNL     1       1.538  -2.455   3.711  0.00  0.00    +0.046 A 
ATOM     17  C   UNL     1       1.901  -1.122   3.696  0.00  0.00    +0.004 A 
ATOM     18  C   UNL     1       1.664  -0.353   2.571  0.00  0.00    +0.001 A 
ATOM     19  C   UNL     1       1.063  -0.915   1.460  0.00  0.00    +0.009 A 
ATOM     20  C   UNL     1       0.704  -2.249   1.469  0.00  0.00    +0.014 A 
BRANCH  15  22
ATOM     21  C   UNL     1       0.847  -5.067   3.806  0.00  0.00    +0.277 C 
ATOM     22  O   UNL     1       0.578  -4.333   2.610  0.00  0.00    -0.495 OA
ENDBRANCH  15  22
ENDBRANCH   1  20
BRANCH  13  23
ATOM     23  C   UNL     1       2.166  -4.013  -0.053  0.00  0.00    +0.120 C 
BRANCH  23  24
ATOM     24  C   UNL     1       2.795  -5.381   0.005  0.00  0.00    -0.030 A 
ATOM     25  C   UNL     1       3.070  -5.963   1.229  0.00  0.00    +0.005 A 
ATOM     26  C   UNL     1       3.648  -7.218   1.285  0.00  0.00    +0.004 A 
ATOM     27  C   UNL     1       3.952  -7.893   0.119  0.00  0.00    +0.045 A 
ATOM     28  C   UNL     1       3.677  -7.311  -1.110  0.00  0.00    +0.121 A 
ATOM     29  C   UNL     1       3.092  -6.054  -1.164  0.00  0.00    +0.050 A 
BRANCH  28  30
ATOM     30  O   UNL     1       3.975  -7.973  -2.259  0.00  0.00    -0.490 OA
BRANCH  30  31
ATOM     31  C   UNL     1       4.571  -9.265  -2.127  0.00  0.00    +0.256 C 
BRANCH  31  32
ATOM     32  C   UNL     1       4.833  -9.850  -3.516  0.00  0.00    +0.196 C 
BRANCH  32  33
ATOM     33  O   UNL     1       5.806  -9.053  -4.193  0.00  0.00    -0.392 OA
ATOM     34  H   UNL     1       6.021  -9.366  -5.082  0.00  0.00    +0.210 HD
ENDBRANCH  32  33
ENDBRANCH  31  32
ENDBRANCH  30  31
ENDBRANCH  28  30
ENDBRANCH  23  24
ENDBRANCH  13  23
TORSDOF 8
