REMARK  Name = ZINC00140856
REMARK  4 active torsions:
REMARK  status: ('A' for Active; 'I' for Inactive)
REMARK    1  A    between atoms: C_1  and  C_2
REMARK    2  A    between atoms: C_2  and  C_22
REMARK    3  A    between atoms: C_3  and  C_18
REMARK    4  A    between atoms: C_5  and  C_7
REMARK                            x       y       z     vdW  Elec       q    Type
REMARK                         _______ _______ _______ _____ _____    ______ ____
ROOT
ATOM      1  C   UNL     1       0.629   4.461   0.021  0.00  0.00    +0.237 C 
ATOM      2  O   UNL     1      -0.560   4.248   0.031  0.00  0.00    -0.272 OA
ATOM      3  N   UNL     1       1.498   3.430   0.007  0.00  0.00    -0.269 N 
ATOM      4  C   UNL     1       2.864   3.518  -0.006  0.00  0.00    +0.207 A 
ATOM      5  N   UNL     1       3.385   2.329  -0.018  0.00  0.00    -0.235 NA
ATOM      6  C   UNL     1       2.400   1.392  -0.013  0.00  0.00    +0.089 A 
ATOM      7  C   UNL     1       1.176   2.082   0.002  0.00  0.00    +0.076 A 
ATOM      8  C   UNL     1      -0.017   1.376   0.010  0.00  0.00    +0.028 A 
ATOM      9  C   UNL     1       0.002  -0.004   0.002  0.00  0.00    +0.002 A 
ATOM     10  C   UNL     1       1.207  -0.690  -0.014  0.00  0.00    +0.002 A 
ATOM     11  C   UNL     1       2.402  -0.004  -0.021  0.00  0.00    +0.030 A 
ENDROOT
BRANCH   1  15
ATOM     12  C   UNL     1      -1.030   6.478   1.352  0.00  0.00    +0.012 C 
ATOM     13  C   UNL     1       0.283   6.938   0.716  0.00  0.00    -0.016 C 
ATOM     14  C   UNL     1       0.377   6.907  -0.811  0.00  0.00    +0.033 C 
ATOM     15  C   UNL     1       1.141   5.878   0.024  0.00  0.00    +0.092 C 
ATOM     16  C   UNL     1       1.009   8.069   1.446  0.00  0.00    +0.012 C 
BRANCH  14  17
ATOM     17  C   UNL     1       1.177   7.994  -1.481  0.00  0.00    +0.010 C 
ATOM     18  C   UNL     1       0.600   8.800  -2.342  0.00  0.00    +0.103 C 
ATOM     19 CL   UNL     1      -1.087   8.614  -2.708  0.00  0.00    -0.071 Cl
ATOM     20 CL   UNL     1       1.522  10.051  -3.114  0.00  0.00    -0.071 Cl
ENDBRANCH  14  17
ENDBRANCH   1  15
TORSDOF 2
