REMARK  Name = ZINC14461754
REMARK  10 active torsions:
REMARK  status: ('A' for Active; 'I' for Inactive)
REMARK    1  A    between atoms: C_1  and  C_2
REMARK    2  A    between atoms: C_2  and  N_3
REMARK    3  A    between atoms: N_3  and  C_4
REMARK    4  A    between atoms: N_3  and  C_6
REMARK    5  A    between atoms: C_4  and  C_5
REMARK    6  A    between atoms: C_9  and  C_12
REMARK    7  A    between atoms: C_23  and  S_28
REMARK    8  A    between atoms: S_28  and  N_31
REMARK    9  A    between atoms: N_31  and  C_32
REMARK   10  A    between atoms: C_32  and  C_33
REMARK                            x       y       z     vdW  Elec       q    Type
REMARK                         _______ _______ _______ _____ _____    ______ ____
ROOT
ATOM      1  C   UNL     1      -0.077   1.860  -2.407  0.00  0.00    +0.105 C 
ATOM      2  C   UNL     1      -0.871   1.634  -1.146  0.00  0.00    +0.029 C 
ATOM      3  C   UNL     1      -1.323   2.985  -0.542  0.00  0.00    +0.033 C 
ATOM      4  C   UNL     1      -1.446   2.669   0.938  0.00  0.00    -0.030 C 
ATOM      5  C   UNL     1      -0.708   1.620   1.253  0.00  0.00    -0.023 C 
ATOM      6  C   UNL     1      -0.013   1.086   0.008  0.00  0.00    +0.049 C 
ATOM      7  C   UNL     1       1.385   1.645  -0.002  0.00  0.00    -0.018 A 
ATOM      8  C   UNL     1       2.213   1.349   1.072  0.00  0.00    +0.034 A 
ATOM      9  C   UNL     1       3.503   1.838   1.116  0.00  0.00    +0.106 A 
ATOM     10  C   UNL     1       3.985   2.629   0.089  0.00  0.00    +0.030 A 
ATOM     11  C   UNL     1       3.170   2.928  -0.984  0.00  0.00    +0.025 A 
ATOM     12  C   UNL     1       1.871   2.434  -1.029  0.00  0.00    +0.031 A 
ATOM     13  N   UNL     1       1.063   2.741  -2.129  0.00  0.00    -0.336 N 
ATOM     14  H   UNL     1       1.250   3.510  -2.690  0.00  0.00    +0.147 HD
ENDROOT
BRANCH   1  18
ATOM     15  C   UNL     1       1.350  -1.908  -3.834  0.00  0.00    +0.030 A 
ATOM     16  C   UNL     1       0.223  -1.330  -4.403  0.00  0.00    +0.023 A 
ATOM     17  C   UNL     1      -0.236  -0.112  -3.940  0.00  0.00    +0.007 A 
ATOM     18  C   UNL     1       0.426   0.531  -2.910  0.00  0.00    -0.027 A 
ATOM     19  C   UNL     1       1.552  -0.039  -2.345  0.00  0.00    +0.007 A 
ATOM     20  C   UNL     1       2.013  -1.259  -2.799  0.00  0.00    +0.023 A 
BRANCH  15  21
ATOM     21  N   UNL     1       1.817  -3.139  -4.300  0.00  0.00    -0.330 N 
BRANCH  21  23
ATOM     22  C   UNL     1       2.586  -4.639  -2.528  0.00  0.00    +0.024 C 
ATOM     23  C   UNL     1       3.006  -3.747  -3.698  0.00  0.00    +0.102 C 
ENDBRANCH  21  23
BRANCH  21  24
ATOM     24  C   UNL     1       1.117  -3.822  -5.391  0.00  0.00    +0.102 C 
ATOM     25  C   UNL     1       1.708  -3.379  -6.731  0.00  0.00    +0.024 C 
ENDBRANCH  21  24
ENDBRANCH  15  21
ENDBRANCH   1  18
BRANCH   9  26
ATOM     26  S   UNL     1       4.541   1.452   2.487  0.00  0.00    +0.059 S 
ATOM     27  O   UNL     1       5.522   2.478   2.555  0.00  0.00    -0.153 OA
ATOM     28  O   UNL     1       3.680   1.148   3.576  0.00  0.00    -0.153 OA
BRANCH  26  29
ATOM     29  N   UNL     1       5.345   0.053   2.114  0.00  0.00    -0.186 NA
ATOM     30  H   UNL     1       5.183  -0.752   2.631  0.00  0.00    +0.148 HD
BRANCH  29  31
ATOM     31  C   UNL     1       6.301   0.031   1.004  0.00  0.00    +0.141 C 
BRANCH  31  32
ATOM     32  C   UNL     1       7.151  -1.209   1.098  0.00  0.00    -0.032 A 
ATOM     33  C   UNL     1       8.337  -1.182   1.808  0.00  0.00    +0.005 A 
ATOM     34  C   UNL     1       9.115  -2.321   1.898  0.00  0.00    +0.000 A 
ATOM     35  C   UNL     1       8.712  -3.485   1.270  0.00  0.00    +0.000 A 
ATOM     36  C   UNL     1       7.528  -3.511   0.556  0.00  0.00    +0.000 A 
ATOM     37  C   UNL     1       6.748  -2.373   0.470  0.00  0.00    +0.005 A 
ENDBRANCH  31  32
ENDBRANCH  29  31
ENDBRANCH  26  29
ENDBRANCH   9  26
TORSDOF 8
