REMARK  Name = ZINC00645712
REMARK  9 active torsions:
REMARK  status: ('A' for Active; 'I' for Inactive)
REMARK    1  A    between atoms: C_1  and  C_2
REMARK    2  A    between atoms: C_4  and  C_27
REMARK    3  A    between atoms: C_5  and  S_9
REMARK    4  A    between atoms: C_7  and  C_8
REMARK    5  A    between atoms: S_9  and  N_12
REMARK    6  A    between atoms: N_12  and  C_13
REMARK    7  A    between atoms: C_16  and  C_24
REMARK    8  A    between atoms: C_17  and  C_23
REMARK    9  A    between atoms: C_24  and  C_26
REMARK                            x       y       z     vdW  Elec       q    Type
REMARK                         _______ _______ _______ _____ _____    ______ ____
ROOT
ATOM      1  N   UNL     1      -1.709  -4.139  -0.893  0.00  0.00    -0.216 N 
ATOM      2  H   UNL     1      -2.288  -4.485  -0.197  0.00  0.00    +0.174 HD
ENDROOT
BRANCH   1   3
ATOM      3  C   UNL     1      -2.155  -4.097  -2.218  0.00  0.00    +0.050 A 
ATOM      4  C   UNL     1      -3.419  -3.610  -2.508  0.00  0.00    +0.037 A 
ATOM      5  C   UNL     1      -3.854  -3.572  -3.828  0.00  0.00    +0.034 A 
ATOM      6  C   UNL     1      -5.101  -3.131  -4.489  0.00  0.00    +0.066 A 
ATOM      7  C   UNL     1      -4.908  -3.352  -5.822  0.00  0.00    +0.114 A 
ATOM      8  O   UNL     1      -3.693  -3.871  -6.024  0.00  0.00    -0.458 OA
ATOM      9  C   UNL     1      -3.022  -4.023  -4.862  0.00  0.00    +0.154 A 
ATOM     10  C   UNL     1      -1.756  -4.510  -4.556  0.00  0.00    +0.086 A 
ATOM     11  C   UNL     1      -1.326  -4.540  -3.245  0.00  0.00    +0.048 A 
ATOM     12 CL   UNL     1      -0.713  -5.072  -5.824  0.00  0.00    -0.080 Cl
ATOM     13  C   UNL     1      -5.914  -3.055  -6.904  0.00  0.00    +0.087 C 
BRANCH   6  14
ATOM     14  C   UNL     1      -6.291  -2.575  -3.848  0.00  0.00    +0.164 C 
ATOM     15  O   UNL     1      -7.196  -3.310  -3.508  0.00  0.00    -0.292 OA
ATOM     16  C   UNL     1      -6.395  -1.091  -3.610  0.00  0.00    +0.092 C 
ENDBRANCH   6  14
ENDBRANCH   1   3
BRANCH   1  17
ATOM     17  S   UNL     1      -0.191  -3.597  -0.513  0.00  0.00    +0.073 S 
ATOM     18  O   UNL     1       0.710  -4.270  -1.382  0.00  0.00    -0.150 OA
ATOM     19  O   UNL     1      -0.078  -3.664   0.902  0.00  0.00    -0.150 OA
BRANCH  17  24
ATOM     20  C   UNL     1       0.040   2.250  -1.984  0.00  0.00    +0.044 C 
ATOM     21  C   UNL     1      -0.018   0.789  -1.617  0.00  0.00    -0.047 A 
ATOM     22  C   UNL     1      -0.891   0.357  -0.635  0.00  0.00    +0.009 A 
ATOM     23  C   UNL     1      -0.944  -0.982  -0.299  0.00  0.00    -0.024 A 
ATOM     24  C   UNL     1      -0.124  -1.890  -0.943  0.00  0.00    +0.112 A 
ATOM     25  C   UNL     1       0.748  -1.458  -1.925  0.00  0.00    +0.032 A 
ATOM     26  C   UNL     1       0.798  -0.119  -2.265  0.00  0.00    -0.046 A 
ATOM     27  C   UNL     1       1.745   0.351  -3.339  0.00  0.00    +0.044 C 
ATOM     28  C   UNL     1      -1.894  -1.453   0.772  0.00  0.00    +0.046 C 
ENDBRANCH  17  24
ENDBRANCH   1  17
TORSDOF 4
