REMARK  Name = ZINC39965117
REMARK  9 active torsions:
REMARK  status: ('A' for Active; 'I' for Inactive)
REMARK    1  A    between atoms: C_1  and  C_2
REMARK    2  A    between atoms: C_2  and  C_3
REMARK    3  A    between atoms: C_2  and  C_4
REMARK    4  A    between atoms: C_4  and  C_5
REMARK    5  A    between atoms: C_5  and  N_6
REMARK    6  A    between atoms: N_9  and  C_12
REMARK    7  A    between atoms: C_12  and  C_13
REMARK    8  A    between atoms: N_15  and  C_16
REMARK    9  A    between atoms: C_17  and  C_26
REMARK                            x       y       z     vdW  Elec       q    Type
REMARK                         _______ _______ _______ _____ _____    ______ ____
ROOT
ATOM      1  C   UNL     1       6.577  -0.016  -5.936  0.00  0.00    +0.232 C 
ATOM      2  O   UNL     1       6.963   0.636  -4.990  0.00  0.00    -0.274 OA
ATOM      3  N   UNL     1       7.416  -0.283  -6.957  0.00  0.00    -0.278 N 
ATOM      4  H   UNL     1       7.108  -0.805  -7.715  0.00  0.00    +0.155 HD
ENDROOT
BRANCH   3   5
ATOM      5  C   UNL     1       8.721   0.189  -6.925  0.00  0.00    +0.090 A 
ATOM      6  C   UNL     1       9.711   0.020  -7.877  0.00  0.00    +0.084 A 
ATOM      7  C   UNL     1      11.010   0.618  -7.606  0.00  0.00    -0.018 A 
ATOM      8  C   UNL     1      11.076   1.272  -6.427  0.00  0.00    -0.004 A 
ATOM      9  S   UNL     1       9.459   1.103  -5.726  0.00  0.00    -0.077 S 
ATOM     10  C   UNL     1      12.258   1.976  -5.837  0.00  0.00    +0.043 C 
ATOM     11  C   UNL     1      12.873   2.900  -6.897  0.00  0.00    +0.005 C 
ATOM     12  C   UNL     1      13.916   2.112  -7.683  0.00  0.00    +0.001 C 
ATOM     13  C   UNL     1      13.495   0.648  -7.798  0.00  0.00    +0.005 C 
ATOM     14  C   UNL     1      12.184   0.529  -8.570  0.00  0.00    +0.037 C 
BRANCH   6  15
ATOM     15  C   UNL     1       9.467  -0.716  -9.081  0.00  0.00    +0.102 C 
ATOM     16  N   UNL     1       9.273  -1.300 -10.036  0.00  0.00    -0.191 NA
ENDBRANCH   6  15
ENDBRANCH   3   5
BRANCH   1  17
ATOM     17  C   UNL     1       5.161  -0.528  -5.972  0.00  0.00    +0.180 C 
BRANCH  17  21
ATOM     18  N   UNL     1       2.875  -0.547  -2.416  0.00  0.00    +0.381 N 
ATOM     19  C   UNL     1       2.313   0.127  -3.594  0.00  0.00    -0.063 C 
ATOM     20  C   UNL     1       3.017  -0.380  -4.855  0.00  0.00    +0.066 C 
ATOM     21  N   UNL     1       4.457  -0.107  -4.753  0.00  0.00    -0.298 NA
ATOM     22  C   UNL     1       5.028  -0.754  -3.564  0.00  0.00    +0.066 C 
ATOM     23  C   UNL     1       4.309  -0.244  -2.313  0.00  0.00    -0.063 C 
ATOM     24  H   UNL     1       2.747  -1.544  -2.506  0.00  0.00    -0.082 HD
BRANCH  18  25
ATOM     25  C   UNL     1       2.187  -0.073  -1.207  0.00  0.00    -0.078 C 
BRANCH  25  26
ATOM     26  C   UNL     1       0.718  -0.497  -1.257  0.00  0.00    -0.016 C 
BRANCH  26  28
ATOM     27  C   UNL     1      -0.019   1.526   0.010  0.00  0.00    +0.007 C 
ATOM     28  C   UNL     1       0.002  -0.004   0.002  0.00  0.00    -0.019 C 
ATOM     29  C   UNL     1      -1.433  -0.534   0.013  0.00  0.00    +0.007 C 
ENDBRANCH  26  28
ENDBRANCH  25  26
ENDBRANCH  18  25
ENDBRANCH  17  21
ENDBRANCH   1  17
TORSDOF 7
