REMARK  Name = ZINC15777227
REMARK  10 active torsions:
REMARK  status: ('A' for Active; 'I' for Inactive)
REMARK    1  A    between atoms: C_1  and  C_2
REMARK    2  A    between atoms: C_2  and  C_3
REMARK    3  A    between atoms: C_3  and  C_4
REMARK    4  A    between atoms: C_4  and  C_5
REMARK    5  A    between atoms: N_7  and  C_8
REMARK    6  A    between atoms: C_8  and  C_10
REMARK    7  A    between atoms: C_8  and  N_14
REMARK    8  A    between atoms: N_14  and  C_15
REMARK    9  A    between atoms: C_15  and  N_17
REMARK   10  A    between atoms: N_17  and  C_18
REMARK                            x       y       z     vdW  Elec       q    Type
REMARK                         _______ _______ _______ _____ _____    ______ ____
ROOT
ATOM      1  C   UNL     1       3.189   0.923  -0.249  0.00  0.00    +0.211 C 
ENDROOT
BRANCH   1   4
ATOM      2  C   UNL     1       0.876   0.461  -0.859  0.00  0.00    +0.214 C 
ATOM      3  O   UNL     1       1.126  -0.724  -0.794  0.00  0.00    -0.276 OA
ATOM      4  N   UNL     1       1.839   1.368  -0.604  0.00  0.00    -0.294 N 
ATOM      5  H   UNL     1       1.639   2.316  -0.655  0.00  0.00    +0.151 HD
BRANCH   2   6
ATOM      6  C   UNL     1      -0.511   0.918  -1.229  0.00  0.00    +0.096 C 
BRANCH   6   7
ATOM      7  C   UNL     1      -1.403  -0.301  -1.471  0.00  0.00    +0.009 C 
BRANCH   7   9
ATOM      8  C   UNL     1      -3.703  -1.056  -2.090  0.00  0.00    +0.004 C 
ATOM      9  C   UNL     1      -2.812   0.164  -1.848  0.00  0.00    -0.003 C 
ENDBRANCH   7   9
ENDBRANCH   6   7
ENDBRANCH   2   6
ENDBRANCH   1   4
BRANCH   1  10
ATOM     10  C   UNL     1       4.218   1.742  -1.032  0.00  0.00    +0.225 C 
ATOM     11 CL   UNL     1       4.034   3.488  -0.624  0.00  0.00    -0.080 Cl
ATOM     12 CL   UNL     1       5.879   1.194  -0.596  0.00  0.00    -0.080 Cl
ATOM     13 CL   UNL     1       3.953   1.507  -2.800  0.00  0.00    -0.080 Cl
ENDBRANCH   1  10
BRANCH   1  14
ATOM     14  N   UNL     1       3.405   1.114   1.187  0.00  0.00    -0.305 N 
ATOM     15  H   UNL     1       3.558   2.004   1.540  0.00  0.00    +0.150 HD
BRANCH  14  16
ATOM     16  C   UNL     1       3.390   0.053   2.018  0.00  0.00    +0.136 C 
ATOM     17  S   UNL     1       3.119  -1.518   1.394  0.00  0.00    -0.019 S 
BRANCH  16  18
ATOM     18  N   UNL     1       3.588   0.228   3.339  0.00  0.00    -0.297 N 
ATOM     19  H   UNL     1       3.802   1.109   3.685  0.00  0.00    +0.154 HD
BRANCH  18  20
ATOM     20  C   UNL     1       3.485  -0.860   4.213  0.00  0.00    +0.033 A 
ATOM     21  C   UNL     1       2.783  -0.732   5.404  0.00  0.00    +0.024 A 
ATOM     22  C   UNL     1       2.677  -1.810   6.261  0.00  0.00    +0.017 A 
ATOM     23  C   UNL     1       3.280  -3.013   5.940  0.00  0.00    +0.018 A 
ATOM     24  C   UNL     1       3.986  -3.141   4.756  0.00  0.00    +0.017 A 
ATOM     25  C   UNL     1       4.089  -2.069   3.892  0.00  0.00    +0.024 A 
ATOM     26 BR   UNL     1       3.141  -4.483   7.120  0.00  0.00    -0.050 Br
ENDBRANCH  18  20
ENDBRANCH  16  18
ENDBRANCH  14  16
ENDBRANCH   1  14
TORSDOF 9
