REMARK  Name = ZINC16991562
REMARK  8 active torsions:
REMARK  status: ('A' for Active; 'I' for Inactive)
REMARK    1  A    between atoms: C_2  and  C_3
REMARK    2  A    between atoms: C_11  and  C_13
REMARK    3  A    between atoms: C_13  and  C_15
REMARK    4  A    between atoms: C_13  and  O_25
REMARK    5  A    between atoms: O_25  and  C_26
REMARK    6  A    between atoms: C_26  and  C_28
REMARK    7  A    between atoms: C_28  and  C_30
REMARK    8  A    between atoms: C_28  and  O_36
REMARK                            x       y       z     vdW  Elec       q    Type
REMARK                         _______ _______ _______ _____ _____    ______ ____
ROOT
ATOM      1  C   UNL     1      -2.510  -0.427   0.024  0.00  0.00    +0.194 C 
ENDROOT
BRANCH   1   2
ATOM      2  C   UNL     1      -2.633   1.075   0.022  0.00  0.00    +0.002 A 
ATOM      3  C   UNL     1      -3.857   1.679   0.079  0.00  0.00    +0.027 A 
ATOM      4  C   UNL     1      -3.947   3.068   0.076  0.00  0.00    +0.112 A 
ATOM      5  N   UNL     1      -2.881   3.829   0.020  0.00  0.00    -0.255 NA
ATOM      6  C   UNL     1      -1.654   3.302  -0.038  0.00  0.00    +0.071 A 
ATOM      7  C   UNL     1      -1.491   1.894  -0.045  0.00  0.00    +0.007 A 
ATOM      8  C   UNL     1      -0.199   1.345  -0.099  0.00  0.00    +0.010 A 
ATOM      9  C   UNL     1       0.881   2.172  -0.156  0.00  0.00    +0.001 A 
ATOM     10  C   UNL     1       0.723   3.556  -0.156  0.00  0.00    +0.002 A 
ATOM     11  C   UNL     1      -0.513   4.122  -0.099  0.00  0.00    +0.028 A 
ENDBRANCH   1   2
BRANCH   1  18
ATOM     12  C   UNL     1      -4.940  -2.332  -1.614  0.00  0.00    -0.003 C 
ATOM     13  C   UNL     1      -4.826  -0.805  -1.601  0.00  0.00    -0.070 C 
ATOM     14  C   UNL     1      -3.458  -0.835  -3.600  0.00  0.00    -0.078 C 
ATOM     15  C   UNL     1      -3.534  -2.364  -3.670  0.00  0.00    -0.015 C 
ATOM     16  C   UNL     1      -3.672  -2.919  -2.247  0.00  0.00    -0.009 C 
ATOM     17  C   UNL     1      -2.460  -2.464  -1.424  0.00  0.00    -0.008 C 
ATOM     18  C   UNL     1      -2.414  -0.933  -1.416  0.00  0.00    -0.022 C 
ATOM     19  N   UNL     1      -3.541  -0.379  -2.196  0.00  0.00    +0.385 N 
ATOM     20  H   UNL     1      -3.488   0.647  -2.175  0.00  0.00    -0.081 HD
BRANCH  12  22
ATOM     21  C   UNL     1      -7.101  -3.441  -1.865  0.00  0.00    +0.004 C 
ATOM     22  C   UNL     1      -6.144  -2.741  -2.423  0.00  0.00    -0.033 C 
ENDBRANCH  12  22
ENDBRANCH   1  18
BRANCH   1  23
ATOM     23  O   UNL     1      -3.676  -1.008   0.665  0.00  0.00    -0.456 OA
BRANCH  23  24
ATOM     24  C   UNL     1      -3.609  -1.204   1.991  0.00  0.00    +0.341 C 
ATOM     25  O   UNL     1      -2.609  -0.901   2.597  0.00  0.00    -0.248 OA
BRANCH  24  26
ATOM     26  C   UNL     1      -4.782  -1.803   2.724  0.00  0.00    +0.253 C 
BRANCH  26  27
ATOM     27  C   UNL     1      -5.955  -0.859   2.651  0.00  0.00    -0.008 A 
ATOM     28  C   UNL     1      -6.024   0.225   3.506  0.00  0.00    +0.007 A 
ATOM     29  C   UNL     1      -7.098   1.092   3.436  0.00  0.00    +0.000 A 
ATOM     30  C   UNL     1      -8.107   0.871   2.517  0.00  0.00    +0.000 A 
ATOM     31  C   UNL     1      -8.040  -0.216   1.666  0.00  0.00    +0.000 A 
ATOM     32  C   UNL     1      -6.964  -1.081   1.733  0.00  0.00    +0.007 A 
ENDBRANCH  26  27
BRANCH  26  33
ATOM     33  O   UNL     1      -4.428  -2.018   4.092  0.00  0.00    -0.376 OA
ATOM     34  H   UNL     1      -4.177  -1.213   4.565  0.00  0.00    +0.211 HD
ENDBRANCH  26  33
ENDBRANCH  24  26
ENDBRANCH  23  24
ENDBRANCH   1  23
TORSDOF 8
