REMARK  Name = ZINC08778226
REMARK  7 active torsions:
REMARK  status: ('A' for Active; 'I' for Inactive)
REMARK    1  A    between atoms: C_1  and  C_2
REMARK    2  A    between atoms: C_8  and  N_10
REMARK    3  A    between atoms: C_11  and  C_13
REMARK    4  A    between atoms: C_13  and  N_14
REMARK    5  A    between atoms: C_18  and  S_25
REMARK    6  A    between atoms: C_22  and  C_24
REMARK    7  A    between atoms: S_25  and  N_28
REMARK                            x       y       z     vdW  Elec       q    Type
REMARK                         _______ _______ _______ _____ _____    ______ ____
ROOT
ATOM      1  N   UNL     1      -1.370  -0.513   0.133  0.00  0.00    -0.318 N 
ATOM      2  C   UNL     1      -2.067   0.176   1.133  0.00  0.00    +0.034 A 
ATOM      3  C   UNL     1      -1.637   0.617   2.383  0.00  0.00    +0.025 A 
ATOM      4  C   UNL     1      -2.507   1.281   3.222  0.00  0.00    +0.030 A 
ATOM      5  C   UNL     1      -3.812   1.514   2.829  0.00  0.00    +0.105 A 
ATOM      6  C   UNL     1      -4.246   1.083   1.589  0.00  0.00    +0.034 A 
ATOM      7  C   UNL     1      -3.379   0.421   0.745  0.00  0.00    -0.023 A 
ATOM      8  C   UNL     1      -3.569  -0.150  -0.646  0.00  0.00    +0.059 C 
ATOM      9  C   UNL     1      -2.117  -0.356  -1.134  0.00  0.00    +0.075 C 
ATOM     10  C   UNL     1      -2.002  -1.618  -1.992  0.00  0.00    +0.028 C 
ENDROOT
BRANCH   5  11
ATOM     11  S   UNL     1      -4.920   2.360   3.907  0.00  0.00    +0.056 S 
ATOM     12  O   UNL     1      -6.233   1.970   3.526  0.00  0.00    -0.153 OA
ATOM     13  O   UNL     1      -4.424   2.176   5.226  0.00  0.00    -0.153 OA
BRANCH  11  14
ATOM     14  N   UNL     1      -4.790   3.976   3.573  0.00  0.00    -0.204 NA
ATOM     15  H   UNL     1      -4.179   4.282   2.885  0.00  0.00    +0.144 HD
ATOM     16  H   UNL     1      -5.326   4.618   4.066  0.00  0.00    +0.144 HD
ENDBRANCH  11  14
ENDBRANCH   5  11
BRANCH   1  17
ATOM     17  C   UNL     1       0.002  -0.004   0.002  0.00  0.00    +0.201 C 
BRANCH  17  19
ATOM     18  N   UNL     1       1.115   2.189  -0.259  0.00  0.00    -0.311 N 
ATOM     19  C   UNL     1      -0.034   1.487  -0.215  0.00  0.00    +0.231 C 
ATOM     20  O   UNL     1      -1.097   2.054  -0.356  0.00  0.00    -0.274 OA
ATOM     21  H   UNL     1       1.966   1.735  -0.151  0.00  0.00    +0.149 HD
BRANCH  18  28
ATOM     22  C   UNL     1       2.409   3.975   1.618  0.00  0.00    +0.009 C 
ATOM     23  C   UNL     1       2.343   4.271   0.118  0.00  0.00    +0.006 C 
ATOM     24  C   UNL     1       3.576   3.684  -0.572  0.00  0.00    +0.005 C 
ATOM     25  C   UNL     1       3.510   3.979  -2.072  0.00  0.00    +0.000 C 
ATOM     26  C   UNL     1       2.247   3.347  -2.661  0.00  0.00    +0.002 C 
ATOM     27  C   UNL     1       1.014   3.934  -1.971  0.00  0.00    +0.022 C 
ATOM     28  C   UNL     1       1.080   3.639  -0.471  0.00  0.00    +0.076 C 
ENDBRANCH  18  28
ENDBRANCH  17  19
ENDBRANCH   1  17
TORSDOF 5
