REMARK  Name = ZINC36019113
REMARK  13 active torsions:
REMARK  status: ('A' for Active; 'I' for Inactive)
REMARK    1  A    between atoms: C_1  and  C_2
REMARK    2  A    between atoms: C_2  and  C_3
REMARK    3  A    between atoms: C_3  and  N_4
REMARK    4  A    between atoms: N_10  and  C_13
REMARK    5  A    between atoms: C_13  and  C_14
REMARK    6  A    between atoms: C_15  and  C_32
REMARK    7  A    between atoms: C_16  and  C_25
REMARK    8  A    between atoms: N_21  and  C_22
REMARK    9  A    between atoms: C_22  and  C_23
REMARK   10  A    between atoms: C_28  and  C_31
REMARK   11  A    between atoms: C_32  and  O_34
REMARK   12  A    between atoms: O_34  and  C_35
REMARK   13  A    between atoms: C_35  and  C_36
REMARK                            x       y       z     vdW  Elec       q    Type
REMARK                         _______ _______ _______ _____ _____    ______ ____
ROOT
ATOM      1  C   UNL     1       0.741  -8.889  -3.799  0.00  0.00    +0.041 C 
ATOM      2  C   UNL     1       1.114 -10.185  -3.739  0.00  0.00    +0.080 C 
ATOM      3  C   UNL     1       1.974 -10.724  -4.864  0.00  0.00    +0.144 C 
ATOM      4  N   UNL     1       2.335  -9.783  -5.937  0.00  0.00    -0.288 N 
ATOM      5  C   UNL     1       1.885  -8.515  -5.857  0.00  0.00    +0.307 C 
ATOM      6  O   UNL     1       2.177  -7.731  -6.739  0.00  0.00    -0.252 OA
ATOM      7  N   UNL     1       1.121  -8.093  -4.841  0.00  0.00    -0.254 N 
ATOM      8  H   UNL     1       2.884 -10.069  -6.684  0.00  0.00    +0.151 HD
ENDROOT
BRANCH   3   9
ATOM      9  C   UNL     1       1.246 -11.886  -5.490  0.00  0.00    -0.022 A 
ATOM     10  C   UNL     1       0.234 -11.656  -6.403  0.00  0.00    +0.006 A 
ATOM     11  C   UNL     1      -0.434 -12.721  -6.977  0.00  0.00    +0.004 A 
ATOM     12  C   UNL     1      -0.089 -14.016  -6.639  0.00  0.00    -0.050 A 
ATOM     13  C   UNL     1       0.924 -14.246  -5.728  0.00  0.00    +0.004 A 
ATOM     14  C   UNL     1       1.595 -13.181  -5.156  0.00  0.00    +0.006 A 
ATOM     15  C   UNL     1      -0.817 -15.178  -7.265  0.00  0.00    +0.044 C 
ENDBRANCH   3   9
BRANCH   2  16
ATOM     16  C   UNL     1       0.716 -11.012  -2.662  0.00  0.00    +0.339 C 
ATOM     17  O   UNL     1      -0.079 -10.599  -1.839  0.00  0.00    -0.245 OA
BRANCH  16  18
ATOM     18  O   UNL     1       1.218 -12.259  -2.548  0.00  0.00    -0.462 OA
BRANCH  18  19
ATOM     19  C   UNL     1       0.772 -13.039  -1.436  0.00  0.00    +0.229 C 
ATOM     20  C   UNL     1       1.445 -14.412  -1.474  0.00  0.00    +0.048 C 
ENDBRANCH  18  19
ENDBRANCH  16  18
ENDBRANCH   2  16
BRANCH   1  21
ATOM     21  C   UNL     1      -0.116  -8.313  -2.701  0.00  0.00    +0.136 C 
BRANCH  21  28
ATOM     22  N   UNL     1      -5.911 -10.332  -2.651  0.00  0.00    -0.299 N 
ATOM     23  C   UNL     1      -5.488  -9.056  -2.548  0.00  0.00    +0.302 C 
ATOM     24  O   UNL     1      -6.197  -8.222  -2.018  0.00  0.00    -0.253 OA
ATOM     25  N   UNL     1      -4.281  -8.705  -3.033  0.00  0.00    -0.283 N 
ATOM     26  C   UNL     1      -3.752  -7.347  -2.830  0.00  0.00    +0.124 C 
ATOM     27  C   UNL     1      -2.336  -7.458  -2.253  0.00  0.00    +0.104 C 
ATOM     28  N   UNL     1      -1.523  -8.319  -3.123  0.00  0.00    -0.294 NA
ATOM     29  C   UNL     1      -2.054  -9.687  -3.165  0.00  0.00    +0.104 C 
ATOM     30  C   UNL     1      -3.455  -9.670  -3.774  0.00  0.00    +0.124 C 
ATOM     31  H   UNL     1      -5.379 -10.981  -3.138  0.00  0.00    +0.150 HD
BRANCH  22  32
ATOM     32  C   UNL     1      -7.172 -10.738  -2.027  0.00  0.00    +0.105 C 
BRANCH  32  34
ATOM     33  C   UNL     1      -8.733 -12.650  -1.640  0.00  0.00    +0.005 C 
ATOM     34  C   UNL     1      -7.416 -12.225  -2.292  0.00  0.00    +0.015 C 
ENDBRANCH  32  34
ENDBRANCH  22  32
ENDBRANCH  21  28
ENDBRANCH   1  21
BRANCH   7  35
ATOM     35  C   UNL     1       0.675  -6.698  -4.845  0.00  0.00    +0.141 C 
BRANCH  35  36
ATOM     36  C   UNL     1       1.742  -5.827  -4.234  0.00  0.00    -0.015 C 
ATOM     37  C   UNL     1       2.217  -4.806  -4.903  0.00  0.00    +0.005 C 
ENDBRANCH  35  36
ENDBRANCH   7  35
TORSDOF 10
