REMARK  Name = ZINC02075180
REMARK  4 active torsions:
REMARK  status: ('A' for Active; 'I' for Inactive)
REMARK    1  A    between atoms: C_1  and  C_2
REMARK    2  A    between atoms: C_18  and  C_19
REMARK    3  A    between atoms: C_18  and  N_42
REMARK    4  A    between atoms: C_19  and  C_20
REMARK                            x       y       z     vdW  Elec       q    Type
REMARK                         _______ _______ _______ _____ _____    ______ ____
ROOT
ATOM      1  C   UNL     1      -4.685   2.839   5.462  0.00  0.00    +0.044 C 
ATOM      2  C   UNL     1      -3.430   2.652   4.649  0.00  0.00    -0.050 A 
ATOM      3  C   UNL     1      -2.226   3.109   5.159  0.00  0.00    +0.005 A 
ATOM      4  C   UNL     1      -1.035   2.974   4.468  0.00  0.00    +0.026 A 
ATOM      5  C   UNL     1      -1.087   2.352   3.223  0.00  0.00    +0.049 A 
ATOM      6  C   UNL     1      -2.329   1.878   2.704  0.00  0.00    +0.003 A 
ATOM      7  C   UNL     1      -3.516   2.034   3.427  0.00  0.00    +0.013 A 
ATOM      8  C   UNL     1      -2.029   1.296   1.424  0.00  0.00    -0.020 A 
ATOM      9  C   UNL     1      -0.696   1.409   1.254  0.00  0.00    +0.009 A 
ATOM     10  N   UNL     1      -0.121   2.069   2.304  0.00  0.00    -0.347 N 
ATOM     11  C   UNL     1       1.318   2.374   2.316  0.00  0.00    +0.103 C 
ATOM     12  C   UNL     1       1.998   1.507   1.250  0.00  0.00    -0.056 C 
ATOM     13  C   UNL     1       0.001   0.890   0.018  0.00  0.00    -0.020 C 
ATOM     14  C   UNL     1      -0.846   1.228  -1.198  0.00  0.00    -0.009 C 
ATOM     15  C   UNL     1      -2.345   1.115  -1.016  0.00  0.00    +0.003 C 
ATOM     16  C   UNL     1      -2.847   0.646   0.342  0.00  0.00    +0.037 C 
ATOM     17  N   UNL     1       1.291   1.625  -0.043  0.00  0.00    +0.387 N 
ATOM     18  H   UNL     1       1.102   2.616  -0.231  0.00  0.00    -0.081 HD
ENDROOT
BRANCH  17  19
ATOM     19  C   UNL     1       2.132   1.082  -1.131  0.00  0.00    -0.063 C 
BRANCH  19  20
ATOM     20  C   UNL     1       2.523  -0.367  -0.833  0.00  0.00    +0.100 C 
BRANCH  20  21
ATOM     21  C   UNL     1       3.393  -0.872  -1.907  0.00  0.00    +0.061 C 
ATOM     22  N   UNL     1       4.065  -1.261  -2.737  0.00  0.00    -0.197 NA
ENDBRANCH  20  21
ENDBRANCH  19  20
ENDBRANCH  17  19
TORSDOF 3
