REMARK  Name = ZINC39467253
REMARK  4 active torsions:
REMARK  status: ('A' for Active; 'I' for Inactive)
REMARK    1  A    between atoms: C_1  and  S_2
REMARK    2  A    between atoms: S_2  and  C_3
REMARK    3  A    between atoms: P_12  and  C_22
REMARK    4  A    between atoms: C_27  and  O_28
REMARK                            x       y       z     vdW  Elec       q    Type
REMARK                         _______ _______ _______ _____ _____    ______ ____
ROOT
ATOM      1  C   UNL     1      -1.702  -0.454   0.016  0.00  0.00    +0.022 C 
ATOM      2  C   UNL     1      -2.648   0.493   0.024  0.00  0.00    -0.007 C 
ATOM      3  C   UNL     1      -4.101   0.097   0.024  0.00  0.00    +0.017 C 
ATOM      4  C   UNL     1      -4.953   1.210  -0.569  0.00  0.00    -0.003 C 
ATOM      5  C   UNL     1      -6.244   0.651  -1.183  0.00  0.00    -0.020 C 
ATOM      6  C   UNL     1      -7.276   1.784  -1.083  0.00  0.00    +0.157 C 
ATOM      7  O   UNL     1      -8.526   1.375  -1.660  0.00  0.00    -0.316 OA
ATOM      8  P   UNL     1      -9.149  -0.043  -1.159  0.00  0.00    +0.291 P 
ATOM      9  O   UNL     1     -10.112  -0.562  -2.156  0.00  0.00    -0.269 OA
ATOM     10  N   UNL     1      -7.853  -1.052  -1.033  0.00  0.00    -0.288 NA
ATOM     11  N   UNL     1      -6.689  -0.551  -0.487  0.00  0.00    +0.398 N 
ATOM     12  C   UNL     1      -5.734  -1.661  -0.626  0.00  0.00    -0.046 C 
ATOM     13  C   UNL     1      -4.293  -1.164  -0.816  0.00  0.00    +0.006 C 
ATOM     14  C   UNL     1      -3.316  -2.223  -0.379  0.00  0.00    -0.004 C 
ATOM     15  C   UNL     1      -2.095  -1.877   0.012  0.00  0.00    +0.050 C 
ATOM     16 CL   UNL     1      -0.969  -3.096   0.522  0.00  0.00    -0.083 Cl
ATOM     17  H   UNL     1      -7.914  -1.974  -1.329  0.00  0.00    +0.111 HD
ATOM     18  H   UNL     1      -6.826  -0.343   0.491  0.00  0.00    -0.055 HD
ENDROOT
BRANCH   8  19
ATOM     19  C   UNL     1      -9.958   0.158   0.452  0.00  0.00    +0.091 A 
ATOM     20  C   UNL     1      -9.234  -0.020   1.616  0.00  0.00    +0.018 A 
ATOM     21  C   UNL     1      -9.850   0.132   2.844  0.00  0.00    +0.001 A 
ATOM     22  C   UNL     1     -11.191   0.463   2.912  0.00  0.00    +0.004 A 
ATOM     23  C   UNL     1     -11.919   0.642   1.752  0.00  0.00    +0.046 A 
ATOM     24  C   UNL     1     -11.302   0.495   0.518  0.00  0.00    +0.131 A 
BRANCH  24  25
ATOM     25  O   UNL     1     -12.014   0.676  -0.625  0.00  0.00    -0.506 OA
ATOM     26  H   UNL     1     -12.436  -0.129  -0.958  0.00  0.00    +0.292 HD
ENDBRANCH  24  25
ENDBRANCH   8  19
BRANCH   1  28
ATOM     27  C   UNL     1      -0.022   1.810   0.012  0.00  0.00    +0.090 C 
ATOM     28  S   UNL     1       0.002  -0.004   0.002  0.00  0.00    -0.127 S 
ENDBRANCH   1  28
TORSDOF 3
