REMARK  Name = ZINC09281705
REMARK  10 active torsions:
REMARK  status: ('A' for Active; 'I' for Inactive)
REMARK    1  A    between atoms: C_1  and  O_2
REMARK    2  A    between atoms: O_2  and  C_3
REMARK    3  A    between atoms: C_6  and  C_9
REMARK    4  A    between atoms: C_17  and  O_37
REMARK    5  A    between atoms: C_20  and  C_21
REMARK    6  A    between atoms: C_20  and  N_72
REMARK    7  A    between atoms: N_23  and  C_24
REMARK    8  A    between atoms: C_25  and  C_33
REMARK    9  A    between atoms: C_33  and  O_35
REMARK   10  A    between atoms: O_35  and  C_36
REMARK                            x       y       z     vdW  Elec       q    Type
REMARK                         _______ _______ _______ _____ _____    ______ ____
ROOT
ATOM      1  C   UNL     1      -6.042  -0.043   1.866  0.00  0.00    -0.031 C 
ATOM      2  C   UNL     1      -6.085  -1.474   2.412  0.00  0.00    +0.011 C 
ATOM      3  C   UNL     1      -5.394  -2.411   1.419  0.00  0.00    +0.005 C 
ATOM      4  C   UNL     1      -5.456  -3.848   1.941  0.00  0.00    +0.000 C 
ATOM      5  C   UNL     1      -6.919  -4.269   2.098  0.00  0.00    +0.003 C 
ATOM      6  C   UNL     1      -7.611  -3.337   3.095  0.00  0.00    +0.035 C 
ATOM      7  C   UNL     1      -7.546  -1.898   2.583  0.00  0.00    +0.066 C 
ATOM      8  C   UNL     1      -8.260  -1.797   1.233  0.00  0.00    +0.016 C 
ATOM      9  C   UNL     1      -8.150  -0.362   0.712  0.00  0.00    -0.075 C 
ATOM     10  N   UNL     1      -6.722  -0.015   0.553  0.00  0.00    +0.390 N 
ATOM     11  H   UNL     1      -6.279  -0.704  -0.067  0.00  0.00    -0.080 HD
ENDROOT
BRANCH   1  15
ATOM     12  C   UNL     1      -1.975   1.163   1.348  0.00  0.00    +0.120 A 
ATOM     13  C   UNL     1      -2.589   0.364   0.395  0.00  0.00    +0.046 A 
ATOM     14  C   UNL     1      -3.902  -0.029   0.567  0.00  0.00    +0.005 A 
ATOM     15  C   UNL     1      -4.608   0.382   1.683  0.00  0.00    -0.060 A 
ATOM     16  C   UNL     1      -3.999   1.183   2.632  0.00  0.00    +0.005 A 
ATOM     17  C   UNL     1      -2.685   1.574   2.467  0.00  0.00    +0.046 A 
BRANCH  12  19
ATOM     18  C   UNL     1      -0.013   1.086   0.008  0.00  0.00    +0.277 C 
ATOM     19  O   UNL     1      -0.682   1.547   1.184  0.00  0.00    -0.495 OA
ENDBRANCH  12  19
ENDBRANCH   1  15
BRANCH   7  20
ATOM     20  O   UNL     1      -8.185  -1.033   3.524  0.00  0.00    -0.388 OA
ATOM     21  H   UNL     1      -9.115  -1.243   3.682  0.00  0.00    +0.210 HD
ENDBRANCH   7  20
BRANCH  10  22
ATOM     22  C   UNL     1      -6.593   1.327  -0.053  0.00  0.00    +0.020 C 
BRANCH  22  23
ATOM     23  C   UNL     1      -7.099   1.269  -1.471  0.00  0.00    +0.201 C 
ATOM     24  O   UNL     1      -7.535   0.229  -1.918  0.00  0.00    -0.278 OA
ATOM     25  N   UNL     1      -7.067   2.373  -2.244  0.00  0.00    -0.281 N 
ATOM     26  H   UNL     1      -6.718   3.205  -1.886  0.00  0.00    +0.155 HD
BRANCH  25  27
ATOM     27  C   UNL     1      -7.532   2.320  -3.548  0.00  0.00    +0.086 A 
ATOM     28  C   UNL     1      -7.581   3.340  -4.489  0.00  0.00    +0.091 A 
ATOM     29  C   UNL     1      -8.120   3.019  -5.800  0.00  0.00    -0.021 A 
ATOM     30  C   UNL     1      -8.522   1.739  -5.959  0.00  0.00    -0.004 A 
ATOM     31  S   UNL     1      -8.186   0.963  -4.404  0.00  0.00    -0.077 S 
ATOM     32  C   UNL     1      -9.115   1.125  -7.189  0.00  0.00    +0.043 C 
ATOM     33  C   UNL     1      -9.549   2.255  -8.133  0.00  0.00    +0.005 C 
ATOM     34  C   UNL     1      -8.404   3.264  -8.254  0.00  0.00    +0.005 C 
ATOM     35  C   UNL     1      -8.240   4.026  -6.937  0.00  0.00    +0.037 C 
BRANCH  28  36
ATOM     36  C   UNL     1      -7.107   4.689  -4.173  0.00  0.00    +0.342 C 
ATOM     37  O   UNL     1      -5.945   4.988  -4.374  0.00  0.00    -0.245 OA
BRANCH  36  38
ATOM     38  O   UNL     1      -7.958   5.599  -3.657  0.00  0.00    -0.464 OA
ATOM     39  C   UNL     1      -7.419   6.916  -3.368  0.00  0.00    +0.280 C 
ENDBRANCH  36  38
ENDBRANCH  28  36
ENDBRANCH  25  27
ENDBRANCH  22  23
ENDBRANCH  10  22
TORSDOF 8
