REMARK  Name = ZINC03037188
REMARK  10 active torsions:
REMARK  status: ('A' for Active; 'I' for Inactive)
REMARK    1  A    between atoms: C_1  and  C_2
REMARK    2  A    between atoms: C_7  and  N_8
REMARK    3  A    between atoms: N_8  and  C_9
REMARK    4  A    between atoms: C_9  and  N_11
REMARK    5  A    between atoms: N_11  and  N_12
REMARK    6  A    between atoms: C_16  and  S_26
REMARK    7  A    between atoms: N_20  and  C_23
REMARK    8  A    between atoms: C_23  and  C_24
REMARK    9  A    between atoms: S_26  and  N_29
REMARK   10  A    between atoms: C_32  and  C_35
REMARK                            x       y       z     vdW  Elec       q    Type
REMARK                         _______ _______ _______ _____ _____    ______ ____
ROOT
ATOM      1  N   UNL     1      -1.023   2.324   0.043  0.00  0.00    -0.175 NA
ATOM      2  C   UNL     1       0.050   1.569   0.038  0.00  0.00    +0.153 C 
ATOM      3  C   UNL     1       0.151   0.142   0.426  0.00  0.00    +0.030 A 
ATOM      4  C   UNL     1      -0.775  -0.786   0.889  0.00  0.00    +0.040 A 
ATOM      5  C   UNL     1      -0.368  -2.075   1.173  0.00  0.00    +0.106 A 
ATOM      6  C   UNL     1       0.956  -2.440   0.997  0.00  0.00    +0.030 A 
ATOM      7  C   UNL     1       1.882  -1.525   0.537  0.00  0.00    +0.026 A 
ATOM      8  C   UNL     1       1.491  -0.222   0.246  0.00  0.00    +0.046 A 
ATOM      9  N   UNL     1       2.207   0.874  -0.221  0.00  0.00    -0.262 N 
ATOM     10  C   UNL     1       1.417   1.952  -0.363  0.00  0.00    +0.272 C 
ATOM     11  O   UNL     1       1.768   3.051  -0.753  0.00  0.00    -0.268 OA
ENDROOT
BRANCH   5  12
ATOM     12  S   UNL     1      -1.536  -3.257   1.760  0.00  0.00    +0.061 S 
ATOM     13  O   UNL     1      -2.814  -2.818   1.320  0.00  0.00    -0.153 OA
ATOM     14  O   UNL     1      -1.017  -4.538   1.432  0.00  0.00    -0.153 OA
BRANCH  12  15
ATOM     15  N   UNL     1      -1.545  -3.157   3.413  0.00  0.00    -0.177 NA
ATOM     16  C   UNL     1      -0.640  -3.990   4.217  0.00  0.00    +0.110 C 
ATOM     17  C   UNL     1      -1.460  -4.758   5.252  0.00  0.00    +0.020 C 
ATOM     18  C   UNL     1      -2.300  -3.773   6.068  0.00  0.00    -0.012 C 
ATOM     19  C   UNL     1      -3.264  -3.031   5.139  0.00  0.00    +0.020 C 
ATOM     20  C   UNL     1      -2.461  -2.239   4.103  0.00  0.00    +0.110 C 
ATOM     21  C   UNL     1      -3.098  -4.538   7.126  0.00  0.00    +0.007 C 
ENDBRANCH  12  15
ENDBRANCH   5  12
BRANCH   1  22
ATOM     22  N   UNL     1      -0.938   3.663  -0.358  0.00  0.00    -0.217 N 
ATOM     23  H   UNL     1       0.028   4.082  -0.679  0.00  0.00    +0.176 HD
BRANCH  22  24
ATOM     24  C   UNL     1      -2.040   4.439  -0.353  0.00  0.00    +0.154 C 
ATOM     25  S   UNL     1      -1.937   6.076  -0.844  0.00  0.00    -0.017 S 
BRANCH  24  26
ATOM     26  N   UNL     1      -3.223   3.927   0.039  0.00  0.00    -0.295 N 
ATOM     27  H   UNL     1      -3.309   2.854   0.269  0.00  0.00    +0.154 HD
BRANCH  26  34
ATOM     28  C   UNL     1      -5.704   2.994  -0.997  0.00  0.00    +0.045 C 
ATOM     29  C   UNL     1      -5.572   4.343  -0.337  0.00  0.00    -0.029 A 
ATOM     30  C   UNL     1      -6.675   5.167  -0.221  0.00  0.00    +0.005 A 
ATOM     31  C   UNL     1      -6.554   6.404   0.384  0.00  0.00    +0.000 A 
ATOM     32  C   UNL     1      -5.331   6.821   0.876  0.00  0.00    +0.002 A 
ATOM     33  C   UNL     1      -4.226   6.000   0.767  0.00  0.00    +0.023 A 
ATOM     34  C   UNL     1      -4.342   4.759   0.155  0.00  0.00    +0.036 A 
ENDBRANCH  26  34
ENDBRANCH  24  26
ENDBRANCH  22  24
ENDBRANCH   1  22
BRANCH   9  35
ATOM     35  C   UNL     1       3.641   0.857  -0.519  0.00  0.00    +0.140 C 
BRANCH  35  36
ATOM     36  C   UNL     1       3.850   0.466  -1.960  0.00  0.00    -0.015 C 
ATOM     37  C   UNL     1       4.543   1.243  -2.755  0.00  0.00    +0.005 C 
ENDBRANCH  35  36
ENDBRANCH   9  35
TORSDOF 8
