REMARK  Name = ZINC38129075
REMARK  5 active torsions:
REMARK  status: ('A' for Active; 'I' for Inactive)
REMARK    1  A    between atoms: C_3  and  N_19
REMARK    2  A    between atoms: C_6  and  C_7
REMARK    3  A    between atoms: C_7  and  C_8
REMARK    4  A    between atoms: C_8  and  C_10
REMARK    5  A    between atoms: C_8  and  N_18
REMARK                            x       y       z     vdW  Elec       q    Type
REMARK                         _______ _______ _______ _____ _____    ______ ____
ROOT
ATOM      1  C   UNL     1      -1.744  -1.028  -1.429  0.00  0.00    -0.038 C 
ENDROOT
BRANCH   1   2
ATOM      2  C   UNL     1      -2.971  -1.903  -1.424  0.00  0.00    -0.043 A 
ATOM      3  C   UNL     1      -4.223  -1.340  -1.589  0.00  0.00    +0.004 A 
ATOM      4  C   UNL     1      -5.348  -2.142  -1.585  0.00  0.00    +0.015 A 
ATOM      5  C   UNL     1      -5.223  -3.509  -1.415  0.00  0.00    +0.019 A 
ATOM      6  C   UNL     1      -3.972  -4.074  -1.250  0.00  0.00    +0.035 A 
ATOM      7  C   UNL     1      -2.845  -3.271  -1.260  0.00  0.00    +0.044 A 
ATOM      8 CL   UNL     1      -1.273  -3.980  -1.059  0.00  0.00    -0.083 Cl
ATOM      9 BR   UNL     1      -6.764  -4.606  -1.407  0.00  0.00    -0.050 Br
ENDBRANCH   1   2
BRANCH   1  10
ATOM     10  N   UNL     1      -2.059   0.252  -2.076  0.00  0.00    +0.383 N 
ATOM     11  H   UNL     1      -1.238   0.838  -2.080  0.00  0.00    -0.089 HD
ATOM     12  H   UNL     1      -2.357   0.085  -3.026  0.00  0.00    -0.089 HD
ATOM     13  H   UNL     1      -2.799   0.713  -1.568  0.00  0.00    -0.089 HD
ENDBRANCH   1  10
BRANCH   1  14
ATOM     14  C   UNL     1      -1.293  -0.775   0.010  0.00  0.00    +0.023 C 
BRANCH  14  20
ATOM     15  C   UNL     1      -0.017   1.378   0.010  0.00  0.00    +0.006 A 
ATOM     16  C   UNL     1       1.171   2.086   0.002  0.00  0.00    +0.033 A 
ATOM     17  C   UNL     1       2.377   1.411  -0.013  0.00  0.00    +0.126 A 
ATOM     18  C   UNL     1       2.396   0.029  -0.020  0.00  0.00    +0.033 A 
ATOM     19  C   UNL     1       1.208  -0.679  -0.012  0.00  0.00    +0.006 A 
ATOM     20  C   UNL     1       0.002  -0.004   0.002  0.00  0.00    -0.048 A 
BRANCH  17  21
ATOM     21  N   UNL     1       3.649   2.168  -0.022  0.00  0.00    +0.056 N 
ATOM     22  O   UNL     1       3.633   3.377  -0.016  0.00  0.00    -0.126 OA
ATOM     23  O   UNL     1       4.704   1.578  -0.035  0.00  0.00    -0.126 OA
ENDBRANCH  17  21
ENDBRANCH  14  20
ENDBRANCH   1  14
TORSDOF 5
