REMARK  Name = ZINC45631935
REMARK  6 active torsions:
REMARK  status: ('A' for Active; 'I' for Inactive)
REMARK    1  A    between atoms: C_1  and  C_2
REMARK    2  A    between atoms: C_2  and  C_4
REMARK    3  A    between atoms: C_2  and  N_12
REMARK    4  A    between atoms: C_13  and  C_15
REMARK    5  A    between atoms: C_15  and  C_16
REMARK    6  A    between atoms: C_23  and  C_28
REMARK                            x       y       z     vdW  Elec       q    Type
REMARK                         _______ _______ _______ _____ _____    ______ ____
ROOT
ATOM      1  C   UNL     1      -0.191  -1.204   4.756  0.00  0.00    +0.146 C 
ATOM      2  C   UNL     1       0.557  -1.594   6.005  0.00  0.00    +0.231 C 
ATOM      3  O   UNL     1       0.891  -0.719   6.775  0.00  0.00    -0.274 OA
ATOM      4  N   UNL     1       0.868  -2.851   6.304  0.00  0.00    -0.284 N 
ATOM      5  C   UNL     1       0.471  -3.992   5.612  0.00  0.00    +0.047 A 
ATOM      6  C   UNL     1       1.146  -5.189   5.833  0.00  0.00    +0.036 A 
ATOM      7  C   UNL     1       0.778  -6.332   5.152  0.00  0.00    +0.057 A 
ATOM      8  C   UNL     1      -0.263  -6.301   4.242  0.00  0.00    +0.013 A 
ATOM      9  C   UNL     1      -0.944  -5.120   4.014  0.00  0.00    +0.017 A 
ATOM     10  C   UNL     1      -0.582  -3.971   4.698  0.00  0.00    +0.030 A 
ATOM     11  S   UNL     1      -1.465  -2.460   4.425  0.00  0.00    -0.110 S 
ATOM     12  H   UNL     1       1.427  -2.988   7.084  0.00  0.00    +0.155 HD
ENDROOT
BRANCH   7  13
ATOM     13  C   UNL     1       1.515  -7.622   5.402  0.00  0.00    +0.417 C 
ATOM     14  F   UNL     1       0.893  -8.321   6.442  0.00  0.00    -0.166 F 
ATOM     15  F   UNL     1       1.498  -8.402   4.241  0.00  0.00    -0.166 F 
ATOM     16  F   UNL     1       2.839  -7.341   5.756  0.00  0.00    -0.166 F 
ENDBRANCH   7  13
BRANCH   1  17
ATOM     17  C   UNL     1       0.780  -1.133   3.576  0.00  0.00    +0.119 C 
BRANCH  17  19
ATOM     18  N   UNL     1       0.711  -0.489   1.189  0.00  0.00    -0.309 N 
ATOM     19  C   UNL     1       0.051  -0.633   2.355  0.00  0.00    +0.215 C 
ATOM     20  O   UNL     1      -1.129  -0.361   2.423  0.00  0.00    -0.276 OA
ATOM     21  H   UNL     1       1.654  -0.707   1.135  0.00  0.00    +0.149 HD
BRANCH  18  23
ATOM     22  C   UNL     1      -0.019   1.526   0.010  0.00  0.00    +0.033 C 
ATOM     23  C   UNL     1       0.002  -0.004   0.002  0.00  0.00    +0.100 C 
BRANCH  23  24
ATOM     24  C   UNL     1       0.707  -0.490  -1.238  0.00  0.00    -0.025 A 
ATOM     25  C   UNL     1       2.089  -0.510  -1.283  0.00  0.00    +0.008 A 
ATOM     26  C   UNL     1       2.738  -0.956  -2.419  0.00  0.00    +0.041 A 
ATOM     27  C   UNL     1       2.005  -1.382  -3.513  0.00  0.00    +0.158 A 
ATOM     28  C   UNL     1       0.620  -1.362  -3.467  0.00  0.00    +0.159 A 
ATOM     29  C   UNL     1      -0.028  -0.920  -2.326  0.00  0.00    +0.046 A 
ATOM     30  F   UNL     1      -0.098  -1.778  -4.534  0.00  0.00    -0.202 F 
ATOM     31  F   UNL     1       2.639  -1.817  -4.624  0.00  0.00    -0.202 F 
ENDBRANCH  23  24
ENDBRANCH  18  23
ENDBRANCH  17  19
ENDBRANCH   1  17
TORSDOF 5
