REMARK  Name = ZINC06089020
REMARK  7 active torsions:
REMARK  status: ('A' for Active; 'I' for Inactive)
REMARK    1  A    between atoms: C_4  and  S_7
REMARK    2  A    between atoms: S_7  and  N_10
REMARK    3  A    between atoms: C_15  and  S_17
REMARK    4  A    between atoms: S_17  and  C_18
REMARK    5  A    between atoms: C_18  and  C_19
REMARK    6  A    between atoms: N_21  and  C_22
REMARK    7  A    between atoms: C_27  and  C_28
REMARK                            x       y       z     vdW  Elec       q    Type
REMARK                         _______ _______ _______ _____ _____    ______ ____
ROOT
ATOM      1  N   UNL     1       4.353  -1.123   1.537  0.00  0.00    -0.111 NA
ATOM      2  C   UNL     1       5.480  -1.748   1.814  0.00  0.00    +0.160 A 
ATOM      3  C   UNL     1       5.869  -1.979   3.151  0.00  0.00    +0.120 A 
ATOM      4  C   UNL     1       7.056  -2.638   3.390  0.00  0.00    +0.276 A 
ATOM      5  N   UNL     1       7.818  -3.046   2.370  0.00  0.00    -0.185 NA
ATOM      6  C   UNL     1       7.470  -2.839   1.118  0.00  0.00    +0.172 A 
ATOM      7  N   UNL     1       6.307  -2.199   0.802  0.00  0.00    -0.318 N 
ATOM      8  O   UNL     1       7.452  -2.872   4.664  0.00  0.00    -0.266 OA
ATOM      9  H   UNL     1       6.064  -2.059  -0.127  0.00  0.00    +0.169 HD
ENDROOT
BRANCH   1  10
ATOM     10  S   UNL     1       3.913  -0.870  -0.039  0.00  0.00    +0.101 S 
ATOM     11  O   UNL     1       3.661  -2.150  -0.602  0.00  0.00    -0.146 OA
ATOM     12  O   UNL     1       4.867   0.030  -0.587  0.00  0.00    -0.146 OA
BRANCH  10  16
ATOM     13  C   UNL     1      -0.048   1.321   0.012  0.00  0.00    +0.000 A 
ATOM     14  C   UNL     1       1.136   2.034   0.013  0.00  0.00    +0.002 A 
ATOM     15  C   UNL     1       2.345   1.365  -0.003  0.00  0.00    +0.029 A 
ATOM     16  C   UNL     1       2.371  -0.017  -0.018  0.00  0.00    +0.113 A 
ATOM     17  C   UNL     1       1.187  -0.730  -0.017  0.00  0.00    +0.029 A 
ATOM     18  C   UNL     1      -0.023  -0.061  -0.003  0.00  0.00    +0.002 A 
ENDBRANCH  10  16
ENDBRANCH   1  10
BRANCH   6  19
ATOM     19  S   UNL     1       8.524  -3.404  -0.176  0.00  0.00    -0.078 S 
BRANCH  19  20
ATOM     20  C   UNL     1       9.912  -4.180   0.696  0.00  0.00    +0.173 C 
BRANCH  20  21
ATOM     21  C   UNL     1      10.902  -4.713  -0.308  0.00  0.00    +0.227 C 
ATOM     22  O   UNL     1      10.691  -4.582  -1.495  0.00  0.00    -0.275 OA
ATOM     23  N   UNL     1      12.021  -5.335   0.113  0.00  0.00    -0.284 N 
ATOM     24  H   UNL     1      12.229  -5.370   1.060  0.00  0.00    +0.155 HD
BRANCH  23  25
ATOM     25  C   UNL     1      12.881  -5.931  -0.815  0.00  0.00    +0.045 A 
ATOM     26  C   UNL     1      12.395  -6.348  -2.047  0.00  0.00    +0.024 A 
ATOM     27  C   UNL     1      13.246  -6.936  -2.961  0.00  0.00    +0.002 A 
ATOM     28  C   UNL     1      14.583  -7.111  -2.651  0.00  0.00    +0.001 A 
ATOM     29  C   UNL     1      15.070  -6.698  -1.425  0.00  0.00    +0.014 A 
ATOM     30  C   UNL     1      14.225  -6.103  -0.508  0.00  0.00    +0.076 A 
BRANCH  30  31
ATOM     31  C   UNL     1      14.758  -5.646   0.825  0.00  0.00    +0.419 C 
ATOM     32  F   UNL     1      16.127  -5.924   0.899  0.00  0.00    -0.166 F 
ATOM     33  F   UNL     1      14.553  -4.269   0.962  0.00  0.00    -0.166 F 
ATOM     34  F   UNL     1      14.089  -6.321   1.851  0.00  0.00    -0.166 F 
ENDBRANCH  30  31
ENDBRANCH  23  25
ENDBRANCH  20  21
ENDBRANCH  19  20
ENDBRANCH   6  19
TORSDOF 7
