REMARK  Name = ZINC50563889
REMARK  5 active torsions:
REMARK  status: ('A' for Active; 'I' for Inactive)
REMARK    1  A    between atoms: C_1  and  C_2
REMARK    2  A    between atoms: N_7  and  S_11
REMARK    3  A    between atoms: C_8  and  C_10
REMARK    4  A    between atoms: S_11  and  C_14
REMARK    5  A    between atoms: C_17  and  N_21
REMARK                            x       y       z     vdW  Elec       q    Type
REMARK                         _______ _______ _______ _____ _____    ______ ____
ROOT
ATOM      1  S   UNL     1       0.954  -2.967   2.592  0.00  0.00    +0.064 S 
ATOM      2  O   UNL     1      -0.037  -2.331   3.388  0.00  0.00    -0.153 OA
ATOM      3  O   UNL     1       0.809  -4.296   2.113  0.00  0.00    -0.153 OA
ENDROOT
BRANCH   1   9
ATOM      4  C   UNL     1       0.061   1.489   0.332  0.00  0.00    +0.009 C 
ATOM      5  C   UNL     1       0.077  -0.041   0.327  0.00  0.00    +0.005 C 
ATOM      6  C   UNL     1       0.491  -0.543  -1.058  0.00  0.00    +0.006 C 
ATOM      7  C   UNL     1       0.476  -2.073  -1.073  0.00  0.00    +0.017 C 
ATOM      8  C   UNL     1       1.484  -2.600  -0.047  0.00  0.00    +0.110 C 
ATOM      9  N   UNL     1       1.180  -2.006   1.262  0.00  0.00    -0.173 NA
ATOM     10  C   UNL     1       1.081  -0.544   1.370  0.00  0.00    +0.080 C 
ATOM     11  C   UNL     1       0.598  -0.164   2.771  0.00  0.00    +0.026 C 
ENDBRANCH   1   9
BRANCH   1  12
ATOM     12  C   UNL     1       2.449  -2.928   3.524  0.00  0.00    +0.141 A 
ATOM     13  C   UNL     1       2.459  -2.371   4.790  0.00  0.00    +0.033 A 
ATOM     14  C   UNL     1       3.629  -2.339   5.523  0.00  0.00    +0.025 A 
ATOM     15  C   UNL     1       4.798  -2.867   4.988  0.00  0.00    +0.027 A 
ATOM     16  C   UNL     1       4.787  -3.425   3.717  0.00  0.00    +0.063 A 
ATOM     17  C   UNL     1       3.611  -3.459   2.989  0.00  0.00    +0.151 A 
ATOM     18  F   UNL     1       3.597  -4.006   1.754  0.00  0.00    -0.203 F 
BRANCH  15  19
ATOM     19  N   UNL     1       5.982  -2.835   5.728  0.00  0.00    -0.358 N 
ATOM     20  H   UNL     1       5.989  -2.444   6.616  0.00  0.00    +0.142 HD
ATOM     21  H   UNL     1       6.798  -3.203   5.354  0.00  0.00    +0.142 HD
ENDBRANCH  15  19
ENDBRANCH   1  12
TORSDOF 3
