REMARK  Name = ZINC11622369
REMARK  9 active torsions:
REMARK  status: ('A' for Active; 'I' for Inactive)
REMARK    1  A    between atoms: C_1  and  C_2
REMARK    2  A    between atoms: C_2  and  C_4
REMARK    3  A    between atoms: C_2  and  S_17
REMARK    4  A    between atoms: N_6  and  C_7
REMARK    5  A    between atoms: S_17  and  C_18
REMARK    6  A    between atoms: N_22  and  C_23
REMARK    7  A    between atoms: C_23  and  C_24
REMARK    8  A    between atoms: C_27  and  O_30
REMARK    9  A    between atoms: O_30  and  C_31
REMARK                            x       y       z     vdW  Elec       q    Type
REMARK                         _______ _______ _______ _____ _____    ______ ____
ROOT
ATOM      1  C   UNL     1      -3.235   7.749  -0.009  0.00  0.00    +0.029 C 
ATOM      2  C   UNL     1      -2.132   7.259  -0.950  0.00  0.00    +0.137 C 
ENDROOT
BRANCH   2   3
ATOM      3  C   UNL     1      -2.112   5.752  -0.958  0.00  0.00    +0.227 C 
ATOM      4  O   UNL     1      -2.637   5.143  -1.866  0.00  0.00    -0.275 OA
ATOM      5  N   UNL     1      -1.510   5.081   0.044  0.00  0.00    -0.309 N 
ATOM      6  H   UNL     1      -1.089   5.567   0.770  0.00  0.00    +0.149 HD
BRANCH   5   7
ATOM      7  C   UNL     1      -1.490   3.616   0.036  0.00  0.00    +0.035 C 
ATOM      8  C   UNL     1      -0.773   3.123  -1.223  0.00  0.00    +0.029 C 
ATOM      9  C   UNL     1      -0.753   1.593  -1.232  0.00  0.00    -0.008 C 
ATOM     10  C   UNL     1      -0.013   1.086   0.008  0.00  0.00    +0.007 C 
ATOM     11  C   UNL     1      -0.729   1.579   1.267  0.00  0.00    -0.008 C 
ATOM     12  C   UNL     1      -0.750   3.109   1.275  0.00  0.00    +0.029 C 
ATOM     13  C   UNL     1      -2.164   1.050   1.278  0.00  0.00    +0.007 C 
ATOM     14  C   UNL     1      -2.904   1.556   0.038  0.00  0.00    -0.008 C 
ATOM     15  C   UNL     1      -2.188   1.063  -1.221  0.00  0.00    +0.007 C 
ATOM     16  C   UNL     1      -2.925   3.086   0.047  0.00  0.00    +0.029 C 
ENDBRANCH   5   7
ENDBRANCH   2   3
BRANCH   2  17
ATOM     17  S   UNL     1      -2.453   7.867  -2.624  0.00  0.00    -0.072 S 
BRANCH  17  18
ATOM     18  C   UNL     1      -2.275   9.600  -2.359  0.00  0.00    +0.210 A 
ATOM     19  N   UNL     1      -1.986  10.191  -1.220  0.00  0.00    -0.101 NA
ATOM     20  N   UNL     1      -1.932  11.465  -1.375  0.00  0.00    -0.022 NA
ATOM     21  N   UNL     1      -2.176  11.777  -2.602  0.00  0.00    -0.043 NA
ATOM     22  N   UNL     1      -2.404  10.574  -3.291  0.00  0.00    -0.216 N 
BRANCH  22  23
ATOM     23  C   UNL     1      -2.716  10.408  -4.713  0.00  0.00    +0.183 C 
BRANCH  23  24
ATOM     24  C   UNL     1      -4.209  10.449  -4.908  0.00  0.00    -0.026 A 
ATOM     25  C   UNL     1      -4.944   9.279  -4.853  0.00  0.00    +0.009 A 
ATOM     26  C   UNL     1      -6.315   9.314  -5.025  0.00  0.00    +0.046 A 
ATOM     27  C   UNL     1      -6.952  10.523  -5.264  0.00  0.00    +0.120 A 
ATOM     28  C   UNL     1      -6.211  11.694  -5.324  0.00  0.00    +0.046 A 
ATOM     29  C   UNL     1      -4.842  11.655  -5.146  0.00  0.00    +0.009 A 
BRANCH  27  30
ATOM     30  O   UNL     1      -8.299  10.559  -5.440  0.00  0.00    -0.495 OA
ATOM     31  C   UNL     1      -8.997   9.315  -5.365  0.00  0.00    +0.277 C 
ENDBRANCH  27  30
ENDBRANCH  23  24
ENDBRANCH  22  23
ENDBRANCH  17  18
ENDBRANCH   2  17
TORSDOF 7
