REMARK  Name = ZINC37174178
REMARK  6 active torsions:
REMARK  status: ('A' for Active; 'I' for Inactive)
REMARK    1  A    between atoms: C_1  and  N_2
REMARK    2  A    between atoms: N_2  and  C_3
REMARK    3  A    between atoms: N_2  and  C_16
REMARK    4  A    between atoms: C_3  and  C_4
REMARK    5  A    between atoms: N_6  and  C_7
REMARK    6  A    between atoms: C_8  and  N_15
REMARK                            x       y       z     vdW  Elec       q    Type
REMARK                         _______ _______ _______ _____ _____    ______ ____
ROOT
ATOM      1  C   UNL     1       1.112   0.417   2.897  0.00  0.00    +0.201 C 
ATOM      2  O   UNL     1       1.102   1.599   3.169  0.00  0.00    -0.278 OA
ATOM      3  N   UNL     1       0.406  -0.453   3.646  0.00  0.00    -0.284 N 
ATOM      4  H   UNL     1       0.355  -1.387   3.387  0.00  0.00    +0.155 HD
ENDROOT
BRANCH   3   5
ATOM      5  C   UNL     1      -0.256  -0.009   4.801  0.00  0.00    +0.073 A 
ATOM      6  C   UNL     1       0.413   0.015   6.024  0.00  0.00    +0.049 A 
ATOM      7  C   UNL     1      -0.245   0.455   7.162  0.00  0.00    +0.044 A 
ATOM      8  C   UNL     1      -1.563   0.870   7.082  0.00  0.00    +0.044 A 
ATOM      9  C   UNL     1      -2.227   0.847   5.869  0.00  0.00    +0.042 A 
ATOM     10  C   UNL     1      -1.575   0.413   4.728  0.00  0.00    +0.065 A 
ATOM     11 CL   UNL     1      -2.410   0.393   3.206  0.00  0.00    -0.082 Cl
ATOM     12 CL   UNL     1      -2.385   1.421   8.508  0.00  0.00    -0.083 Cl
BRANCH   6  13
ATOM     13  N   UNL     1       1.745  -0.406   6.103  0.00  0.00    -0.356 N 
ATOM     14  H   UNL     1       2.205  -0.714   5.307  0.00  0.00    +0.142 HD
ATOM     15  H   UNL     1       2.209  -0.389   6.955  0.00  0.00    +0.142 HD
ENDBRANCH   6  13
ENDBRANCH   3   5
BRANCH   1  16
ATOM     16  C   UNL     1       1.914  -0.079   1.722  0.00  0.00    +0.019 C 
BRANCH  16  18
ATOM     17  C   UNL     1       3.571   1.634   2.001  0.00  0.00    -0.095 C 
ATOM     18  N   UNL     1       2.587   1.055   1.075  0.00  0.00    +0.386 N 
ATOM     19  H   UNL     1       1.904   1.756   0.829  0.00  0.00    -0.081 HD
BRANCH  18  20
ATOM     20  C   UNL     1       3.272   0.591  -0.139  0.00  0.00    -0.058 C 
ATOM     21  C   UNL     1       4.018   1.770  -0.761  0.00  0.00    -0.004 C 
ATOM     22  C   UNL     1       4.145   1.577  -2.298  0.00  0.00    +0.067 C 
ATOM     23  S   UNL     1       2.476   0.874  -2.659  0.00  0.00    -0.162 S 
ATOM     24  C   UNL     1       2.229  -0.039  -1.083  0.00  0.00    +0.054 C 
ENDBRANCH  18  20
ENDBRANCH  16  18
ENDBRANCH   1  16
TORSDOF 5
