REMARK  Name = ZINC35667444
REMARK  12 active torsions:
REMARK  status: ('A' for Active; 'I' for Inactive)
REMARK    1  A    between atoms: C_1  and  C_2
REMARK    2  A    between atoms: C_5  and  N_9
REMARK    3  A    between atoms: C_7  and  C_8
REMARK    4  A    between atoms: C_11  and  C_24
REMARK    5  A    between atoms: C_13  and  N_14
REMARK    6  A    between atoms: C_15  and  C_17
REMARK    7  A    between atoms: C_17  and  N_18
REMARK    8  A    between atoms: N_18  and  C_19
REMARK    9  A    between atoms: C_19  and  C_20
REMARK   10  A    between atoms: C_20  and  N_21
REMARK   11  A    between atoms: N_21  and  C_22
REMARK   12  A    between atoms: N_21  and  C_23
REMARK                            x       y       z     vdW  Elec       q    Type
REMARK                         _______ _______ _______ _____ _____    ______ ____
ROOT
ATOM      1  N   UNL     1       0.057  -4.172  -0.021  0.00  0.00    -0.284 N 
ATOM      2  C   UNL     1       0.913  -4.980   0.685  0.00  0.00    +0.123 A 
ATOM      3  C   UNL     1       0.582  -6.263   0.386  0.00  0.00    +0.091 A 
ATOM      4  N   UNL     1      -0.450  -6.240  -0.480  0.00  0.00    -0.210 NA
ATOM      5  C   UNL     1      -0.779  -4.991  -0.729  0.00  0.00    +0.239 A 
ENDROOT
BRANCH   1  10
ATOM      6  C   UNL     1      -0.018   1.503   0.010  0.00  0.00    +0.044 C 
ATOM      7  C   UNL     1       0.002  -0.004   0.002  0.00  0.00    -0.047 A 
ATOM      8  C   UNL     1       0.006  -0.688  -1.200  0.00  0.00    +0.005 A 
ATOM      9  C   UNL     1       0.024  -2.068  -1.211  0.00  0.00    +0.026 A 
ATOM     10  C   UNL     1       0.039  -2.771  -0.013  0.00  0.00    +0.050 A 
ATOM     11  C   UNL     1       0.036  -2.082   1.192  0.00  0.00    +0.030 A 
ATOM     12  C   UNL     1       0.023  -0.700   1.196  0.00  0.00    -0.046 A 
ATOM     13  C   UNL     1       0.025   0.048   2.504  0.00  0.00    +0.044 C 
ENDBRANCH   1  10
BRANCH   3  14
ATOM     14  C   UNL     1       1.243  -7.479   0.921  0.00  0.00    +0.002 A 
ATOM     15  C   UNL     1       2.303  -7.362   1.818  0.00  0.00    +0.011 A 
ATOM     16  C   UNL     1       2.914  -8.496   2.313  0.00  0.00    +0.020 A 
ATOM     17  C   UNL     1       2.476  -9.748   1.919  0.00  0.00    +0.041 A 
ATOM     18  C   UNL     1       1.424  -9.870   1.027  0.00  0.00    +0.020 A 
ATOM     19  C   UNL     1       0.803  -8.743   0.531  0.00  0.00    +0.011 A 
ATOM     20 CL   UNL     1       3.249 -11.171   2.545  0.00  0.00    -0.084 Cl
ENDBRANCH   3  14
BRANCH   5  21
ATOM     21  N   UNL     1      -1.783  -4.582  -1.555  0.00  0.00    -0.178 NA
ATOM     22  C   UNL     1      -2.514  -5.463  -2.177  0.00  0.00    +0.232 C 
ATOM     23  O   UNL     1      -2.279  -6.778  -2.003  0.00  0.00    -0.273 OA
BRANCH  22  24
ATOM     24  C   UNL     1      -3.624  -5.010  -3.091  0.00  0.00    +0.020 C 
BRANCH  24  25
ATOM     25  N   UNL     1      -3.675  -3.542  -3.110  0.00  0.00    +0.384 N 
ATOM     26  H   UNL     1      -3.847  -3.200  -2.176  0.00  0.00    -0.085 HD
ATOM     27  H   UNL     1      -2.795  -3.179  -3.444  0.00  0.00    -0.085 HD
BRANCH  25  28
ATOM     28  C   UNL     1      -4.757  -3.101  -4.000  0.00  0.00    -0.101 C 
BRANCH  28  29
ATOM     29  C   UNL     1      -4.810  -1.572  -4.020  0.00  0.00    -0.099 C 
BRANCH  29  30
ATOM     30  N   UNL     1      -5.892  -1.131  -4.911  0.00  0.00    +0.375 N 
ATOM     31  C   UNL     1      -6.021   0.330  -4.838  0.00  0.00    -0.097 C 
ATOM     32  C   UNL     1      -5.581  -1.527  -6.291  0.00  0.00    -0.097 C 
ATOM     33  H   UNL     1      -6.759  -1.561  -4.625  0.00  0.00    -0.083 HD
ENDBRANCH  29  30
ENDBRANCH  28  29
ENDBRANCH  25  28
ENDBRANCH  24  25
ENDBRANCH  22  24
ENDBRANCH   5  21
TORSDOF 8
