REMARK  Name = ZINC31040444
REMARK  11 active torsions:
REMARK  status: ('A' for Active; 'I' for Inactive)
REMARK    1  A    between atoms: C_1  and  N_2
REMARK    2  A    between atoms: N_2  and  C_3
REMARK    3  A    between atoms: N_2  and  C_17
REMARK    4  A    between atoms: C_3  and  C_4
REMARK    5  A    between atoms: C_4  and  C_5
REMARK    6  A    between atoms: N_7  and  C_8
REMARK    7  A    between atoms: C_13  and  N_14
REMARK    8  A    between atoms: C_17  and  C_18
REMARK    9  A    between atoms: N_20  and  C_21
REMARK   10  A    between atoms: C_26  and  S_27
REMARK   11  A    between atoms: S_27  and  C_28
REMARK                            x       y       z     vdW  Elec       q    Type
REMARK                         _______ _______ _______ _____ _____    ______ ____
ROOT
ATOM      1  C   UNL     1       0.693   0.610  -1.287  0.00  0.00    -0.096 C 
ATOM      2  N   UNL     1       0.701  -0.856  -1.185  0.00  0.00    +0.384 N 
ATOM      3  H   UNL     1      -0.245  -1.202  -1.244  0.00  0.00    -0.082 HD
ENDROOT
BRANCH   2   4
ATOM      4  C   UNL     1       1.498  -1.419  -2.283  0.00  0.00    -0.069 C 
BRANCH   4   5
ATOM      5  C   UNL     1       0.817  -1.109  -3.618  0.00  0.00    +0.077 C 
BRANCH   5   6
ATOM      6  C   UNL     1       1.635  -1.687  -4.745  0.00  0.00    +0.215 C 
ATOM      7  O   UNL     1       2.661  -2.287  -4.504  0.00  0.00    -0.276 OA
ATOM      8  N   UNL     1       1.226  -1.537  -6.020  0.00  0.00    -0.284 N 
ATOM      9  H   UNL     1       0.373  -1.114  -6.209  0.00  0.00    +0.155 HD
BRANCH   8  10
ATOM     10  C   UNL     1       2.031  -1.990  -7.071  0.00  0.00    +0.064 A 
ATOM     11  C   UNL     1       2.788  -3.144  -6.919  0.00  0.00    +0.025 A 
ATOM     12  C   UNL     1       3.582  -3.589  -7.958  0.00  0.00    +0.002 A 
ATOM     13  C   UNL     1       3.622  -2.887  -9.149  0.00  0.00    +0.002 A 
ATOM     14  C   UNL     1       2.869  -1.738  -9.303  0.00  0.00    +0.034 A 
ATOM     15  C   UNL     1       2.069  -1.291  -8.270  0.00  0.00    +0.147 A 
BRANCH  15  16
ATOM     16  N   UNL     1       1.258  -0.064  -8.438  0.00  0.00    +0.058 N 
ATOM     17  O   UNL     1       1.216   0.490  -9.511  0.00  0.00    -0.126 OA
ATOM     18  O   UNL     1       0.638   0.384  -7.502  0.00  0.00    -0.126 OA
ENDBRANCH  15  16
ENDBRANCH   8  10
ENDBRANCH   5   6
ENDBRANCH   4   5
ENDBRANCH   2   4
BRANCH   2  19
ATOM     19  C   UNL     1       1.289  -1.254   0.101  0.00  0.00    +0.018 C 
BRANCH  19  20
ATOM     20  C   UNL     1       0.405  -0.781   1.226  0.00  0.00    +0.201 C 
ATOM     21  O   UNL     1      -0.615  -0.172   0.980  0.00  0.00    -0.278 OA
ATOM     22  N   UNL     1       0.747  -1.034   2.504  0.00  0.00    -0.286 N 
ATOM     23  H   UNL     1       1.528  -1.577   2.699  0.00  0.00    +0.155 HD
BRANCH  22  24
ATOM     24  C   UNL     1      -0.024  -0.514   3.552  0.00  0.00    +0.047 A 
ATOM     25  C   UNL     1      -1.398  -0.392   3.410  0.00  0.00    +0.024 A 
ATOM     26  C   UNL     1      -2.157   0.121   4.446  0.00  0.00    +0.002 A 
ATOM     27  C   UNL     1      -1.551   0.514   5.625  0.00  0.00    +0.001 A 
ATOM     28  C   UNL     1      -0.182   0.396   5.776  0.00  0.00    +0.016 A 
ATOM     29  C   UNL     1       0.587  -0.124   4.744  0.00  0.00    +0.029 A 
BRANCH  29  30
ATOM     30  S   UNL     1       2.332  -0.282   4.936  0.00  0.00    -0.127 S 
ATOM     31  C   UNL     1       2.647   0.340   6.610  0.00  0.00    +0.090 C 
ENDBRANCH  29  30
ENDBRANCH  22  24
ENDBRANCH  19  20
ENDBRANCH   2  19
TORSDOF 9
