REMARK  Name = ZINC09329333
REMARK  12 active torsions:
REMARK  status: ('A' for Active; 'I' for Inactive)
REMARK    1  A    between atoms: C_1  and  C_2
REMARK    2  A    between atoms: C_2  and  C_3
REMARK    3  A    between atoms: C_3  and  O_4
REMARK    4  A    between atoms: O_4  and  C_5
REMARK    5  A    between atoms: C_8  and  C_11
REMARK    6  A    between atoms: C_18  and  N_34
REMARK    7  A    between atoms: C_19  and  C_32
REMARK    8  A    between atoms: C_20  and  C_22
REMARK    9  A    between atoms: C_27  and  O_28
REMARK   10  A    between atoms: O_28  and  C_29
REMARK   11  A    between atoms: C_29  and  C_30
REMARK   12  A    between atoms: C_30  and  C_31
REMARK                            x       y       z     vdW  Elec       q    Type
REMARK                         _______ _______ _______ _____ _____    ______ ____
ROOT
ATOM      1  C   UNL     1       3.035  -4.285  -5.877  0.00  0.00    +0.100 A 
ATOM      2  C   UNL     1       3.858  -5.406  -5.742  0.00  0.00    +0.054 A 
ATOM      3  C   UNL     1       4.314  -5.747  -6.983  0.00  0.00    +0.223 A 
ATOM      4  N   UNL     1       3.793  -4.871  -7.867  0.00  0.00    -0.246 N 
ATOM      5  H   UNL     1       3.944  -4.870  -8.825  0.00  0.00    +0.192 HD
ATOM      6  N   UNL     1       2.991  -3.965  -7.157  0.00  0.00    -0.171 NA
ATOM      7  O   UNL     1       5.145  -6.799  -7.194  0.00  0.00    -0.423 OA
ATOM      8  C   UNL     1       5.741  -7.350  -6.117  0.00  0.00    +0.200 C 
ATOM      9  C   UNL     1       5.370  -7.100  -4.842  0.00  0.00    +0.098 C 
ATOM     10  C   UNL     1       4.234  -6.169  -4.498  0.00  0.00    +0.105 C 
ENDROOT
BRANCH   1  14
ATOM     11  C   UNL     1       1.012  -2.272  -2.722  0.00  0.00    +0.121 A 
ATOM     12  C   UNL     1       0.358  -2.510  -3.923  0.00  0.00    +0.046 A 
ATOM     13  C   UNL     1       1.011  -3.163  -4.948  0.00  0.00    +0.013 A 
ATOM     14  C   UNL     1       2.329  -3.582  -4.777  0.00  0.00    +0.003 A 
ATOM     15  C   UNL     1       2.983  -3.341  -3.570  0.00  0.00    +0.013 A 
ATOM     16  C   UNL     1       2.326  -2.683  -2.551  0.00  0.00    +0.046 A 
BRANCH  11  17
ATOM     17  O   UNL     1       0.365  -1.629  -1.715  0.00  0.00    -0.492 OA
BRANCH  17  18
ATOM     18  C   UNL     1      -0.986  -1.233  -1.959  0.00  0.00    +0.229 C 
BRANCH  18  20
ATOM     19  C   UNL     1      -2.989  -0.105  -0.981  0.00  0.00    +0.007 C 
ATOM     20  C   UNL     1      -1.543  -0.529  -0.720  0.00  0.00    +0.038 C 
ENDBRANCH  18  20
ENDBRANCH  17  18
ENDBRANCH  11  17
ENDBRANCH   1  14
BRANCH  10  21
ATOM     21  C   UNL     1       3.051  -6.968  -4.016  0.00  0.00    +0.007 A 
ATOM     22  C   UNL     1       2.410  -7.842  -4.873  0.00  0.00    +0.008 A 
ATOM     23  C   UNL     1       1.324  -8.574  -4.431  0.00  0.00    +0.001 A 
ATOM     24  C   UNL     1       0.877  -8.436  -3.129  0.00  0.00    +0.004 A 
ATOM     25  C   UNL     1       1.515  -7.564  -2.268  0.00  0.00    +0.046 A 
ATOM     26  C   UNL     1       2.608  -6.832  -2.708  0.00  0.00    +0.125 A 
BRANCH  26  27
ATOM     27  O   UNL     1       3.241  -5.978  -1.861  0.00  0.00    -0.492 OA
BRANCH  27  28
ATOM     28  C   UNL     1       2.706  -5.858  -0.541  0.00  0.00    +0.229 C 
BRANCH  28  29
ATOM     29  C   UNL     1       3.508  -4.816   0.242  0.00  0.00    +0.038 C 
ATOM     30  C   UNL     1       3.012  -4.773   1.688  0.00  0.00    +0.007 C 
ENDBRANCH  28  29
ENDBRANCH  27  28
ENDBRANCH  26  27
ENDBRANCH  10  21
BRANCH   8  31
ATOM     31  N   UNL     1       6.786  -8.215  -6.329  0.00  0.00    -0.328 N 
ATOM     32  H   UNL     1       7.075  -8.415  -7.234  0.00  0.00    +0.145 HD
ATOM     33  H   UNL     1       7.235  -8.627  -5.575  0.00  0.00    +0.145 HD
ENDBRANCH   8  31
BRANCH   9  34
ATOM     34  C   UNL     1       6.082  -7.742  -3.778  0.00  0.00    +0.101 C 
ATOM     35  N   UNL     1       6.646  -8.252  -2.934  0.00  0.00    -0.191 NA
ENDBRANCH   9  34
TORSDOF 10
