REMARK  Name = ZINC02507748
REMARK  8 active torsions:
REMARK  status: ('A' for Active; 'I' for Inactive)
REMARK    1  A    between atoms: C_1  and  C_2
REMARK    2  A    between atoms: C_2  and  C_3
REMARK    3  A    between atoms: C_3  and  C_4
REMARK    4  A    between atoms: C_4  and  C_5
REMARK    5  A    between atoms: C_5  and  N_6
REMARK    6  A    between atoms: N_17  and  C_20
REMARK    7  A    between atoms: C_20  and  C_21
REMARK    8  A    between atoms: C_21  and  C_22
REMARK                            x       y       z     vdW  Elec       q    Type
REMARK                         _______ _______ _______ _____ _____    ______ ____
ROOT
ATOM      1  N   UNL     1       1.523  -4.012   2.465  0.00  0.00    -0.255 N 
ATOM      2  C   UNL     1       0.535  -4.674   3.044  0.00  0.00    +0.259 C 
ATOM      3  O   UNL     1      -0.392  -4.101   3.583  0.00  0.00    -0.269 OA
ATOM      4  C   UNL     1       0.620  -6.159   2.997  0.00  0.00    +0.089 C 
ATOM      5  C   UNL     1      -0.247  -7.108   3.505  0.00  0.00    +0.065 C 
ATOM      6  C   UNL     1      -0.112  -8.578   3.437  0.00  0.00    +0.010 A 
ATOM      7  C   UNL     1       0.848  -9.423   2.886  0.00  0.00    +0.010 A 
ATOM      8  C   UNL     1       0.693 -10.790   2.985  0.00  0.00    +0.001 A 
ATOM      9  C   UNL     1      -0.414 -11.319   3.628  0.00  0.00    +0.002 A 
ATOM     10  C   UNL     1      -1.371 -10.490   4.178  0.00  0.00    +0.024 A 
ATOM     11  C   UNL     1      -1.233  -9.110   4.090  0.00  0.00    +0.044 A 
ATOM     12  N   UNL     1      -2.035  -8.070   4.547  0.00  0.00    -0.267 N 
ATOM     13  C   UNL     1      -1.506  -6.873   4.240  0.00  0.00    +0.253 C 
ATOM     14  O   UNL     1      -1.983  -5.788   4.516  0.00  0.00    -0.270 OA
ATOM     15  S   UNL     1       2.152  -6.378   2.103  0.00  0.00    -0.060 S 
ATOM     16  C   UNL     1       2.545  -4.653   1.863  0.00  0.00    +0.121 C 
ATOM     17  S   UNL     1       3.897  -3.974   1.062  0.00  0.00    -0.027 S 
ENDROOT
BRANCH   1  18
ATOM     18  C   UNL     1       1.503  -2.548   2.473  0.00  0.00    +0.115 C 
BRANCH  18  19
ATOM     19  C   UNL     1       0.763  -2.041   1.233  0.00  0.00    +0.019 C 
BRANCH  19  20
ATOM     20  C   UNL     1       0.742  -0.511   1.242  0.00  0.00    +0.001 C 
BRANCH  20  22
ATOM     21  C   UNL     1      -0.019   1.526   0.010  0.00  0.00    +0.004 C 
ATOM     22  C   UNL     1       0.002  -0.004   0.002  0.00  0.00    -0.003 C 
ENDBRANCH  20  22
ENDBRANCH  19  20
ENDBRANCH  18  19
ENDBRANCH   1  18
BRANCH  12  23
ATOM     23  C   UNL     1      -3.292  -8.255   5.276  0.00  0.00    +0.114 C 
BRANCH  23  24
ATOM     24  C   UNL     1      -3.007  -8.312   6.778  0.00  0.00    +0.016 C 
ATOM     25  C   UNL     1      -4.320  -8.505   7.539  0.00  0.00    +0.005 C 
ENDBRANCH  23  24
ENDBRANCH  12  23
TORSDOF 6
