REMARK  Name = ZINC16741904
REMARK  11 active torsions:
REMARK  status: ('A' for Active; 'I' for Inactive)
REMARK    1  A    between atoms: C_1  and  C_2
REMARK    2  A    between atoms: C_6  and  O_8
REMARK    3  A    between atoms: O_8  and  C_9
REMARK    4  A    between atoms: C_9  and  C_10
REMARK    5  A    between atoms: N_12  and  C_13
REMARK    6  A    between atoms: C_14  and  C_27
REMARK    7  A    between atoms: C_19  and  C_23
REMARK    8  A    between atoms: C_23  and  C_24
REMARK    9  A    between atoms: C_23  and  C_25
REMARK   10  A    between atoms: C_23  and  C_26
REMARK   11  A    between atoms: N_29  and  C_30
REMARK                            x       y       z     vdW  Elec       q    Type
REMARK                         _______ _______ _______ _____ _____    ______ ____
ROOT
ATOM      1  C   UNL     1       1.835   9.566   0.038  0.00  0.00    +0.084 A 
ATOM      2  C   UNL     1       2.787  10.576   0.035  0.00  0.00    +0.069 A 
ATOM      3  C   UNL     1       2.309  11.948   0.047  0.00  0.00    -0.023 A 
ATOM      4  C   UNL     1       0.966  12.089   0.060  0.00  0.00    -0.004 A 
ATOM      5  S   UNL     1       0.337  10.435   0.050  0.00  0.00    -0.077 S 
ATOM      6  C   UNL     1       0.193  13.372   0.074  0.00  0.00    +0.046 C 
ATOM      7  C   UNL     1       1.145  14.515  -0.306  0.00  0.00    -0.000 C 
ATOM      8  C   UNL     1       2.429  14.382   0.518  0.00  0.00    +0.009 C 
ATOM      9  C   UNL     1       3.226  13.165   0.047  0.00  0.00    +0.037 C 
ENDROOT
BRANCH   1  12
ATOM     10  C   UNL     1       0.978   7.358   0.034  0.00  0.00    +0.255 C 
ATOM     11  O   UNL     1      -0.149   7.806   0.047  0.00  0.00    -0.272 OA
ATOM     12  N   UNL     1       2.036   8.193   0.029  0.00  0.00    -0.277 N 
ATOM     13  H   UNL     1       2.937   7.835   0.018  0.00  0.00    +0.155 HD
BRANCH  10  14
ATOM     14  C   UNL     1       1.196   5.867   0.023  0.00  0.00    +0.324 C 
BRANCH  14  15
ATOM     15  O   UNL     1      -0.069   5.201   0.031  0.00  0.00    -0.483 OA
BRANCH  15  21
ATOM     16  C   UNL     1      -2.514   0.977   0.019  0.00  0.00    +0.044 C 
ATOM     17  C   UNL     1      -1.220   1.750   0.017  0.00  0.00    -0.047 A 
ATOM     18  C   UNL     1      -0.013   1.076   0.008  0.00  0.00    +0.003 A 
ATOM     19  C   UNL     1       1.176   1.782   0.000  0.00  0.00    +0.004 A 
ATOM     20  C   UNL     1       1.160   3.164   0.008  0.00  0.00    +0.045 A 
ATOM     21  C   UNL     1      -0.050   3.842   0.023  0.00  0.00    +0.121 A 
ATOM     22  C   UNL     1      -1.242   3.131   0.031  0.00  0.00    +0.049 A 
ENDBRANCH  15  21
ENDBRANCH  14  15
ENDBRANCH  10  14
ENDBRANCH   1  12
BRANCH   7  23
ATOM     23  C   UNL     1       0.479  15.859  -0.005  0.00  0.00    -0.035 C 
ATOM     24  C   UNL     1       1.437  16.995  -0.369  0.00  0.00    +0.011 C 
ATOM     25  C   UNL     1      -0.803  15.989  -0.830  0.00  0.00    +0.011 C 
ATOM     26  C   UNL     1       0.138  15.937   1.484  0.00  0.00    +0.011 C 
ENDBRANCH   7  23
BRANCH   2  27
ATOM     27  C   UNL     1       4.221  10.270   0.019  0.00  0.00    +0.247 C 
ATOM     28  O   UNL     1       4.805  10.149  -1.041  0.00  0.00    -0.270 OA
ATOM     29  N   UNL     1       4.891  10.123   1.179  0.00  0.00    -0.307 N 
ATOM     30  H   UNL     1       4.425  10.219   2.024  0.00  0.00    +0.149 HD
BRANCH  29  31
ATOM     31  C   UNL     1       6.324   9.817   1.163  0.00  0.00    +0.096 C 
ATOM     32  C   UNL     1       6.529   8.297   1.060  0.00  0.00    +0.046 C 
ATOM     33  C   UNL     1       8.005   7.942   1.363  0.00  0.00    +0.168 C 
ATOM     34  S   UNL     1       8.524   9.301   2.488  0.00  0.00    -0.029 S 
ATOM     35  O   UNL     1       9.561  10.047   1.865  0.00  0.00    -0.174 OA
ATOM     36  O   UNL     1       8.729   8.770   3.790  0.00  0.00    -0.174 OA
ATOM     37  C   UNL     1       6.979  10.305   2.487  0.00  0.00    +0.188 C 
ENDBRANCH  29  31
ENDBRANCH   2  27
TORSDOF 7
