REMARK  Name = ZINC13882129
REMARK  6 active torsions:
REMARK  status: ('A' for Active; 'I' for Inactive)
REMARK    1  A    between atoms: C_1  and  N_2
REMARK    2  A    between atoms: C_13  and  C_15
REMARK    3  A    between atoms: C_17  and  C_37
REMARK    4  A    between atoms: C_18  and  N_36
REMARK    5  A    between atoms: N_19  and  C_27
REMARK    6  A    between atoms: C_32  and  N_33
REMARK                            x       y       z     vdW  Elec       q    Type
REMARK                         _______ _______ _______ _____ _____    ______ ____
ROOT
ATOM      1  C   UNL     1      -0.013   1.086   0.008  0.00  0.00    +0.097 C 
ATOM      2  C   UNL     1      -0.752   1.561   1.224  0.00  0.00    +0.077 C 
ATOM      3  C   UNL     1      -0.300   2.614   1.953  0.00  0.00    +0.107 C 
ATOM      4  N   UNL     1       0.858   3.261   1.586  0.00  0.00    -0.258 N 
ATOM      5  C   UNL     1       1.768   2.648   0.765  0.00  0.00    +0.025 C 
ATOM      6  C   UNL     1       1.405   1.599  -0.003  0.00  0.00    +0.025 C 
ATOM      7  C   UNL     1       2.336   0.953  -0.834  0.00  0.00    +0.162 C 
ATOM      8  O   UNL     1       1.974   0.018  -1.521  0.00  0.00    -0.292 OA
ATOM      9  C   UNL     1       3.772   1.397  -0.890  0.00  0.00    +0.080 C 
ATOM     10  C   UNL     1       4.153   2.025   0.455  0.00  0.00    +0.014 C 
ATOM     11  C   UNL     1       3.183   3.173   0.746  0.00  0.00    +0.052 C 
ENDROOT
BRANCH   1  24
ATOM     12  C   UNL     1      -3.072   3.983  -5.261  0.00  0.00    +0.149 C 
ATOM     13  N   UNL     1      -2.721   2.683  -4.684  0.00  0.00    -0.343 N 
ATOM     14  C   UNL     1      -3.025   1.458  -5.251  0.00  0.00    +0.050 A 
ATOM     15  C   UNL     1      -3.688   1.107  -6.423  0.00  0.00    +0.026 A 
ATOM     16  C   UNL     1      -3.853  -0.221  -6.751  0.00  0.00    +0.002 A 
ATOM     17  C   UNL     1      -3.362  -1.218  -5.923  0.00  0.00    +0.001 A 
ATOM     18  C   UNL     1      -2.702  -0.891  -4.758  0.00  0.00    +0.010 A 
ATOM     19  C   UNL     1      -2.529   0.448  -4.414  0.00  0.00    +0.008 A 
ATOM     20  C   UNL     1      -1.888   1.127  -3.273  0.00  0.00    +0.008 A 
ATOM     21  C   UNL     1      -2.038   2.504  -3.494  0.00  0.00    +0.050 A 
ATOM     22  C   UNL     1      -1.523   3.403  -2.566  0.00  0.00    +0.027 A 
ATOM     23  C   UNL     1      -0.877   2.938  -1.440  0.00  0.00    +0.006 A 
ATOM     24  C   UNL     1      -0.726   1.577  -1.226  0.00  0.00    -0.034 A 
ATOM     25  C   UNL     1      -1.230   0.671  -2.134  0.00  0.00    +0.015 A 
ENDBRANCH   1  24
BRANCH   4  26
ATOM     26  C   UNL     1       1.108   4.556   2.055  0.00  0.00    +0.070 A 
ATOM     27  C   UNL     1       0.673   5.656   1.327  0.00  0.00    +0.026 A 
ATOM     28  C   UNL     1       0.921   6.933   1.793  0.00  0.00    +0.002 A 
ATOM     29  C   UNL     1       1.602   7.116   2.982  0.00  0.00    +0.002 A 
ATOM     30  C   UNL     1       2.036   6.023   3.709  0.00  0.00    +0.034 A 
ATOM     31  C   UNL     1       1.787   4.744   3.252  0.00  0.00    +0.148 A 
BRANCH  31  32
ATOM     32  N   UNL     1       2.248   3.575   4.034  0.00  0.00    +0.058 N 
ATOM     33  O   UNL     1       2.843   3.740   5.083  0.00  0.00    -0.126 OA
ATOM     34  O   UNL     1       2.031   2.447   3.628  0.00  0.00    -0.126 OA
ENDBRANCH  31  32
ENDBRANCH   4  26
BRANCH   3  35
ATOM     35  N   UNL     1      -1.000   3.034   3.059  0.00  0.00    -0.345 N 
ATOM     36  H   UNL     1      -0.677   3.786   3.580  0.00  0.00    +0.144 HD
ATOM     37  H   UNL     1      -1.816   2.578   3.318  0.00  0.00    +0.144 HD
ENDBRANCH   3  35
BRANCH   2  38
ATOM     38  C   UNL     1      -1.954   0.893   1.623  0.00  0.00    +0.099 C 
ATOM     39  N   UNL     1      -2.908   0.363   1.939  0.00  0.00    -0.191 NA
ENDBRANCH   2  38
TORSDOF 5
