REMARK  Name = ZINC16481760
REMARK  5 active torsions:
REMARK  status: ('A' for Active; 'I' for Inactive)
REMARK    1  A    between atoms: C_5  and  S_7
REMARK    2  A    between atoms: S_7  and  C_8
REMARK    3  A    between atoms: C_8  and  C_9
REMARK    4  A    between atoms: N_11  and  C_12
REMARK    5  A    between atoms: C_15  and  N_19
REMARK                            x       y       z     vdW  Elec       q    Type
REMARK                         _______ _______ _______ _____ _____    ______ ____
ROOT
ATOM      1  C   UNL     1      -1.875  -1.969   0.016  0.00  0.00    +0.227 C 
ATOM      2  O   UNL     1      -0.878  -2.660  -0.001  0.00  0.00    -0.275 OA
ATOM      3  N   UNL     1      -3.094  -2.545   0.018  0.00  0.00    -0.284 N 
ATOM      4  H   UNL     1      -3.889  -1.996   0.097  0.00  0.00    +0.155 HD
ENDROOT
BRANCH   3   5
ATOM      5  C   UNL     1      -3.211  -3.935  -0.094  0.00  0.00    +0.052 A 
ATOM      6  C   UNL     1      -2.257  -4.763   0.484  0.00  0.00    +0.027 A 
ATOM      7  C   UNL     1      -2.376  -6.134   0.371  0.00  0.00    +0.034 A 
ATOM      8  C   UNL     1      -3.443  -6.684  -0.316  0.00  0.00    +0.128 A 
ATOM      9  C   UNL     1      -4.395  -5.864  -0.892  0.00  0.00    +0.054 A 
ATOM     10  C   UNL     1      -4.285  -4.490  -0.779  0.00  0.00    +0.064 A 
ATOM     11 CL   UNL     1      -5.484  -3.460  -1.497  0.00  0.00    -0.082 Cl
BRANCH   8  12
ATOM     12  N   UNL     1      -3.567  -8.155  -0.433  0.00  0.00    +0.056 N 
ATOM     13  O   UNL     1      -2.730  -8.879   0.075  0.00  0.00    -0.126 OA
ATOM     14  O   UNL     1      -4.506  -8.640  -1.038  0.00  0.00    -0.126 OA
ENDBRANCH   8  12
ENDBRANCH   3   5
BRANCH   1  15
ATOM     15  C   UNL     1      -1.751  -0.468   0.035  0.00  0.00    +0.170 C 
BRANCH  15  16
ATOM     16  S   UNL     1       0.003  -0.005   0.027  0.00  0.00    -0.114 S 
BRANCH  16  21
ATOM     17  C   UNL     1      -1.246   3.817   0.087  0.00  0.00    +0.001 A 
ATOM     18  C   UNL     1      -0.056   4.524   0.087  0.00  0.00    +0.001 A 
ATOM     19  C   UNL     1       1.152   3.850   0.069  0.00  0.00    +0.021 A 
ATOM     20  C   UNL     1       1.174   2.469   0.050  0.00  0.00    +0.054 A 
ATOM     21  C   UNL     1      -0.020   1.756   0.050  0.00  0.00    +0.027 A 
ATOM     22  C   UNL     1      -1.231   2.437   0.063  0.00  0.00    +0.016 A 
ATOM     23 CL   UNL     1       2.691   1.624   0.026  0.00  0.00    -0.082 Cl
ENDBRANCH  16  21
ENDBRANCH  15  16
ENDBRANCH   1  15
TORSDOF 5
