REMARK  Name = ZINC19321240
REMARK  4 active torsions:
REMARK  status: ('A' for Active; 'I' for Inactive)
REMARK    1  A    between atoms: C_1  and  C_2
REMARK    2  A    between atoms: C_5  and  C_9
REMARK    3  A    between atoms: C_6  and  C_8
REMARK    4  A    between atoms: C_9  and  C_10
REMARK                            x       y       z     vdW  Elec       q    Type
REMARK                         _______ _______ _______ _____ _____    ______ ____
ROOT
ATOM      1  C   UNL     1       1.988   1.561  -1.505  0.00  0.00    +0.031 C 
ATOM      2  C   UNL     1       1.118   2.014  -0.321  0.00  0.00    -0.061 C 
ATOM      3  N   UNL     1      -0.248   1.505  -0.499  0.00  0.00    +0.389 N 
ATOM      4  C   UNL     1      -0.894   2.064  -1.694  0.00  0.00    -0.065 C 
ATOM      5  C   UNL     1      -0.124   1.615  -2.946  0.00  0.00    +0.053 C 
ATOM      6  C   UNL     1       1.315   2.083  -2.769  0.00  0.00    +0.142 C 
ATOM      7  O   UNL     1       1.874   2.804  -3.561  0.00  0.00    -0.297 OA
ATOM      8  C   UNL     1      -0.083   0.077  -2.958  0.00  0.00    +0.091 C 
ATOM      9  N   UNL     1       0.531  -0.401  -1.712  0.00  0.00    -0.317 NA
ATOM     10  C   UNL     1       1.931   0.026  -1.584  0.00  0.00    +0.095 C 
ATOM     11  C   UNL     1      -0.254   0.035  -0.546  0.00  0.00    +0.008 C 
ATOM     12  H   UNL     1      -0.834   1.835   0.372  0.00  0.00    -0.080 HD
ENDROOT
BRANCH   1  13
ATOM     13  C   UNL     1       3.426   2.064  -1.370  0.00  0.00    +0.049 C 
BRANCH  13  18
ATOM     14  C   UNL     1       3.484   7.836  -1.643  0.00  0.00    +0.044 C 
ATOM     15  C   UNL     1       3.469   6.331  -1.572  0.00  0.00    -0.050 A 
ATOM     16  C   UNL     1       2.960   5.697  -0.454  0.00  0.00    +0.003 A 
ATOM     17  C   UNL     1       2.946   4.316  -0.389  0.00  0.00    +0.004 A 
ATOM     18  C   UNL     1       3.441   3.570  -1.442  0.00  0.00    -0.044 A 
ATOM     19  C   UNL     1       3.954   4.204  -2.558  0.00  0.00    -0.047 A 
ATOM     20  C   UNL     1       3.963   5.585  -2.625  0.00  0.00    +0.007 A 
ATOM     21  C   UNL     1       4.500   3.390  -3.703  0.00  0.00    +0.044 C 
ENDBRANCH  13  18
ENDBRANCH   1  13
TORSDOF 2
