REMARK  Name = ZINC12502483
REMARK  7 active torsions:
REMARK  status: ('A' for Active; 'I' for Inactive)
REMARK    1  A    between atoms: C_1  and  C_2
REMARK    2  A    between atoms: N_4  and  C_5
REMARK    3  A    between atoms: C_8  and  C_11
REMARK    4  A    between atoms: N_13  and  N_14
REMARK    5  A    between atoms: N_14  and  C_15
REMARK    6  A    between atoms: C_15  and  N_17
REMARK    7  A    between atoms: C_18  and  C_20
REMARK                            x       y       z     vdW  Elec       q    Type
REMARK                         _______ _______ _______ _____ _____    ______ ____
ROOT
ATOM      1  N   UNL     1       2.356   1.191   0.018  0.00  0.00    -0.245 N 
ATOM      2  H   UNL     1       2.366   0.221   0.021  0.00  0.00    +0.172 HD
ENDROOT
BRANCH   1   5
ATOM      3  C   UNL     1      -0.024   1.194   0.038  0.00  0.00    +0.260 C 
ATOM      4  O   UNL     1      -0.012  -0.022   0.041  0.00  0.00    -0.269 OA
ATOM      5  N   UNL     1       1.136   1.879   0.027  0.00  0.00    -0.231 N 
ATOM      6  H   UNL     1       1.126   2.849   0.024  0.00  0.00    +0.173 HD
BRANCH   3  10
ATOM      7  C   UNL     1      -3.723   3.281   0.046  0.00  0.00    +0.033 A 
ATOM      8  C   UNL     1      -3.711   1.889   0.049  0.00  0.00    +0.024 A 
ATOM      9  C   UNL     1      -2.514   1.210   0.046  0.00  0.00    +0.015 A 
ATOM     10  C   UNL     1      -1.310   1.919   0.040  0.00  0.00    +0.038 A 
ATOM     11  C   UNL     1      -1.325   3.316   0.043  0.00  0.00    +0.015 A 
ATOM     12  C   UNL     1      -2.526   3.990   0.040  0.00  0.00    +0.024 A 
BRANCH   7  16
ATOM     13  C   UNL     1      -7.277   4.253  -0.704  0.00  0.00    +0.109 C 
ATOM     14  C   UNL     1      -5.996   3.464  -0.620  0.00  0.00    +0.214 C 
ATOM     15  O   UNL     1      -5.917   2.378  -1.153  0.00  0.00    -0.276 OA
ATOM     16  N   UNL     1      -4.938   3.966   0.048  0.00  0.00    -0.286 N 
ATOM     17  H   UNL     1      -5.021   4.803   0.530  0.00  0.00    +0.155 HD
ENDBRANCH   7  16
ENDBRANCH   3  10
ENDBRANCH   1   5
BRANCH   1  18
ATOM     18  C   UNL     1       3.517   1.876   0.007  0.00  0.00    +0.153 C 
ATOM     19  S   UNL     1       5.008   1.035  -0.003  0.00  0.00    -0.017 S 
BRANCH  18  20
ATOM     20  N   UNL     1       3.503   3.224   0.004  0.00  0.00    -0.262 N 
ATOM     21  C   UNL     1       4.664   3.910  -0.007  0.00  0.00    +0.258 C 
ATOM     22  O   UNL     1       5.723   3.312  -0.014  0.00  0.00    -0.269 OA
ATOM     23  H   UNL     1       2.658   3.701   0.010  0.00  0.00    +0.157 HD
BRANCH  21  24
ATOM     24  C   UNL     1       4.649   5.377  -0.011  0.00  0.00    +0.094 A 
ATOM     25  C   UNL     1       5.705   6.236  -0.016  0.00  0.00    +0.068 A 
ATOM     26  C   UNL     1       5.479   7.625  -0.022  0.00  0.00    +0.008 A 
ATOM     27  C   UNL     1       6.438   8.671  -0.033  0.00  0.00    +0.010 A 
ATOM     28  C   UNL     1       6.047   9.971  -0.033  0.00  0.00    +0.001 A 
ATOM     29  C   UNL     1       4.704  10.329  -0.023  0.00  0.00    +0.001 A 
ATOM     30  C   UNL     1       3.738   9.343  -0.011  0.00  0.00    +0.016 A 
ATOM     31  C   UNL     1       4.120   8.018  -0.012  0.00  0.00    +0.021 A 
ATOM     32  S   UNL     1       3.242   6.475  -0.001  0.00  0.00    -0.082 S 
ATOM     33 CL   UNL     1       7.328   5.619  -0.019  0.00  0.00    -0.082 Cl
ENDBRANCH  21  24
ENDBRANCH  18  20
ENDBRANCH   1  18
TORSDOF 6
