REMARK  Name = ZINC41078080
REMARK  9 active torsions:
REMARK  status: ('A' for Active; 'I' for Inactive)
REMARK    1  A    between atoms: C_1  and  C_2
REMARK    2  A    between atoms: C_2  and  C_3
REMARK    3  A    between atoms: C_3  and  N_4
REMARK    4  A    between atoms: N_4  and  C_5
REMARK    5  A    between atoms: C_5  and  C_6
REMARK    6  A    between atoms: C_15  and  C_19
REMARK    7  A    between atoms: C_17  and  C_18
REMARK    8  A    between atoms: N_22  and  C_23
REMARK    9  A    between atoms: C_26  and  C_29
REMARK                            x       y       z     vdW  Elec       q    Type
REMARK                         _______ _______ _______ _____ _____    ______ ____
ROOT
ATOM      1  N   UNL     1      -1.439  -2.104  -0.048  0.00  0.00    -0.281 N 
ATOM      2  C   UNL     1      -1.502  -2.924  -1.116  0.00  0.00    +0.307 C 
ATOM      3  O   UNL     1      -1.428  -4.128  -0.963  0.00  0.00    -0.252 OA
ATOM      4  N   UNL     1      -1.646  -2.409  -2.353  0.00  0.00    -0.269 N 
ATOM      5  H   UNL     1      -1.772  -1.455  -2.470  0.00  0.00    +0.156 HD
ENDROOT
BRANCH   4   6
ATOM      6  C   UNL     1      -1.616  -3.252  -3.470  0.00  0.00    +0.035 A 
ATOM      7  C   UNL     1      -1.042  -2.815  -4.657  0.00  0.00    +0.023 A 
ATOM      8  C   UNL     1      -1.013  -3.650  -5.757  0.00  0.00    +0.005 A 
ATOM      9  C   UNL     1      -1.555  -4.920  -5.677  0.00  0.00    -0.050 A 
ATOM     10  C   UNL     1      -2.127  -5.358  -4.497  0.00  0.00    +0.005 A 
ATOM     11  C   UNL     1      -2.154  -4.530  -3.392  0.00  0.00    +0.023 A 
ATOM     12  C   UNL     1      -1.521  -5.828  -6.879  0.00  0.00    +0.044 C 
ENDBRANCH   4   6
BRANCH   1  13
ATOM     13  C   UNL     1      -1.528  -0.653  -0.233  0.00  0.00    +0.109 C 
BRANCH  13  15
ATOM     14  C   UNL     1      -0.212   1.452  -0.509  0.00  0.00    +0.005 C 
ATOM     15  C   UNL     1      -0.119  -0.063  -0.316  0.00  0.00    +0.016 C 
ENDBRANCH  13  15
ENDBRANCH   1  13
BRANCH   1  16
ATOM     16  C   UNL     1      -1.282  -2.663   1.296  0.00  0.00    +0.145 C 
BRANCH  16  17
ATOM     17  C   UNL     1      -2.633  -3.044   1.843  0.00  0.00    -0.016 A 
ATOM     18  C   UNL     1      -3.106  -4.308   1.706  0.00  0.00    +0.076 A 
ATOM     19  C   UNL     1      -4.373  -4.653   2.222  0.00  0.00    +0.249 A 
ATOM     20  O   UNL     1      -4.778  -5.795   2.087  0.00  0.00    -0.268 OA
ATOM     21  N   UNL     1      -5.144  -3.754   2.858  0.00  0.00    -0.322 N 
ATOM     22  H   UNL     1      -6.011  -4.025   3.201  0.00  0.00    +0.169 HD
ATOM     23  C   UNL     1      -4.722  -2.454   3.032  0.00  0.00    +0.052 A 
ATOM     24  C   UNL     1      -3.463  -2.059   2.540  0.00  0.00    +0.004 A 
ATOM     25  C   UNL     1      -3.027  -0.743   2.718  0.00  0.00    +0.013 A 
ATOM     26  C   UNL     1      -3.825   0.152   3.373  0.00  0.00    -0.050 A 
ATOM     27  C   UNL     1      -5.065  -0.234   3.864  0.00  0.00    +0.008 A 
ATOM     28  C   UNL     1      -5.519  -1.524   3.690  0.00  0.00    -0.026 A 
ATOM     29  C   UNL     1      -6.868  -1.929   4.228  0.00  0.00    +0.046 C 
ATOM     30  C   UNL     1      -3.355   1.571   3.565  0.00  0.00    +0.044 C 
ENDBRANCH  16  17
ENDBRANCH   1  16
TORSDOF 5
