REMARK  Name = ZINC08645031
REMARK  10 active torsions:
REMARK  status: ('A' for Active; 'I' for Inactive)
REMARK    1  A    between atoms: C_1  and  C_2
REMARK    2  A    between atoms: C_4  and  C_30
REMARK    3  A    between atoms: C_5  and  N_9
REMARK    4  A    between atoms: C_6  and  C_8
REMARK    5  A    between atoms: C_10  and  C_12
REMARK    6  A    between atoms: C_12  and  C_14
REMARK    7  A    between atoms: C_12  and  S_15
REMARK    8  A    between atoms: S_15  and  C_16
REMARK    9  A    between atoms: C_19  and  C_22
REMARK   10  A    between atoms: N_20  and  N_21
REMARK                            x       y       z     vdW  Elec       q    Type
REMARK                         _______ _______ _______ _____ _____    ______ ____
ROOT
ATOM      1  S   UNL     1       7.229  -0.149  -1.508  0.00  0.00    -0.072 S 
ENDROOT
BRANCH   1   2
ATOM      2  C   UNL     1       8.594  -1.262  -1.438  0.00  0.00    +0.209 A 
ATOM      3  N   UNL     1       8.694  -2.326  -0.673  0.00  0.00    -0.121 NA
ATOM      4  N   UNL     1       9.820  -2.910  -0.874  0.00  0.00    -0.127 NA
ATOM      5  C   UNL     1      10.509  -2.255  -1.779  0.00  0.00    +0.183 A 
ATOM      6  N   UNL     1       9.743  -1.182  -2.172  0.00  0.00    -0.224 N 
BRANCH   5   7
ATOM      7  C   UNL     1      11.853  -2.606  -2.285  0.00  0.00    +0.039 A 
ATOM      8  C   UNL     1      12.844  -1.628  -2.382  0.00  0.00    +0.014 A 
ATOM      9  C   UNL     1      14.098  -1.963  -2.849  0.00  0.00    +0.021 A 
ATOM     10  C   UNL     1      14.371  -3.265  -3.234  0.00  0.00    +0.042 A 
ATOM     11  C   UNL     1      13.392  -4.239  -3.146  0.00  0.00    +0.040 A 
ATOM     12  C   UNL     1      12.135  -3.918  -2.674  0.00  0.00    +0.053 A 
ATOM     13 CL   UNL     1      10.907  -5.140  -2.565  0.00  0.00    -0.083 Cl
ATOM     14 CL   UNL     1      15.950  -3.677  -3.828  0.00  0.00    -0.083 Cl
ENDBRANCH   5   7
BRANCH   6  15
ATOM     15  N   UNL     1      10.065  -0.233  -3.101  0.00  0.00    -0.295 N 
ATOM     16  H   UNL     1      10.595   0.516  -2.683  0.00  0.00    +0.163 HD
ATOM     17  H   UNL     1      10.564  -0.642  -3.877  0.00  0.00    +0.163 HD
ENDBRANCH   6  15
ENDBRANCH   1   2
BRANCH   1  18
ATOM     18  C   UNL     1       6.137  -0.914  -0.284  0.00  0.00    +0.137 C 
ATOM     19  C   UNL     1       6.788  -0.839   1.098  0.00  0.00    +0.029 C 
BRANCH  18  21
ATOM     20  N   UNL     1       3.725  -0.782   0.251  0.00  0.00    -0.284 N 
ATOM     21  C   UNL     1       4.819  -0.183  -0.260  0.00  0.00    +0.230 C 
ATOM     22  O   UNL     1       4.744   0.945  -0.700  0.00  0.00    -0.274 OA
ATOM     23  H   UNL     1       3.801  -1.651   0.674  0.00  0.00    +0.155 HD
BRANCH  20  28
ATOM     24  C   UNL     1      -1.323   1.787  -0.076  0.00  0.00    +0.044 C 
ATOM     25  C   UNL     1       0.017   1.103   0.015  0.00  0.00    -0.050 A 
ATOM     26  C   UNL     1       1.079   1.743   0.627  0.00  0.00    +0.008 A 
ATOM     27  C   UNL     1       2.309   1.121   0.707  0.00  0.00    -0.029 A 
ATOM     28  C   UNL     1       2.480  -0.149   0.172  0.00  0.00    +0.039 A 
ATOM     29  C   UNL     1       1.412  -0.789  -0.443  0.00  0.00    -0.029 A 
ATOM     30  C   UNL     1       0.184  -0.162  -0.519  0.00  0.00    +0.008 A 
ATOM     31  C   UNL     1       1.593  -2.167  -1.025  0.00  0.00    +0.045 C 
ATOM     32  C   UNL     1       3.465   1.820   1.375  0.00  0.00    +0.045 C 
ENDBRANCH  20  28
ENDBRANCH  18  21
ENDBRANCH   1  18
TORSDOF 6
