REMARK  Name = ZINC06161346
REMARK  4 active torsions:
REMARK  status: ('A' for Active; 'I' for Inactive)
REMARK    1  A    between atoms: C_4  and  C_7
REMARK    2  A    between atoms: N_17  and  N_18
REMARK    3  A    between atoms: N_20  and  C_21
REMARK    4  A    between atoms: C_25  and  C_27
REMARK                            x       y       z     vdW  Elec       q    Type
REMARK                         _______ _______ _______ _____ _____    ______ ____
ROOT
ATOM      1  C   UNL     1       3.706  -0.699  -0.041  0.00  0.00    +0.030 C 
ATOM      2  C   UNL     1       3.805  -1.565   1.225  0.00  0.00    +0.062 C 
ATOM      3  C   UNL     1       2.741  -2.630   1.111  0.00  0.00    +0.053 C 
ATOM      4  N   UNL     1       1.788  -2.937   1.875  0.00  0.00    -0.189 NA
ATOM      5  N   UNL     1       0.932  -3.893   1.327  0.00  0.00    -0.224 N 
ATOM      6  C   UNL     1       1.346  -4.241   0.061  0.00  0.00    +0.129 C 
ATOM      7  C   UNL     1       2.673  -3.550  -0.105  0.00  0.00    +0.146 C 
ATOM      8  C   UNL     1       2.707  -2.622  -1.298  0.00  0.00    +0.052 C 
ATOM      9  N   UNL     1       1.865  -2.726  -2.257  0.00  0.00    -0.198 NA
ATOM     10  C   UNL     1       3.790  -1.562  -1.298  0.00  0.00    +0.062 C 
ATOM     11  N   UNL     1       0.728  -5.000  -0.799  0.00  0.00    -0.235 NA
ATOM     12  H   UNL     1       0.155  -4.261   1.775  0.00  0.00    +0.176 HD
ENDROOT
BRANCH   1  16
ATOM     13  C   UNL     1      -0.017   1.396  -0.024  0.00  0.00    +0.000 A 
ATOM     14  C   UNL     1       1.173   2.101  -0.030  0.00  0.00    +0.000 A 
ATOM     15  C   UNL     1       2.378   1.423  -0.035  0.00  0.00    +0.004 A 
ATOM     16  C   UNL     1       2.393   0.040  -0.034  0.00  0.00    -0.044 A 
ATOM     17  C   UNL     1       1.203  -0.664  -0.027  0.00  0.00    +0.004 A 
ATOM     18  C   UNL     1      -0.001   0.014  -0.023  0.00  0.00    +0.000 A 
ENDBRANCH   1  16
BRANCH  11  19
ATOM     19  C   UNL     1      -0.485  -5.553  -0.479  0.00  0.00    +0.066 A 
ATOM     20  C   UNL     1      -0.679  -6.141   0.772  0.00  0.00    +0.028 A 
ATOM     21  C   UNL     1      -1.901  -6.696   1.088  0.00  0.00    +0.003 A 
ATOM     22  C   UNL     1      -2.935  -6.670   0.168  0.00  0.00    +0.012 A 
ATOM     23  C   UNL     1      -2.750  -6.089  -1.073  0.00  0.00    +0.057 A 
ATOM     24  C   UNL     1      -1.534  -5.525  -1.400  0.00  0.00    +0.040 A 
BRANCH  23  25
ATOM     25  C   UNL     1      -3.881  -6.066  -2.069  0.00  0.00    +0.417 C 
ATOM     26  F   UNL     1      -5.005  -6.686  -1.512  0.00  0.00    -0.166 F 
ATOM     27  F   UNL     1      -4.192  -4.740  -2.391  0.00  0.00    -0.166 F 
ATOM     28  F   UNL     1      -3.496  -6.749  -3.227  0.00  0.00    -0.166 F 
ENDBRANCH  23  25
ENDBRANCH  11  19
BRANCH   9  29
ATOM     29  N   UNL     1       1.857  -1.777  -3.288  0.00  0.00    -0.283 N 
ATOM     30  H   UNL     1       2.536  -1.086  -3.316  0.00  0.00    +0.164 HD
ATOM     31  H   UNL     1       1.170  -1.811  -3.972  0.00  0.00    +0.164 HD
ENDBRANCH   9  29
TORSDOF 4
