REMARK  Name = ZINC15222506
REMARK  3 active torsions:
REMARK  status: ('A' for Active; 'I' for Inactive)
REMARK    1  A    between atoms: C_4  and  N_7
REMARK    2  A    between atoms: C_13  and  C_14
REMARK    3  A    between atoms: C_17  and  O_20
REMARK                            x       y       z     vdW  Elec       q    Type
REMARK                         _______ _______ _______ _____ _____    ______ ____
ROOT
ATOM      1  N   UNL     1       3.073  -1.624  -0.896  0.00  0.00    -0.226 NA
ATOM      2  C   UNL     1       3.383  -2.428   0.097  0.00  0.00    +0.166 C 
ATOM      3  N   UNL     1       4.523  -3.183   0.264  0.00  0.00    -0.260 N 
ATOM      4  C   UNL     1       4.676  -3.946   1.333  0.00  0.00    +0.256 C 
ATOM      5  O   UNL     1       5.676  -4.619   1.497  0.00  0.00    -0.269 OA
ATOM      6  C   UNL     1       3.578  -3.943   2.319  0.00  0.00    +0.078 C 
ATOM      7  C   UNL     1       3.470  -4.622   3.490  0.00  0.00    +0.028 C 
ATOM      8  S   UNL     1       2.432  -2.801   1.561  0.00  0.00    -0.049 S 
ATOM      9  H   UNL     1       5.221  -3.155  -0.410  0.00  0.00    +0.157 HD
ENDROOT
BRANCH   1  13
ATOM     10  C   UNL     1      -0.522   0.424  -0.857  0.00  0.00    +0.000 A 
ATOM     11  C   UNL     1       0.643   1.085  -1.201  0.00  0.00    +0.002 A 
ATOM     12  C   UNL     1       1.845   0.409  -1.216  0.00  0.00    +0.028 A 
ATOM     13  C   UNL     1       1.885  -0.947  -0.883  0.00  0.00    +0.067 A 
ATOM     14  C   UNL     1       0.704  -1.608  -0.536  0.00  0.00    +0.028 A 
ATOM     15  C   UNL     1      -0.491  -0.919  -0.525  0.00  0.00    +0.002 A 
ENDBRANCH   1  13
BRANCH   7  16
ATOM     16  C   UNL     1       2.208  -4.596   4.239  0.00  0.00    -0.024 A 
ATOM     17  C   UNL     1       1.026  -4.185   3.612  0.00  0.00    +0.011 A 
ATOM     18  C   UNL     1      -0.155  -4.164   4.319  0.00  0.00    +0.046 A 
ATOM     19  C   UNL     1      -0.175  -4.549   5.655  0.00  0.00    +0.117 A 
ATOM     20  C   UNL     1       0.996  -4.958   6.283  0.00  0.00    +0.046 A 
ATOM     21  C   UNL     1       2.181  -4.989   5.583  0.00  0.00    +0.011 A 
BRANCH  19  22
ATOM     22  O   UNL     1      -1.342  -4.526   6.348  0.00  0.00    -0.507 OA
ATOM     23  H   UNL     1      -1.841  -5.353   6.306  0.00  0.00    +0.292 HD
ENDBRANCH  19  22
ENDBRANCH   7  16
TORSDOF 3
