REMARK  Name = ZINC15101208
REMARK  8 active torsions:
REMARK  status: ('A' for Active; 'I' for Inactive)
REMARK    1  A    between atoms: C_1  and  C_2
REMARK    2  A    between atoms: C_5  and  S_8
REMARK    3  A    between atoms: S_8  and  N_11
REMARK    4  A    between atoms: C_17  and  C_19
REMARK    5  A    between atoms: C_17  and  C_20
REMARK    6  A    between atoms: C_17  and  N_57
REMARK    7  A    between atoms: N_22  and  C_23
REMARK    8  A    between atoms: C_25  and  N_30
REMARK                            x       y       z     vdW  Elec       q    Type
REMARK                         _______ _______ _______ _____ _____    ______ ____
ROOT
ATOM      1  N   UNL     1       3.606  10.298  -0.890  0.00  0.00    -0.178 NA
ATOM      2  C   UNL     1       2.147  10.298  -1.117  0.00  0.00    +0.107 C 
ATOM      3  C   UNL     1       1.530   8.929  -0.785  0.00  0.00    -0.001 C 
ATOM      4  C   UNL     1       2.447   7.827  -1.268  0.00  0.00    -0.076 C 
ATOM      5  C   UNL     1       4.542   8.190  -0.063  0.00  0.00    -0.060 C 
ATOM      6  C   UNL     1       4.213   9.667   0.264  0.00  0.00    +0.091 C 
ATOM      7  N   UNL     1       3.315   7.434  -0.122  0.00  0.00    +0.388 N 
ATOM      8  H   UNL     1       2.795   7.604   0.747  0.00  0.00    -0.081 HD
ENDROOT
BRANCH   1   9
ATOM      9  S   UNL     1       4.584  11.048  -1.995  0.00  0.00    +0.061 S 
ATOM     10  O   UNL     1       3.780  12.013  -2.660  0.00  0.00    -0.153 OA
ATOM     11  O   UNL     1       5.780  11.394  -1.310  0.00  0.00    -0.153 OA
BRANCH   9  16
ATOM     12  C   UNL     1       6.096   6.921  -6.129  0.00  0.00    +0.044 C 
ATOM     13  C   UNL     1       5.719   7.952  -5.097  0.00  0.00    -0.050 A 
ATOM     14  C   UNL     1       4.584   8.722  -5.272  0.00  0.00    +0.005 A 
ATOM     15  C   UNL     1       4.238   9.668  -4.325  0.00  0.00    +0.029 A 
ATOM     16  C   UNL     1       5.026   9.843  -3.202  0.00  0.00    +0.105 A 
ATOM     17  C   UNL     1       6.163   9.076  -3.030  0.00  0.00    +0.029 A 
ATOM     18  C   UNL     1       6.507   8.128  -3.975  0.00  0.00    +0.005 A 
ENDBRANCH   9  16
ENDBRANCH   1   9
BRANCH   7  19
ATOM     19  C   UNL     1       3.627   6.002  -0.215  0.00  0.00    +0.016 C 
ATOM     20  C   UNL     1       4.214   5.628  -1.577  0.00  0.00    -0.004 C 
BRANCH  19  21
ATOM     21  C   UNL     1       2.349   5.236   0.009  0.00  0.00    +0.203 C 
ATOM     22  O   UNL     1       1.294   5.828   0.093  0.00  0.00    -0.277 OA
ATOM     23  N   UNL     1       2.378   3.893   0.116  0.00  0.00    -0.286 N 
ATOM     24  H   UNL     1       3.228   3.425   0.119  0.00  0.00    +0.155 HD
BRANCH  23  25
ATOM     25  C   UNL     1       1.183   3.173   0.222  0.00  0.00    +0.054 A 
ATOM     26  C   UNL     1       0.100   3.718   0.898  0.00  0.00    +0.057 A 
ATOM     27  C   UNL     1      -1.079   3.005   1.002  0.00  0.00    +0.128 A 
ATOM     28  C   UNL     1      -1.183   1.752   0.427  0.00  0.00    +0.034 A 
ATOM     29  C   UNL     1      -0.106   1.203  -0.242  0.00  0.00    +0.024 A 
ATOM     30  C   UNL     1       1.077   1.911  -0.350  0.00  0.00    +0.062 A 
ATOM     31 CL   UNL     1       2.427   1.224  -1.196  0.00  0.00    -0.082 Cl
BRANCH  27  32
ATOM     32  N   UNL     1      -2.233   3.587   1.723  0.00  0.00    +0.056 N 
ATOM     33  O   UNL     1      -2.143   4.693   2.225  0.00  0.00    -0.126 OA
ATOM     34  O   UNL     1      -3.273   2.959   1.815  0.00  0.00    -0.126 OA
ENDBRANCH  27  32
ENDBRANCH  23  25
ENDBRANCH  19  21
ENDBRANCH   7  19
TORSDOF 6
