REMARK  Name = ZINC12372399
REMARK  4 active torsions:
REMARK  status: ('A' for Active; 'I' for Inactive)
REMARK    1  A    between atoms: C_1  and  C_2
REMARK    2  A    between atoms: C_5  and  C_7
REMARK    3  A    between atoms: N_8  and  N_9
REMARK    4  A    between atoms: C_10  and  C_12
REMARK                            x       y       z     vdW  Elec       q    Type
REMARK                         _______ _______ _______ _____ _____    ______ ____
ROOT
ATOM      1  N   UNL     1      -2.280   7.332  -2.820  0.00  0.00    -0.203 N 
ATOM      2  C   UNL     1      -1.959   7.024  -1.548  0.00  0.00    +0.270 C 
ATOM      3  O   UNL     1      -1.966   7.889  -0.691  0.00  0.00    -0.268 OA
ATOM      4  H   UNL     1      -2.274   6.643  -3.503  0.00  0.00    +0.178 HD
ENDROOT
BRANCH   2   5
ATOM      5  C   UNL     1      -1.601   5.647  -1.196  0.00  0.00    +0.076 A 
ATOM      6  C   UNL     1      -1.244   5.126   0.034  0.00  0.00    +0.024 A 
ATOM      7  C   UNL     1      -0.947   3.775   0.111  0.00  0.00    -0.036 A 
ATOM      8  C   UNL     1      -1.031   3.059  -1.050  0.00  0.00    -0.006 A 
ATOM      9  S   UNL     1      -1.511   4.204  -2.244  0.00  0.00    -0.088 S 
ATOM     10  C   UNL     1      -0.761   1.597  -1.231  0.00  0.00    +0.043 C 
ATOM     11  C   UNL     1      -0.013   1.086   0.008  0.00  0.00    +0.005 C 
ATOM     12  C   UNL     1      -0.735   1.583   1.263  0.00  0.00    +0.005 C 
ATOM     13  C   UNL     1      -0.542   3.091   1.414  0.00  0.00    +0.036 C 
ENDBRANCH   2   5
BRANCH   1  15
ATOM     14  C   UNL     1      -2.932   8.947  -4.385  0.00  0.00    +0.145 C 
ATOM     15  N   UNL     1      -2.622   8.649  -3.157  0.00  0.00    -0.187 NA
BRANCH  14  20
ATOM     16  C   UNL     1      -4.153  14.425  -4.770  0.00  0.00    +0.053 C 
ATOM     17  C   UNL     1      -3.877  12.951  -4.928  0.00  0.00    +0.001 A 
ATOM     18  C   UNL     1      -3.944  12.187  -6.049  0.00  0.00    +0.028 A 
ATOM     19  C   UNL     1      -3.647  10.845  -5.968  0.00  0.00    +0.032 A 
ATOM     20  C   UNL     1      -3.290  10.324  -4.737  0.00  0.00    +0.033 A 
ATOM     21  S   UNL     1      -3.387  11.765  -3.687  0.00  0.00    -0.091 S 
ATOM     22 BR   UNL     1      -4.439  12.958  -7.704  0.00  0.00    -0.049 Br
ENDBRANCH  14  20
ENDBRANCH   1  15
TORSDOF 3
