REMARK  Name = ZINC49739594
REMARK  7 active torsions:
REMARK  status: ('A' for Active; 'I' for Inactive)
REMARK    1  A    between atoms: C_1  and  C_2
REMARK    2  A    between atoms: C_5  and  C_26
REMARK    3  A    between atoms: C_6  and  S_8
REMARK    4  A    between atoms: S_8  and  N_11
REMARK    5  A    between atoms: N_11  and  C_12
REMARK    6  A    between atoms: C_12  and  C_13
REMARK    7  A    between atoms: N_17  and  C_25
REMARK                            x       y       z     vdW  Elec       q    Type
REMARK                         _______ _______ _______ _____ _____    ______ ____
ROOT
ATOM      1  N   UNL     1      -1.386  -3.971   1.938  0.00  0.00    -0.186 NA
ATOM      2  H   UNL     1      -2.162  -4.006   2.519  0.00  0.00    +0.148 HD
ENDROOT
BRANCH   1   3
ATOM      3  S   UNL     1      -0.155  -2.912   2.264  0.00  0.00    +0.059 S 
ATOM      4  O   UNL     1       1.054  -3.652   2.165  0.00  0.00    -0.153 OA
ATOM      5  O   UNL     1      -0.524  -2.211   3.444  0.00  0.00    -0.153 OA
BRANCH   3  11
ATOM      6  C   UNL     1       2.209  -0.584  -1.774  0.00  0.00    +0.044 C 
ATOM      7  C   UNL     1       1.001  -0.695  -0.880  0.00  0.00    -0.049 A 
ATOM      8  C   UNL     1      -0.086   0.135  -1.082  0.00  0.00    +0.004 A 
ATOM      9  C   UNL     1      -1.194   0.034  -0.262  0.00  0.00    +0.005 A 
ATOM     10  C   UNL     1      -1.215  -0.897   0.760  0.00  0.00    -0.024 A 
ATOM     11  C   UNL     1      -0.128  -1.726   0.961  0.00  0.00    +0.108 A 
ATOM     12  C   UNL     1       0.978  -1.628   0.139  0.00  0.00    +0.032 A 
ATOM     13  C   UNL     1      -2.423  -1.006   1.655  0.00  0.00    +0.046 C 
ENDBRANCH   3  11
ENDBRANCH   1   3
BRANCH   1  14
ATOM     14  C   UNL     1      -1.303  -4.854   0.772  0.00  0.00    +0.160 C 
BRANCH  14  15
ATOM     15  C   UNL     1      -2.365  -5.949   0.886  0.00  0.00    +0.274 C 
ATOM     16  C   UNL     1      -2.281  -6.857  -0.315  0.00  0.00    +0.262 C 
ATOM     17  O   UNL     1      -2.970  -6.642  -1.290  0.00  0.00    -0.271 OA
ATOM     18  N   UNL     1      -1.435  -7.908  -0.302  0.00  0.00    -0.268 N 
ATOM     19  C   UNL     1      -0.742  -8.213   0.878  0.00  0.00    +0.078 A 
ATOM     20  C   UNL     1       0.294  -9.133   0.868  0.00  0.00    +0.027 A 
ATOM     21  C   UNL     1       0.977  -9.413   2.038  0.00  0.00    +0.002 A 
ATOM     22  C   UNL     1       0.628  -8.778   3.216  0.00  0.00    +0.004 A 
ATOM     23  C   UNL     1      -0.409  -7.862   3.233  0.00  0.00    +0.047 A 
ATOM     24  C   UNL     1      -1.100  -7.581   2.067  0.00  0.00    +0.143 A 
ATOM     25  O   UNL     1      -2.141  -6.707   2.077  0.00  0.00    -0.476 OA
ATOM     26  C   UNL     1      -1.244  -8.722  -1.505  0.00  0.00    +0.138 C 
ENDBRANCH  14  15
ENDBRANCH   1  14
TORSDOF 4
