REMARK  Name = ZINC66468171
REMARK  7 active torsions:
REMARK  status: ('A' for Active; 'I' for Inactive)
REMARK    1  A    between atoms: C_1  and  C_2
REMARK    2  A    between atoms: C_5  and  C_9
REMARK    3  A    between atoms: C_6  and  C_8
REMARK    4  A    between atoms: C_9  and  C_10
REMARK    5  A    between atoms: C_10  and  C_12
REMARK    6  A    between atoms: C_10  and  N_13
REMARK    7  A    between atoms: N_13  and  C_14
REMARK                            x       y       z     vdW  Elec       q    Type
REMARK                         _______ _______ _______ _____ _____    ______ ____
ROOT
ATOM      1  C   UNL     1      -1.370  -4.804   0.109  0.00  0.00    +0.072 C 
ATOM      2  C   UNL     1      -1.341  -6.330   0.226  0.00  0.00    +0.028 C 
ENDROOT
BRANCH   1   3
ATOM      3  N   UNL     1      -2.143  -4.420  -1.074  0.00  0.00    -0.338 N 
ATOM      4  H   UNL     1      -1.690  -4.245  -1.914  0.00  0.00    +0.146 HD
BRANCH   3   5
ATOM      5  C   UNL     1      -3.521  -4.308  -0.995  0.00  0.00    +0.071 A 
ATOM      6  C   UNL     1      -4.187  -4.557   0.225  0.00  0.00    +0.157 A 
ATOM      7  N   UNL     1      -5.484  -4.452   0.302  0.00  0.00    -0.177 NA
ATOM      8  N   UNL     1      -6.246  -4.093  -0.815  0.00  0.00    -0.242 N 
ATOM      9  H   UNL     1      -7.210  -4.020  -0.736  0.00  0.00    +0.192 HD
ATOM     10  C   UNL     1      -5.652  -3.846  -1.999  0.00  0.00    +0.285 A 
ATOM     11  O   UNL     1      -6.324  -3.532  -2.970  0.00  0.00    -0.265 OA
ATOM     12  C   UNL     1      -4.257  -3.946  -2.108  0.00  0.00    +0.129 A 
ATOM     13 CL   UNL     1      -3.467  -3.627  -3.621  0.00  0.00    -0.076 Cl
ENDBRANCH   3   5
ENDBRANCH   1   3
BRANCH   1  14
ATOM     14  C   UNL     1       0.059  -4.275  -0.021  0.00  0.00    +0.057 C 
BRANCH  14  19
ATOM     15  C   UNL     1      -0.018   1.503   0.010  0.00  0.00    +0.044 C 
ATOM     16  C   UNL     1       0.002  -0.004   0.002  0.00  0.00    -0.050 A 
ATOM     17  C   UNL     1       0.006  -0.689  -1.199  0.00  0.00    +0.003 A 
ATOM     18  C   UNL     1       0.025  -2.071  -1.207  0.00  0.00    +0.004 A 
ATOM     19  C   UNL     1       0.040  -2.768  -0.013  0.00  0.00    -0.043 A 
ATOM     20  C   UNL     1       0.037  -2.084   1.188  0.00  0.00    -0.047 A 
ATOM     21  C   UNL     1       0.023  -0.702   1.195  0.00  0.00    +0.007 A 
ATOM     22  C   UNL     1       0.054  -2.845   2.489  0.00  0.00    +0.044 C 
ENDBRANCH  14  19
ENDBRANCH   1  14
TORSDOF 4
