REMARK  Name = ZINC32745305
REMARK  6 active torsions:
REMARK  status: ('A' for Active; 'I' for Inactive)
REMARK    1  A    between atoms: C_1  and  C_2
REMARK    2  A    between atoms: C_2  and  C_4
REMARK    3  A    between atoms: C_2  and  N_9
REMARK    4  A    between atoms: C_10  and  C_12
REMARK    5  A    between atoms: C_12  and  S_13
REMARK    6  A    between atoms: S_13  and  C_14
REMARK                            x       y       z     vdW  Elec       q    Type
REMARK                         _______ _______ _______ _____ _____    ______ ____
ROOT
ATOM      1  S   UNL     1       2.756   1.254  -0.018  0.00  0.00    -0.079 S 
ENDROOT
BRANCH   1   2
ATOM      2  C   UNL     1       1.077   1.791   0.001  0.00  0.00    +0.168 A 
ATOM      3  N   UNL     1      -0.011   0.966   0.007  0.00  0.00    -0.332 N 
ATOM      4  H   UNL     1       0.126  -0.126   0.005  0.00  0.00    +0.168 HD
ATOM      5  C   UNL     1      -1.138   1.773   0.016  0.00  0.00    +0.085 A 
ATOM      6  C   UNL     1      -0.670   3.097   0.025  0.00  0.00    +0.093 A 
ATOM      7  N   UNL     1       0.687   3.042   0.012  0.00  0.00    -0.222 NA
ATOM      8  C   UNL     1      -1.587   4.151   0.039  0.00  0.00    +0.050 A 
ATOM      9  C   UNL     1      -2.939   3.882   0.050  0.00  0.00    +0.044 A 
ATOM     10  C   UNL     1      -3.396   2.572   0.047  0.00  0.00    +0.042 A 
ATOM     11  C   UNL     1      -2.502   1.520   0.033  0.00  0.00    +0.068 A 
ATOM     12 CL   UNL     1      -3.083  -0.116   0.028  0.00  0.00    -0.081 Cl
ATOM     13 CL   UNL     1      -4.078   5.192   0.068  0.00  0.00    -0.083 Cl
ENDBRANCH   1   2
BRANCH   1  14
ATOM     14  C   UNL     1       3.598   2.856  -0.017  0.00  0.00    +0.173 C 
BRANCH  14  16
ATOM     15  N   UNL     1       5.925   3.696  -0.035  0.00  0.00    -0.305 N 
ATOM     16  C   UNL     1       5.090   2.639  -0.032  0.00  0.00    +0.224 C 
ATOM     17  O   UNL     1       5.538   1.512  -0.043  0.00  0.00    -0.275 OA
ATOM     18  H   UNL     1       5.518   4.718  -0.025  0.00  0.00    +0.149 HD
BRANCH  15  20
ATOM     19  C   UNL     1       7.875   3.280   1.381  0.00  0.00    +0.036 C 
ATOM     20  C   UNL     1       7.374   3.486  -0.050  0.00  0.00    +0.136 C 
BRANCH  20  21
ATOM     21  C   UNL     1       8.051   4.691  -0.650  0.00  0.00    +0.125 A 
ATOM     22  C   UNL     1       9.104   4.666  -1.488  0.00  0.00    +0.046 A 
ATOM     23  C   UNL     1       9.408   6.010  -1.802  0.00  0.00    +0.041 A 
ATOM     24  C   UNL     1       8.529   6.776  -1.131  0.00  0.00    +0.195 A 
ATOM     25  O   UNL     1       7.710   5.972  -0.435  0.00  0.00    -0.466 OA
ENDBRANCH  20  21
ENDBRANCH  15  20
ENDBRANCH  14  16
ENDBRANCH   1  14
TORSDOF 5
