REMARK  Name = ZINC49415437
REMARK  8 active torsions:
REMARK  status: ('A' for Active; 'I' for Inactive)
REMARK    1  A    between atoms: C_1  and  C_2
REMARK    2  A    between atoms: C_2  and  C_3
REMARK    3  A    between atoms: C_3  and  C_4
REMARK    4  A    between atoms: C_4  and  C_5
REMARK    5  A    between atoms: C_4  and  C_8
REMARK    6  A    between atoms: C_5  and  C_6
REMARK    7  A    between atoms: C_6  and  C_7
REMARK    8  A    between atoms: N_10  and  C_11
REMARK                            x       y       z     vdW  Elec       q    Type
REMARK                         _______ _______ _______ _____ _____    ______ ____
ROOT
ATOM      1  C   UNL     1      -4.837  -2.541  -1.713  0.00  0.00    +0.060 A 
ATOM      2  C   UNL     1      -5.692  -2.734  -0.650  0.00  0.00    +0.025 A 
ATOM      3  C   UNL     1      -7.008  -3.136  -0.858  0.00  0.00    +0.003 A 
ATOM      4  C   UNL     1      -7.484  -3.350  -2.116  0.00  0.00    +0.010 A 
ATOM      5  C   UNL     1      -6.643  -3.164  -3.225  0.00  0.00    +0.002 A 
ATOM      6  C   UNL     1      -5.304  -2.750  -3.028  0.00  0.00    +0.094 A 
ATOM      7  N   UNL     1      -4.500  -2.567  -4.080  0.00  0.00    -0.227 NA
ATOM      8  C   UNL     1      -4.929  -2.760  -5.309  0.00  0.00    +0.138 A 
ATOM      9  C   UNL     1      -6.244  -3.165  -5.571  0.00  0.00    +0.047 A 
ATOM     10  C   UNL     1      -7.108  -3.378  -4.538  0.00  0.00    +0.013 A 
ATOM     11  N   UNL     1      -4.053  -2.555  -6.377  0.00  0.00    -0.308 N 
ATOM     12  C   UNL     1      -4.359  -2.710  -7.700  0.00  0.00    +0.092 A 
ATOM     13  C   UNL     1      -3.259  -2.422  -8.423  0.00  0.00    +0.019 A 
ATOM     14  C   UNL     1      -2.235  -2.077  -7.517  0.00  0.00    +0.019 A 
ATOM     15  C   UNL     1      -2.749  -2.161  -6.274  0.00  0.00    +0.092 A 
ENDROOT
BRANCH   1  18
ATOM     16  C   UNL     1      -2.863  -2.550  -0.387  0.00  0.00    +0.220 C 
ATOM     17  O   UNL     1      -3.386  -3.343   0.368  0.00  0.00    -0.275 OA
ATOM     18  N   UNL     1      -3.518  -2.136  -1.490  0.00  0.00    -0.284 N 
ATOM     19  H   UNL     1      -3.073  -1.558  -2.129  0.00  0.00    +0.155 HD
BRANCH  16  20
ATOM     20  C   UNL     1      -1.480  -2.029  -0.091  0.00  0.00    +0.075 C 
BRANCH  20  21
ATOM     21  C   UNL     1      -1.531  -0.507   0.058  0.00  0.00    +0.012 C 
BRANCH  21  23
ATOM     22  C   UNL     1      -0.148   1.567   0.239  0.00  0.00    +0.004 C 
ATOM     23  C   UNL     1      -0.110   0.037   0.217  0.00  0.00    -0.003 C 
ENDBRANCH  21  23
ENDBRANCH  20  21
BRANCH  20  24
ATOM     24  C   UNL     1      -0.967  -2.652   1.209  0.00  0.00    +0.012 C 
BRANCH  24  25
ATOM     25  C   UNL     1      -0.767  -4.156   1.009  0.00  0.00    -0.003 C 
ATOM     26  C   UNL     1      -0.135  -4.757   2.265  0.00  0.00    +0.004 C 
ENDBRANCH  24  25
ENDBRANCH  20  24
ENDBRANCH  16  20
ENDBRANCH   1  18
TORSDOF 6
