REMARK  Name = ZINC61813174
REMARK  3 active torsions:
REMARK  status: ('A' for Active; 'I' for Inactive)
REMARK    1  A    between atoms: C_4  and  C_19
REMARK    2  A    between atoms: C_6  and  N_7
REMARK    3  A    between atoms: C_19  and  N_21
REMARK                            x       y       z     vdW  Elec       q    Type
REMARK                         _______ _______ _______ _____ _____    ______ ____
ROOT
ATOM      1  C   UNL     1      -0.017   1.390   0.010  0.00  0.00    +0.040 A 
ATOM      2  C   UNL     1       1.179   2.083   0.002  0.00  0.00    +0.085 A 
ATOM      3  N   UNL     1       2.332   1.446  -0.012  0.00  0.00    -0.359 N 
ATOM      4  C   UNL     1       2.398   0.118  -0.021  0.00  0.00    +0.069 A 
ATOM      5  C   UNL     1       1.238  -0.649  -0.014  0.00  0.00    +0.051 A 
ATOM      6  C   UNL     1       0.002  -0.004   0.002  0.00  0.00    +0.033 A 
ATOM      7  H   UNL     1       3.154   1.959  -0.018  0.00  0.00    +0.165 HD
ENDROOT
BRANCH   6   8
ATOM      8  N   UNL     1      -1.183  -0.734   0.010  0.00  0.00    -0.322 N 
ATOM      9  C   UNL     1      -1.173  -2.205   0.008  0.00  0.00    +0.133 C 
ATOM     10  C   UNL     1      -2.077  -2.703   1.141  0.00  0.00    +0.179 C 
ATOM     11  O   UNL     1      -3.357  -2.072   1.040  0.00  0.00    -0.373 OA
ATOM     12  C   UNL     1      -3.315  -0.652   1.170  0.00  0.00    +0.139 C 
ATOM     13  C   UNL     1      -2.495  -0.059   0.026  0.00  0.00    +0.102 C 
ATOM     14  C   UNL     1      -3.198  -0.343  -1.304  0.00  0.00    +0.025 C 
ATOM     15  C   UNL     1      -4.603   0.262  -1.286  0.00  0.00    +0.002 C 
ATOM     16  C   UNL     1      -5.412  -0.372  -0.152  0.00  0.00    +0.003 C 
ATOM     17  C   UNL     1      -4.726  -0.073   1.156  0.00  0.00    +0.033 C 
ENDBRANCH   6   8
BRANCH   4  18
ATOM     18  C   UNL     1       3.718  -0.549  -0.038  0.00  0.00    +0.093 C 
ATOM     19  S   UNL     1       3.942  -2.024   0.802  0.00  0.00    -0.034 S 
BRANCH  18  20
ATOM     20  N   UNL     1       4.744   0.004  -0.715  0.00  0.00    -0.351 N 
ATOM     21  H   UNL     1       4.617   0.840  -1.190  0.00  0.00    +0.143 HD
ATOM     22  H   UNL     1       5.609  -0.434  -0.726  0.00  0.00    +0.143 HD
ENDBRANCH  18  20
ENDBRANCH   4  18
TORSDOF 3
