REMARK  Name = ZINC09101655
REMARK  9 active torsions:
REMARK  status: ('A' for Active; 'I' for Inactive)
REMARK    1  A    between atoms: C_1  and  C_2
REMARK    2  A    between atoms: C_5  and  C_31
REMARK    3  A    between atoms: C_6  and  S_8
REMARK    4  A    between atoms: S_8  and  C_11
REMARK    5  A    between atoms: C_11  and  C_13
REMARK    6  A    between atoms: C_11  and  C_26
REMARK    7  A    between atoms: C_13  and  N_14
REMARK    8  A    between atoms: N_14  and  S_15
REMARK    9  A    between atoms: S_15  and  C_18
REMARK                            x       y       z     vdW  Elec       q    Type
REMARK                         _______ _______ _______ _____ _____    ______ ____
ROOT
ATOM      1  C   UNL     1      -4.106  -0.715   1.737  0.00  0.00    +0.217 C 
ENDROOT
BRANCH   1   2
ATOM      2  C   UNL     1      -4.369  -2.190   1.897  0.00  0.00    +0.131 A 
ATOM      3  C   UNL     1      -4.949  -2.775   2.960  0.00  0.00    +0.046 A 
ATOM      4  C   UNL     1      -4.996  -4.162   2.689  0.00  0.00    +0.041 A 
ATOM      5  C   UNL     1      -4.441  -4.341   1.476  0.00  0.00    +0.195 A 
ATOM      6  O   UNL     1      -4.069  -3.143   0.999  0.00  0.00    -0.466 OA
ENDBRANCH   1   2
BRANCH   1   7
ATOM      7  S   UNL     1      -5.087  -0.072   0.353  0.00  0.00    +0.008 S 
ATOM      8  O   UNL     1      -5.092   1.349   0.375  0.00  0.00    -0.169 OA
ATOM      9  O   UNL     1      -4.772  -0.777  -0.839  0.00  0.00    -0.169 OA
BRANCH   7  15
ATOM     10  C   UNL     1      -9.387  -2.889  -0.593  0.00  0.00    +0.044 C 
ATOM     11  C   UNL     1      -8.689  -1.849   0.245  0.00  0.00    -0.049 A 
ATOM     12  C   UNL     1      -9.352  -1.256   1.304  0.00  0.00    +0.004 A 
ATOM     13  C   UNL     1      -8.712  -0.302   2.072  0.00  0.00    +0.005 A 
ATOM     14  C   UNL     1      -7.408   0.056   1.785  0.00  0.00    -0.026 A 
ATOM     15  C   UNL     1      -6.747  -0.533   0.723  0.00  0.00    +0.092 A 
ATOM     16  C   UNL     1      -7.387  -1.487  -0.045  0.00  0.00    +0.030 A 
ATOM     17  C   UNL     1      -6.708   1.093   2.626  0.00  0.00    +0.046 C 
ENDBRANCH   7  15
ENDBRANCH   1   7
BRANCH   1  18
ATOM     18  C   UNL     1      -2.619  -0.489   1.456  0.00  0.00    +0.140 C 
BRANCH  18  19
ATOM     19  N   UNL     1      -2.364   0.945   1.301  0.00  0.00    -0.192 NA
ATOM     20  H   UNL     1      -3.103   1.558   1.164  0.00  0.00    +0.148 HD
BRANCH  19  21
ATOM     21  S   UNL     1      -0.812   1.521   1.360  0.00  0.00    +0.034 S 
ATOM     22  O   UNL     1      -0.267   0.973   2.552  0.00  0.00    -0.158 OA
ATOM     23  O   UNL     1      -0.941   2.927   1.201  0.00  0.00    -0.158 OA
BRANCH  21  24
ATOM     24  C   UNL     1       0.008   0.801  -0.090  0.00  0.00    +0.170 C 
ATOM     25  C   UNL     1      -0.714   1.265  -1.366  0.00  0.00    +0.052 C 
ATOM     26  C   UNL     1       0.179   0.902  -2.587  0.00  0.00    +0.168 C 
ATOM     27  S   UNL     1       1.844   1.333  -1.926  0.00  0.00    -0.029 S 
ATOM     28  O   UNL     1       2.149   2.675  -2.282  0.00  0.00    -0.174 OA
ATOM     29  O   UNL     1       2.756   0.296  -2.260  0.00  0.00    -0.174 OA
ATOM     30  C   UNL     1       1.486   1.258  -0.124  0.00  0.00    +0.193 C 
ENDBRANCH  21  24
ENDBRANCH  19  21
ENDBRANCH  18  19
ENDBRANCH   1  18
TORSDOF 7
