REMARK  Name = ZINC12420311
REMARK  8 active torsions:
REMARK  status: ('A' for Active; 'I' for Inactive)
REMARK    1  A    between atoms: C_1  and  C_2
REMARK    2  A    between atoms: C_5  and  C_24
REMARK    3  A    between atoms: N_8  and  C_10
REMARK    4  A    between atoms: C_10  and  C_11
REMARK    5  A    between atoms: C_11  and  C_13
REMARK    6  A    between atoms: C_11  and  O_23
REMARK    7  A    between atoms: C_13  and  O_14
REMARK    8  A    between atoms: O_14  and  C_15
REMARK                            x       y       z     vdW  Elec       q    Type
REMARK                         _______ _______ _______ _____ _____    ______ ____
ROOT
ATOM      1  C   UNL     1       1.500  -4.027   2.359  0.00  0.00    +0.135 C 
ENDROOT
BRANCH   1   2
ATOM      2  O   UNL     1       2.526  -4.347   1.417  0.00  0.00    -0.390 OA
ATOM      3  H   UNL     1       2.770  -5.399   1.207  0.00  0.00    +0.210 HD
ENDBRANCH   1   2
BRANCH   1   4
ATOM      4  C   UNL     1       1.361  -2.507   2.465  0.00  0.00    -0.044 C 
BRANCH   4  10
ATOM      5  C   UNL     1       2.535  -1.239  -2.140  0.00  0.00    +0.005 C 
ATOM      6  C   UNL     1       1.429  -1.246  -1.082  0.00  0.00    -0.031 C 
ATOM      7  C   UNL     1       0.211  -2.001  -1.622  0.00  0.00    +0.003 C 
ATOM      8  C   UNL     1      -0.867  -2.056  -0.536  0.00  0.00    -0.031 C 
ATOM      9  C   UNL     1      -0.294  -2.730   0.713  0.00  0.00    -0.076 C 
ATOM     10  N   UNL     1       0.869  -1.969   1.190  0.00  0.00    +0.382 N 
ATOM     11  C   UNL     1       1.936  -1.943   0.182  0.00  0.00    -0.076 C 
ATOM     12  C   UNL     1      -2.065  -2.860  -1.045  0.00  0.00    +0.005 C 
ATOM     13  H   UNL     1       0.543  -0.932   1.361  0.00  0.00    -0.082 HD
ENDBRANCH   4  10
ENDBRANCH   1   4
BRANCH   1  14
ATOM     14  C   UNL     1       1.866  -4.603   3.728  0.00  0.00    +0.258 C 
BRANCH  14  15
ATOM     15  O   UNL     1       1.881  -6.030   3.656  0.00  0.00    -0.488 OA
BRANCH  15  16
ATOM     16  C   UNL     1       2.191  -6.702   4.797  0.00  0.00    +0.135 A 
ATOM     17  C   UNL     1       2.480  -6.002   5.959  0.00  0.00    +0.048 A 
ATOM     18  C   UNL     1       2.790  -6.687   7.118  0.00  0.00    +0.019 A 
ATOM     19  C   UNL     1       2.823  -8.070   7.117  0.00  0.00    +0.019 A 
ATOM     20  C   UNL     1       2.540  -8.771   5.959  0.00  0.00    +0.034 A 
ATOM     21  C   UNL     1       2.224  -8.089   4.798  0.00  0.00    +0.061 A 
ATOM     22 BR   UNL     1       1.837  -9.047   3.214  0.00  0.00    -0.046 Br
ATOM     23 BR   UNL     1       3.255  -9.004   8.704  0.00  0.00    -0.050 Br
ENDBRANCH  15  16
ENDBRANCH  14  15
ENDBRANCH   1  14
TORSDOF 6
