REMARK  Name = ZINC31812370
REMARK  6 active torsions:
REMARK  status: ('A' for Active; 'I' for Inactive)
REMARK    1  A    between atoms: C_4  and  C_7
REMARK    2  A    between atoms: C_7  and  C_8
REMARK    3  A    between atoms: N_18  and  N_19
REMARK    4  A    between atoms: C_20  and  C_21
REMARK    5  A    between atoms: C_24  and  O_28
REMARK    6  A    between atoms: C_26  and  O_27
REMARK                            x       y       z     vdW  Elec       q    Type
REMARK                         _______ _______ _______ _____ _____    ______ ____
ROOT
ATOM      1  C   UNL     1      -2.939   0.715   1.441  0.00  0.00    +0.076 A 
ATOM      2  C   UNL     1      -2.523  -0.456   2.103  0.00  0.00    +0.009 A 
ATOM      3  C   UNL     1      -1.711  -1.422   1.496  0.00  0.00    +0.010 A 
ATOM      4  C   UNL     1      -1.350  -2.531   2.201  0.00  0.00    +0.001 A 
ATOM      5  C   UNL     1      -1.776  -2.718   3.514  0.00  0.00    +0.001 A 
ATOM      6  C   UNL     1      -2.558  -1.792   4.138  0.00  0.00    +0.012 A 
ATOM      7  C   UNL     1      -2.952  -0.645   3.442  0.00  0.00    +0.027 A 
ATOM      8  C   UNL     1      -3.777   0.352   4.014  0.00  0.00    +0.168 A 
ATOM      9  N   UNL     1      -4.101   1.405   3.283  0.00  0.00    -0.132 NA
ATOM     10  N   UNL     1      -3.705   1.571   2.076  0.00  0.00    -0.151 NA
ATOM     11  N   UNL     1      -4.235   0.227   5.314  0.00  0.00    -0.219 N 
ATOM     12  H   UNL     1      -3.958  -0.653   5.913  0.00  0.00    +0.176 HD
ENDROOT
BRANCH  11  13
ATOM     13  N   UNL     1      -5.051   1.223   5.867  0.00  0.00    -0.189 NA
ATOM     14  C   UNL     1      -5.482   1.106   7.087  0.00  0.00    +0.141 C 
BRANCH  14  15
ATOM     15  C   UNL     1      -6.340   2.152   7.668  0.00  0.00    +0.036 A 
ATOM     16  C   UNL     1      -6.804   2.029   8.980  0.00  0.00    +0.016 A 
ATOM     17  C   UNL     1      -7.607   3.010   9.521  0.00  0.00    +0.046 A 
ATOM     18  C   UNL     1      -7.957   4.123   8.765  0.00  0.00    +0.120 A 
ATOM     19  C   UNL     1      -7.500   4.254   7.462  0.00  0.00    +0.091 A 
ATOM     20  C   UNL     1      -6.689   3.278   6.910  0.00  0.00    +0.129 A 
BRANCH  20  21
ATOM     21  O   UNL     1      -6.237   3.409   5.636  0.00  0.00    -0.506 OA
ATOM     22  H   UNL     1      -6.512   4.293   5.042  0.00  0.00    +0.292 HD
ENDBRANCH  20  21
BRANCH  18  23
ATOM     23  O   UNL     1      -8.749   5.086   9.305  0.00  0.00    -0.507 OA
ATOM     24  H   UNL     1      -9.027   5.968   8.709  0.00  0.00    +0.292 HD
ENDBRANCH  18  23
ENDBRANCH  14  15
ENDBRANCH  11  13
BRANCH   1  25
ATOM     25  C   UNL     1      -2.514   0.980   0.019  0.00  0.00    +0.093 C 
BRANCH  25  29
ATOM     26  C   UNL     1       1.156   3.165   0.008  0.00  0.00    +0.000 A 
ATOM     27  C   UNL     1       1.175   1.783   0.000  0.00  0.00    +0.000 A 
ATOM     28  C   UNL     1      -0.013   1.076   0.008  0.00  0.00    +0.004 A 
ATOM     29  C   UNL     1      -1.219   1.751   0.017  0.00  0.00    -0.042 A 
ATOM     30  C   UNL     1      -1.238   3.133   0.029  0.00  0.00    +0.004 A 
ATOM     31  C   UNL     1      -0.050   3.840   0.022  0.00  0.00    +0.000 A 
ENDBRANCH  25  29
ENDBRANCH   1  25
TORSDOF 6
