REMARK  Name = ZINC40467715
REMARK  7 active torsions:
REMARK  status: ('A' for Active; 'I' for Inactive)
REMARK    1  A    between atoms: C_1  and  C_2
REMARK    2  A    between atoms: C_8  and  C_22
REMARK    3  A    between atoms: C_9  and  C_12
REMARK    4  A    between atoms: C_22  and  C_23
REMARK    5  A    between atoms: C_23  and  C_24
REMARK    6  A    between atoms: C_24  and  C_25
REMARK    7  A    between atoms: C_31  and  N_33
REMARK                            x       y       z     vdW  Elec       q    Type
REMARK                         _______ _______ _______ _____ _____    ______ ____
ROOT
ATOM      1  C   UNL     1      -0.018   1.503   0.010  0.00  0.00    +0.044 C 
ATOM      2  C   UNL     1       0.002  -0.004   0.002  0.00  0.00    -0.050 A 
ATOM      3  C   UNL     1       0.006  -0.686  -1.208  0.00  0.00    +0.005 A 
ATOM      4  C   UNL     1       0.024  -2.063  -1.239  0.00  0.00    +0.026 A 
ATOM      5  C   UNL     1       0.040  -2.782  -0.047  0.00  0.00    +0.047 A 
ATOM      6  C   UNL     1       0.037  -2.086   1.177  0.00  0.00    +0.004 A 
ATOM      7  C   UNL     1       0.023  -0.688   1.184  0.00  0.00    +0.013 A 
ATOM      8  C   UNL     1       0.056  -3.102   2.227  0.00  0.00    -0.013 A 
ATOM      9  C   UNL     1       0.069  -4.310   1.607  0.00  0.00    +0.069 A 
ATOM     10  N   UNL     1       0.059  -4.127   0.243  0.00  0.00    -0.353 N 
ATOM     11  H   UNL     1       0.066  -4.840  -0.415  0.00  0.00    +0.166 HD
ENDROOT
BRANCH   9  12
ATOM     12  C   UNL     1       0.090  -5.619   2.292  0.00  0.00    +0.088 A 
ATOM     13  C   UNL     1      -0.412  -6.751   1.626  0.00  0.00    +0.030 A 
ATOM     14  C   UNL     1      -0.398  -7.963   2.247  0.00  0.00    +0.012 A 
ATOM     15  C   UNL     1       0.127  -8.040   3.553  0.00  0.00    +0.000 A 
ATOM     16  C   UNL     1       0.172  -9.258   4.249  0.00  0.00    +0.010 A 
ATOM     17  C   UNL     1       0.685  -9.296   5.510  0.00  0.00    +0.001 A 
ATOM     18  C   UNL     1       1.168  -8.140   6.120  0.00  0.00    +0.002 A 
ATOM     19  C   UNL     1       1.141  -6.942   5.475  0.00  0.00    +0.028 A 
ATOM     20  C   UNL     1       0.618  -6.863   4.172  0.00  0.00    +0.072 A 
ATOM     21  N   UNL     1       0.584  -5.700   3.514  0.00  0.00    -0.245 NA
ENDBRANCH   9  12
BRANCH   8  22
ATOM     22  C   UNL     1       0.060  -2.857   3.714  0.00  0.00    +0.038 C 
BRANCH  22  23
ATOM     23  C   UNL     1      -1.381  -2.792   4.224  0.00  0.00    +0.014 C 
BRANCH  23  24
ATOM     24  C   UNL     1      -1.376  -2.543   5.734  0.00  0.00    +0.096 C 
BRANCH  24  25
ATOM     25  C   UNL     1      -2.796  -2.479   6.237  0.00  0.00    +0.219 C 
ATOM     26  O   UNL     1      -3.720  -2.620   5.464  0.00  0.00    -0.275 OA
ATOM     27  N   UNL     1      -3.038  -2.267   7.545  0.00  0.00    -0.265 N 
ATOM     28  C   UNL     1      -4.347  -2.208   8.009  0.00  0.00    +0.166 A 
ATOM     29  N   UNL     1      -5.463  -2.342   7.326  0.00  0.00    -0.231 NA
ATOM     30  C   UNL     1      -6.640  -2.260   7.919  0.00  0.00    +0.153 A 
ATOM     31  C   UNL     1      -6.642  -2.032   9.255  0.00  0.00    +0.185 A 
ATOM     32  S   UNL     1      -4.889  -1.956   9.583  0.00  0.00    -0.028 S 
ATOM     33  H   UNL     1      -2.299  -2.154   8.164  0.00  0.00    +0.157 HD
BRANCH  31  34
ATOM     34  N   UNL     1      -7.784  -1.891  10.187  0.00  0.00    +0.065 N 
ATOM     35  O   UNL     1      -8.916  -1.979   9.773  0.00  0.00    -0.126 OA
ATOM     36  O   UNL     1      -7.584  -1.687  11.362  0.00  0.00    -0.126 OA
ENDBRANCH  31  34
ENDBRANCH  24  25
ENDBRANCH  23  24
ENDBRANCH  22  23
ENDBRANCH   8  22
TORSDOF 6
