REMARK  Name = ZINC20176318
REMARK  10 active torsions:
REMARK  status: ('A' for Active; 'I' for Inactive)
REMARK    1  A    between atoms: C_1  and  C_2
REMARK    2  A    between atoms: C_2  and  O_3
REMARK    3  A    between atoms: O_3  and  C_4
REMARK    4  A    between atoms: C_7  and  N_10
REMARK    5  A    between atoms: N_12  and  C_31
REMARK    6  A    between atoms: C_13  and  C_16
REMARK    7  A    between atoms: C_19  and  S_22
REMARK    8  A    between atoms: S_22  and  N_25
REMARK    9  A    between atoms: C_31  and  C_32
REMARK   10  A    between atoms: C_32  and  O_33
REMARK                            x       y       z     vdW  Elec       q    Type
REMARK                         _______ _______ _______ _____ _____    ______ ____
ROOT
ATOM      1  N   UNL     1       7.290  -0.235  -0.279  0.00  0.00    -0.336 N 
ATOM      2  C   UNL     1       6.056  -0.688  -0.172  0.00  0.00    +0.152 A 
ATOM      3  N   UNL     1       4.871   0.011  -0.155  0.00  0.00    -0.319 N 
ATOM      4  C   UNL     1       3.700  -0.685  -0.030  0.00  0.00    +0.058 A 
ATOM      5  C   UNL     1       3.730  -2.031   0.062  0.00  0.00    +0.075 A 
ATOM      6  S   UNL     1       5.481  -2.372  -0.020  0.00  0.00    -0.059 S 
ATOM      7  H   UNL     1       7.479   0.848  -0.283  0.00  0.00    +0.168 HD
ENDROOT
BRANCH   1  11
ATOM      8  C   UNL     1      10.450  -2.891  -0.598  0.00  0.00    +0.121 A 
ATOM      9  C   UNL     1       9.880  -2.354  -1.743  0.00  0.00    +0.047 A 
ATOM     10  C   UNL     1       8.827  -1.470  -1.642  0.00  0.00    +0.029 A 
ATOM     11  C   UNL     1       8.335  -1.114  -0.384  0.00  0.00    +0.041 A 
ATOM     12  C   UNL     1       8.916  -1.653   0.766  0.00  0.00    +0.029 A 
ATOM     13  C   UNL     1       9.965  -2.541   0.654  0.00  0.00    +0.047 A 
BRANCH   8  14
ATOM     14  O   UNL     1      11.489  -3.763  -0.702  0.00  0.00    -0.492 OA
BRANCH  14  16
ATOM     15  C   UNL     1      13.181  -5.234   0.200  0.00  0.00    +0.048 C 
ATOM     16  C   UNL     1      12.030  -4.278   0.516  0.00  0.00    +0.225 C 
ENDBRANCH  14  16
ENDBRANCH   8  14
ENDBRANCH   1  11
BRANCH   4  17
ATOM     17  C   UNL     1       2.407   0.032  -0.002  0.00  0.00    -0.001 A 
ATOM     18  C   UNL     1       2.089   0.942  -1.012  0.00  0.00    +0.012 A 
ATOM     19  C   UNL     1       0.881   1.608  -0.980  0.00  0.00    +0.029 A 
ATOM     20  C   UNL     1      -0.014   1.376   0.049  0.00  0.00    +0.106 A 
ATOM     21  C   UNL     1       0.295   0.475   1.053  0.00  0.00    +0.029 A 
ATOM     22  C   UNL     1       1.500  -0.198   1.033  0.00  0.00    +0.012 A 
BRANCH  20  23
ATOM     23  S   UNL     1      -1.551   2.236   0.086  0.00  0.00    +0.061 S 
ATOM     24  O   UNL     1      -1.978   2.248   1.441  0.00  0.00    -0.153 OA
ATOM     25  O   UNL     1      -1.367   3.428  -0.666  0.00  0.00    -0.153 OA
BRANCH  23  26
ATOM     26  N   UNL     1      -2.647   1.316  -0.748  0.00  0.00    -0.172 NA
ATOM     27  C   UNL     1      -2.844   1.497  -2.195  0.00  0.00    +0.137 C 
ATOM     28  C   UNL     1      -2.749   0.118  -2.867  0.00  0.00    +0.177 C 
ATOM     29  O   UNL     1      -3.644  -0.785  -2.214  0.00  0.00    -0.377 OA
ATOM     30  C   UNL     1      -3.337  -1.019  -0.837  0.00  0.00    +0.177 C 
ATOM     31  C   UNL     1      -3.458   0.297  -0.062  0.00  0.00    +0.137 C 
ENDBRANCH  23  26
ENDBRANCH  20  23
ENDBRANCH   4  17
BRANCH   3  32
ATOM     32  C   UNL     1       4.864   1.472  -0.262  0.00  0.00    +0.152 C 
BRANCH  32  33
ATOM     33  C   UNL     1       4.813   2.086   1.139  0.00  0.00    +0.177 C 
BRANCH  33  34
ATOM     34  O   UNL     1       4.806   3.511   1.034  0.00  0.00    -0.393 OA
ATOM     35  H   UNL     1       4.771   4.129   1.943  0.00  0.00    +0.209 HD
ENDBRANCH  33  34
ENDBRANCH  32  33
ENDBRANCH   3  32
TORSDOF 9
