REMARK  Name = ZINC38555867
REMARK  9 active torsions:
REMARK  status: ('A' for Active; 'I' for Inactive)
REMARK    1  A    between atoms: C_1  and  C_2
REMARK    2  A    between atoms: C_19  and  C_21
REMARK    3  A    between atoms: C_21  and  N_22
REMARK    4  A    between atoms: N_22  and  C_23
REMARK    5  A    between atoms: C_23  and  C_25
REMARK    6  A    between atoms: C_23  and  C_32
REMARK    7  A    between atoms: C_25  and  C_26
REMARK    8  A    between atoms: C_37  and  C_39
REMARK    9  A    between atoms: C_37  and  C_40
REMARK                            x       y       z     vdW  Elec       q    Type
REMARK                         _______ _______ _______ _____ _____    ______ ____
ROOT
ATOM      1  N   UNL     1       5.142  -2.966   0.319  0.00  0.00    +0.382 N 
ATOM      2  H   UNL     1       5.405  -2.727  -0.625  0.00  0.00    -0.085 HD
ATOM      3  H   UNL     1       5.267  -2.163   0.917  0.00  0.00    -0.085 HD
ENDROOT
BRANCH   1   4
ATOM      4  C   UNL     1       3.733  -3.382   0.344  0.00  0.00    -0.067 C 
BRANCH   4  20
ATOM      5  C   UNL     1      -0.019   1.526   0.010  0.00  0.00    +0.012 C 
ATOM      6  C   UNL     1       0.002  -0.004   0.002  0.00  0.00    -0.022 C 
ATOM      7  C   UNL     1      -1.432  -0.527   0.024  0.00  0.00    +0.007 C 
ATOM      8  C   UNL     1      -2.178   0.072   1.220  0.00  0.00    +0.005 C 
ATOM      9  C   UNL     1      -1.511  -0.381   2.522  0.00  0.00    +0.030 C 
ATOM     10  C   UNL     1      -0.038  -0.043   2.462  0.00  0.00    -0.073 C 
ATOM     11  C   UNL     1       0.543   0.627   3.426  0.00  0.00    +0.008 C 
ATOM     12  C   UNL     1       0.745  -0.507   1.247  0.00  0.00    +0.021 C 
ATOM     13  C   UNL     1       0.728  -2.037   1.224  0.00  0.00    +0.016 C 
ATOM     14  C   UNL     1       1.362  -2.593  -0.023  0.00  0.00    +0.042 C 
ATOM     15  C   UNL     1       0.800  -1.988  -1.326  0.00  0.00    +0.181 C 
ATOM     16  C   UNL     1       0.722  -0.489  -1.246  0.00  0.00    +0.052 C 
ATOM     17  O   UNL     1       1.870  -2.303  -2.263  0.00  0.00    -0.461 OA
ATOM     18  C   UNL     1       3.042  -2.041  -1.643  0.00  0.00    +0.309 C 
ATOM     19  O   UNL     1       4.065  -1.699  -2.187  0.00  0.00    -0.251 OA
ATOM     20  C   UNL     1       2.854  -2.233  -0.155  0.00  0.00    +0.087 C 
ENDBRANCH   4  20
ENDBRANCH   1   4
BRANCH   1  21
ATOM     21  C   UNL     1       5.986  -4.069   0.797  0.00  0.00    -0.064 C 
BRANCH  21  22
ATOM     22  C   UNL     1       5.673  -4.350   2.268  0.00  0.00    -0.020 C 
ATOM     23  C   UNL     1       5.958  -3.096   3.101  0.00  0.00    +0.030 C 
ATOM     24  C   UNL     1       5.718  -3.409   4.580  0.00  0.00    +0.161 C 
ATOM     25  O   UNL     1       6.548  -4.503   4.975  0.00  0.00    -0.374 OA
ATOM     26  C   UNL     1       6.293  -5.716   4.263  0.00  0.00    +0.064 C 
ATOM     27  C   UNL     1       6.556  -5.497   2.771  0.00  0.00    +0.036 C 
ATOM     28  C   UNL     1       7.216  -6.818   4.787  0.00  0.00    +0.041 C 
ATOM     29  C   UNL     1       4.835  -6.131   4.468  0.00  0.00    +0.041 C 
ENDBRANCH  21  22
BRANCH  21  30
ATOM     30  C   UNL     1       7.460  -3.683   0.654  0.00  0.00    +0.019 C 
BRANCH  30  31
ATOM     31  C   UNL     1       7.798  -3.526  -0.806  0.00  0.00    -0.049 A 
ATOM     32  C   UNL     1       8.247  -4.614  -1.532  0.00  0.00    +0.003 A 
ATOM     33  C   UNL     1       8.558  -4.471  -2.871  0.00  0.00    +0.000 A 
ATOM     34  C   UNL     1       8.420  -3.240  -3.485  0.00  0.00    +0.000 A 
ATOM     35  C   UNL     1       7.970  -2.152  -2.759  0.00  0.00    +0.000 A 
ATOM     36  C   UNL     1       7.656  -2.297  -1.421  0.00  0.00    +0.003 A 
ENDBRANCH  30  31
ENDBRANCH  21  30
ENDBRANCH   1  21
TORSDOF 6
