REMARK  Name = ZINC15069259
REMARK  9 active torsions:
REMARK  status: ('A' for Active; 'I' for Inactive)
REMARK    1  A    between atoms: C_1  and  C_2
REMARK    2  A    between atoms: C_8  and  C_10
REMARK    3  A    between atoms: N_12  and  C_32
REMARK    4  A    between atoms: C_14  and  C_17
REMARK    5  A    between atoms: N_19  and  C_20
REMARK    6  A    between atoms: C_20  and  C_21
REMARK    7  A    between atoms: C_21  and  N_26
REMARK    8  A    between atoms: C_32  and  C_33
REMARK    9  A    between atoms: C_32  and  C_34
REMARK                            x       y       z     vdW  Elec       q    Type
REMARK                         _______ _______ _______ _____ _____    ______ ____
ROOT
ATOM      1  C   UNL     1      -4.794   0.973   1.749  0.00  0.00    +0.100 A 
ATOM      2  C   UNL     1      -3.543   1.547   1.823  0.00  0.00    +0.102 A 
ATOM      3  N   UNL     1      -2.426   0.812   1.694  0.00  0.00    -0.349 N 
ATOM      4  C   UNL     1      -2.436  -0.514   1.481  0.00  0.00    +0.102 A 
ATOM      5  C   UNL     1      -3.617  -1.219   1.391  0.00  0.00    +0.100 A 
ATOM      6  C   UNL     1      -4.883  -0.479   1.522  0.00  0.00    +0.206 A 
ATOM      7  O   UNL     1      -5.961  -1.045   1.447  0.00  0.00    -0.286 OA
ENDROOT
BRANCH   1  15
ATOM      8  C   UNL     1      -7.474   2.939   7.016  0.00  0.00    +0.007 C 
ATOM      9  C   UNL     1      -6.908   3.245   5.628  0.00  0.00    -0.011 C 
ATOM     10  C   UNL     1      -7.981   2.978   4.570  0.00  0.00    +0.022 C 
ATOM     11  C   UNL     1      -7.422   3.318   3.185  0.00  0.00    +0.108 C 
ATOM     12  N   UNL     1      -6.174   2.569   2.981  0.00  0.00    -0.297 N 
ATOM     13  C   UNL     1      -5.112   2.678   3.991  0.00  0.00    +0.108 C 
ATOM     14  C   UNL     1      -5.695   2.349   5.364  0.00  0.00    +0.022 C 
ATOM     15  C   UNL     1      -6.010   1.792   1.893  0.00  0.00    +0.252 C 
ATOM     16  O   UNL     1      -6.866   1.766   1.029  0.00  0.00    -0.270 OA
ENDBRANCH   1  15
BRANCH   5  17
ATOM     17  C   UNL     1      -3.612  -2.674   1.162  0.00  0.00    +0.249 C 
ATOM     18  O   UNL     1      -4.664  -3.280   1.080  0.00  0.00    -0.270 OA
ATOM     19  N   UNL     1      -2.443  -3.334   1.044  0.00  0.00    -0.309 N 
ATOM     20  H   UNL     1      -1.492  -2.786   1.119  0.00  0.00    +0.149 HD
BRANCH  19  21
ATOM     21  C   UNL     1      -2.439  -4.781   0.817  0.00  0.00    +0.126 C 
BRANCH  21  22
ATOM     22  C   UNL     1      -0.999  -5.297   0.842  0.00  0.00    +0.038 C 
ATOM     23  C   UNL     1      -0.361  -5.018   2.219  0.00  0.00    +0.024 C 
ATOM     24  C   UNL     1       1.109  -4.653   1.889  0.00  0.00    +0.002 C 
ATOM     25  C   UNL     1       0.973  -3.830   0.583  0.00  0.00    +0.002 C 
ATOM     26  C   UNL     1      -0.151  -4.543  -0.198  0.00  0.00    +0.024 C 
BRANCH  22  27
ATOM     27  N   UNL     1      -0.976  -6.738   0.560  0.00  0.00    -0.291 NA
ATOM     28  C   UNL     1      -1.399  -7.011  -0.822  0.00  0.00    +0.113 C 
ATOM     29  C   UNL     1      -1.303  -8.516  -1.091  0.00  0.00    +0.175 C 
ATOM     30  O   UNL     1      -2.099  -9.218  -0.132  0.00  0.00    -0.377 OA
ATOM     31  C   UNL     1      -1.714  -8.975   1.224  0.00  0.00    +0.175 C 
ATOM     32  C   UNL     1      -1.813  -7.476   1.517  0.00  0.00    +0.113 C 
ENDBRANCH  22  27
ENDBRANCH  21  22
ENDBRANCH  19  21
ENDBRANCH   5  17
BRANCH   3  33
ATOM     33  C   UNL     1      -1.132   1.492   1.784  0.00  0.00    +0.081 C 
ATOM     34  C   UNL     1      -0.360   1.293   0.478  0.00  0.00    +0.030 C 
ATOM     35  C   UNL     1      -0.328   0.907   2.946  0.00  0.00    +0.030 C 
ENDBRANCH   3  33
TORSDOF 6
