REMARK  Name = ZINC35370295
REMARK  7 active torsions:
REMARK  status: ('A' for Active; 'I' for Inactive)
REMARK    1  A    between atoms: C_1  and  C_2
REMARK    2  A    between atoms: C_2  and  C_3
REMARK    3  A    between atoms: C_3  and  C_4
REMARK    4  A    between atoms: C_4  and  N_5
REMARK    5  A    between atoms: C_15  and  C_19
REMARK    6  A    between atoms: N_21  and  C_22
REMARK    7  A    between atoms: C_22  and  C_23
REMARK                            x       y       z     vdW  Elec       q    Type
REMARK                         _______ _______ _______ _____ _____    ______ ____
ROOT
ATOM      1  N   UNL     1       1.420  -2.500  -2.473  0.00  0.00    -0.299 N 
ATOM      2  C   UNL     1       1.564  -3.822  -2.692  0.00  0.00    +0.302 C 
ATOM      3  O   UNL     1       1.206  -4.621  -1.848  0.00  0.00    -0.253 OA
ATOM      4  N   UNL     1       2.104  -4.258  -3.847  0.00  0.00    -0.286 N 
ATOM      5  C   UNL     1       2.651  -3.306  -4.824  0.00  0.00    +0.109 C 
ATOM      6  C   UNL     1       4.099  -3.700  -5.137  0.00  0.00    +0.017 C 
ATOM      7  C   UNL     1       4.148  -5.161  -5.556  0.00  0.00    -0.016 C 
ATOM      8  C   UNL     1       3.607  -6.077  -4.468  0.00  0.00    +0.017 C 
ATOM      9  C   UNL     1       2.162  -5.695  -4.150  0.00  0.00    +0.109 C 
ATOM     10  N   UNL     1       3.431  -5.372  -6.831  0.00  0.00    +0.397 N 
ATOM     11  C   UNL     1       4.314  -5.181  -7.999  0.00  0.00    +0.028 C 
ATOM     12  C   UNL     1       5.633  -5.977  -7.765  0.00  0.00    +0.061 C 
ATOM     13  S   UNL     1       5.874  -5.634  -5.967  0.00  0.00    -0.174 S 
ATOM     14  H   UNL     1       1.771  -1.861  -3.113  0.00  0.00    +0.150 HD
ATOM     15  H   UNL     1       3.061  -6.310  -6.849  0.00  0.00    -0.083 HD
ATOM     16  H   UNL     1       2.664  -4.718  -6.888  0.00  0.00    -0.083 HD
ENDROOT
BRANCH  11  17
ATOM     17  C   UNL     1       3.629  -5.693  -9.240  0.00  0.00    +0.200 C 
ATOM     18  O   UNL     1       2.517  -6.170  -9.166  0.00  0.00    -0.278 OA
ATOM     19  N   UNL     1       4.253  -5.620 -10.432  0.00  0.00    -0.313 N 
ATOM     20  H   UNL     1       5.143  -5.238 -10.492  0.00  0.00    +0.149 HD
BRANCH  19  21
ATOM     21  C   UNL     1       3.588  -6.117 -11.639  0.00  0.00    +0.139 C 
BRANCH  21  22
ATOM     22  C   UNL     1       4.493  -5.921 -12.829  0.00  0.00    -0.027 A 
ATOM     23  C   UNL     1       4.433  -4.745 -13.553  0.00  0.00    +0.009 A 
ATOM     24  C   UNL     1       5.261  -4.560 -14.645  0.00  0.00    +0.050 A 
ATOM     25  C   UNL     1       6.152  -5.553 -15.015  0.00  0.00    +0.166 A 
ATOM     26  C   UNL     1       6.212  -6.738 -14.285  0.00  0.00    +0.167 A 
ATOM     27  C   UNL     1       5.384  -6.914 -13.189  0.00  0.00    +0.054 A 
ATOM     28  O   UNL     1       7.159  -7.547 -14.844  0.00  0.00    -0.453 OA
ATOM     29  C   UNL     1       7.388  -7.017 -16.163  0.00  0.00    +0.466 C 
ATOM     30  O   UNL     1       7.061  -5.620 -16.032  0.00  0.00    -0.453 OA
ENDBRANCH  21  22
ENDBRANCH  19  21
ENDBRANCH  11  17
BRANCH   1  31
ATOM     31  C   UNL     1       0.735  -2.028  -1.267  0.00  0.00    +0.106 C 
BRANCH  31  32
ATOM     32  C   UNL     1       0.709  -0.498  -1.261  0.00  0.00    +0.018 C 
BRANCH  32  34
ATOM     33  C   UNL     1      -0.033   1.525   0.004  0.00  0.00    +0.004 C 
ATOM     34  C   UNL     1      -0.007  -0.005  -0.002  0.00  0.00    -0.002 C 
ENDBRANCH  32  34
ENDBRANCH  31  32
ENDBRANCH   1  31
TORSDOF 6
