REMARK  Name = ZINC09318516
REMARK  8 active torsions:
REMARK  status: ('A' for Active; 'I' for Inactive)
REMARK    1  A    between atoms: C_1  and  O_2
REMARK    2  A    between atoms: O_2  and  C_3
REMARK    3  A    between atoms: C_13  and  C_17
REMARK    4  A    between atoms: C_21  and  S_33
REMARK    5  A    between atoms: N_22  and  C_25
REMARK    6  A    between atoms: C_23  and  O_24
REMARK    7  A    between atoms: C_25  and  C_26
REMARK    8  A    between atoms: C_26  and  C_27
REMARK                            x       y       z     vdW  Elec       q    Type
REMARK                         _______ _______ _______ _____ _____    ______ ____
ROOT
ATOM      1  C   UNL     1       1.400   1.611  -0.003  0.00  0.00    +0.070 A 
ATOM      2  C   UNL     1       1.660   2.962  -0.318  0.00  0.00    +0.279 A 
ATOM      3  O   UNL     1       0.738   3.719  -0.586  0.00  0.00    -0.265 OA
ATOM      4  N   UNL     1       2.924   3.413  -0.317  0.00  0.00    -0.185 NA
ATOM      5  C   UNL     1       3.928   2.608  -0.036  0.00  0.00    +0.172 A 
ATOM      6  N   UNL     1       3.717   1.297   0.268  0.00  0.00    -0.291 N 
ATOM      7  C   UNL     1       2.446   0.790   0.286  0.00  0.00    +0.202 A 
ENDROOT
BRANCH   1  18
ATOM      8  C   UNL     1      -3.456   3.194   4.522  0.00  0.00    +0.121 A 
ATOM      9  C   UNL     1      -2.332   2.907   5.287  0.00  0.00    +0.047 A 
ATOM     10  C   UNL     1      -1.181   2.374   4.735  0.00  0.00    +0.030 A 
ATOM     11  C   UNL     1      -1.188   2.131   3.363  0.00  0.00    +0.047 A 
ATOM     12  C   UNL     1      -2.334   2.422   2.580  0.00  0.00    +0.006 A 
ATOM     13  C   UNL     1      -3.489   2.961   3.156  0.00  0.00    +0.056 A 
ATOM     14  C   UNL     1      -1.995   2.049   1.224  0.00  0.00    -0.022 A 
ATOM     15  C   UNL     1      -0.728   1.577   1.245  0.00  0.00    +0.011 A 
ATOM     16  N   UNL     1      -0.237   1.622   2.521  0.00  0.00    -0.359 N 
ATOM     17  H   UNL     1       0.650   1.336   2.788  0.00  0.00    +0.166 HD
ATOM     18  C   UNL     1      -0.013   1.086   0.008  0.00  0.00    +0.018 C 
ATOM     19  C   UNL     1      -2.168   1.258  -1.100  0.00  0.00    -0.076 C 
ATOM     20  C   UNL     1      -2.831   2.133  -0.028  0.00  0.00    +0.018 C 
ATOM     21  N   UNL     1      -0.727   1.583  -1.187  0.00  0.00    +0.388 N 
ATOM     22  H   UNL     1      -0.331   1.142  -2.026  0.00  0.00    -0.084 HD
ATOM     23  H   UNL     1      -0.613   2.602  -1.250  0.00  0.00    -0.084 HD
BRANCH   8  25
ATOM     24  C   UNL     1      -4.471   3.938   6.540  0.00  0.00    +0.277 C 
ATOM     25  O   UNL     1      -4.554   3.717   5.131  0.00  0.00    -0.495 OA
ENDBRANCH   8  25
ENDBRANCH   1  18
BRANCH   7  26
ATOM     26  O   UNL     1       2.233  -0.511   0.588  0.00  0.00    -0.493 OA
ATOM     27  H   UNL     1       2.242  -1.099  -0.180  0.00  0.00    +0.294 HD
ENDBRANCH   7  26
BRANCH   5  28
ATOM     28  S   UNL     1       5.573   3.239  -0.054  0.00  0.00    -0.105 S 
ATOM     29  H   UNL     1       5.914   2.996  -1.401  0.00  0.00    +0.110 HD
ENDBRANCH   5  28
BRANCH   6  30
ATOM     30  C   UNL     1       4.855   0.428   0.577  0.00  0.00    +0.132 C 
BRANCH  30  31
ATOM     31  C   UNL     1       5.368  -0.218  -0.712  0.00  0.00    +0.057 C 
BRANCH  31  32
ATOM     32  C   UNL     1       6.538  -1.113  -0.394  0.00  0.00    -0.046 A 
ATOM     33  C   UNL     1       7.823  -0.604  -0.418  0.00  0.00    +0.004 A 
ATOM     34  C   UNL     1       8.896  -1.423  -0.121  0.00  0.00    +0.000 A 
ATOM     35  C   UNL     1       8.685  -2.754   0.188  0.00  0.00    +0.000 A 
ATOM     36  C   UNL     1       7.401  -3.264   0.207  0.00  0.00    +0.000 A 
ATOM     37  C   UNL     1       6.327  -2.443  -0.084  0.00  0.00    +0.004 A 
ENDBRANCH  31  32
ENDBRANCH  30  31
ENDBRANCH   6  30
TORSDOF 7
