REMARK  Name = ZINC52063708
REMARK  4 active torsions:
REMARK  status: ('A' for Active; 'I' for Inactive)
REMARK    1  A    between atoms: C_4  and  C_7
REMARK    2  A    between atoms: C_4  and  C_19
REMARK    3  A    between atoms: C_7  and  N_8
REMARK    4  A    between atoms: N_11  and  C_14
REMARK                            x       y       z     vdW  Elec       q    Type
REMARK                         _______ _______ _______ _____ _____    ______ ____
ROOT
ATOM      1  N   UNL     1       2.924  -2.107  -2.040  0.00  0.00    -0.305 NA
ATOM      2  C   UNL     1       1.593  -2.704  -2.225  0.00  0.00    +0.066 C 
ATOM      3  C   UNL     1       1.642  -4.183  -1.838  0.00  0.00    -0.063 C 
ATOM      4  N   UNL     1       2.629  -4.877  -2.676  0.00  0.00    +0.383 N 
ATOM      5  C   UNL     1       3.957  -4.286  -2.462  0.00  0.00    -0.063 C 
ATOM      6  C   UNL     1       3.927  -2.807  -2.854  0.00  0.00    +0.066 C 
ATOM      7  H   UNL     1       2.372  -4.781  -3.647  0.00  0.00    -0.081 HD
ENDROOT
BRANCH   4   8
ATOM      8  C   UNL     1       2.663  -6.300  -2.316  0.00  0.00    -0.068 C 
ATOM      9  C   UNL     1       3.644  -7.055  -3.236  0.00  0.00    -0.015 C 
ATOM     10  C   UNL     1       2.964  -8.426  -3.474  0.00  0.00    -0.002 C 
ATOM     11  C   UNL     1       1.466  -8.050  -3.584  0.00  0.00    -0.002 C 
ATOM     12  C   UNL     1       1.278  -6.933  -2.537  0.00  0.00    -0.015 C 
ENDBRANCH   4   8
BRANCH   1  13
ATOM     13  C   UNL     1       2.904  -0.671  -2.348  0.00  0.00    +0.098 C 
BRANCH  13  17
ATOM     14  C   UNL     1       2.498   1.994   1.037  0.00  0.00    +0.000 C 
ATOM     15  C   UNL     1       2.370   0.489   1.284  0.00  0.00    +0.001 C 
ATOM     16  C   UNL     1       2.999  -0.274   0.117  0.00  0.00    +0.015 C 
ATOM     17  C   UNL     1       2.276   0.093  -1.181  0.00  0.00    +0.039 C 
ATOM     18  C   UNL     1       2.404   1.597  -1.428  0.00  0.00    +0.015 C 
ATOM     19  C   UNL     1       1.775   2.361  -0.261  0.00  0.00    +0.001 C 
BRANCH  17  20
ATOM     20  C   UNL     1       0.819  -0.276  -1.066  0.00  0.00    +0.231 C 
ATOM     21  O   UNL     1       0.422  -0.871  -0.093  0.00  0.00    -0.300 OA
ENDBRANCH  17  20
ENDBRANCH  13  17
ENDBRANCH   1  13
TORSDOF 4
