REMARK  Name = ZINC18326717
REMARK  8 active torsions:
REMARK  status: ('A' for Active; 'I' for Inactive)
REMARK    1  A    between atoms: C_1  and  C_2
REMARK    2  A    between atoms: C_5  and  N_9
REMARK    3  A    between atoms: C_6  and  C_8
REMARK    4  A    between atoms: C_13  and  S_14
REMARK    5  A    between atoms: S_14  and  C_15
REMARK    6  A    between atoms: C_15  and  C_17
REMARK    7  A    between atoms: C_15  and  C_18
REMARK    8  A    between atoms: C_24  and  C_29
REMARK                            x       y       z     vdW  Elec       q    Type
REMARK                         _______ _______ _______ _____ _____    ______ ____
ROOT
ATOM      1  C   UNL     1      -2.730   0.157   0.028  0.00  0.00    +0.117 C 
ATOM      2  C   UNL     1      -2.703   0.957  -1.275  0.00  0.00    +0.027 C 
ENDROOT
BRANCH   1   3
ATOM      3  C   UNL     1      -4.058  -0.543   0.161  0.00  0.00    +0.124 A 
ATOM      4  N   UNL     1      -5.052   0.043   0.875  0.00  0.00    -0.309 N 
ATOM      5  H   UNL     1      -4.895   0.905   1.291  0.00  0.00    +0.170 HD
ATOM      6  C   UNL     1      -6.253  -0.549   1.018  0.00  0.00    +0.260 A 
ATOM      7  O   UNL     1      -7.136  -0.009   1.663  0.00  0.00    -0.267 OA
ATOM      8  C   UNL     1      -6.477  -1.820   0.401  0.00  0.00    +0.083 A 
ATOM      9  C   UNL     1      -7.676  -2.651   0.410  0.00  0.00    +0.039 A 
ATOM     10  C   UNL     1      -7.653  -3.834  -0.255  0.00  0.00    +0.059 A 
ATOM     11  S   UNL     1      -6.006  -3.894  -0.933  0.00  0.00    -0.076 S 
ATOM     12  C   UNL     1      -5.392  -2.348  -0.317  0.00  0.00    +0.116 A 
ATOM     13  N   UNL     1      -4.234  -1.701  -0.418  0.00  0.00    -0.225 NA
BRANCH   9  14
ATOM     14  C   UNL     1      -8.891  -2.215   1.128  0.00  0.00    +0.136 A 
ATOM     15  C   UNL     1     -10.151  -2.179   0.618  0.00  0.00    +0.050 A 
ATOM     16  C   UNL     1     -10.992  -1.703   1.645  0.00  0.00    +0.042 A 
ATOM     17  C   UNL     1     -10.211  -1.466   2.716  0.00  0.00    +0.196 A 
ATOM     18  O   UNL     1      -8.941  -1.777   2.401  0.00  0.00    -0.463 OA
ENDBRANCH   9  14
ENDBRANCH   1   3
BRANCH   1  19
ATOM     19  S   UNL     1      -1.400  -1.071   0.010  0.00  0.00    -0.075 S 
BRANCH  19  24
ATOM     20  N   UNL     1       1.315  -0.386  -0.013  0.00  0.00    -0.277 N 
ATOM     21  C   UNL     1       2.039   0.777  -0.013  0.00  0.00    +0.230 A 
ATOM     22  N   UNL     1       1.186   1.763   0.000  0.00  0.00    -0.137 NA
ATOM     23  N   UNL     1      -0.016   1.309   0.009  0.00  0.00    -0.122 NA
ATOM     24  C   UNL     1       0.002  -0.004   0.002  0.00  0.00    +0.197 A 
BRANCH  20  29
ATOM     25  C   UNL     1       3.344  -5.687  -0.060  0.00  0.00    +0.044 C 
ATOM     26  C   UNL     1       2.806  -4.280  -0.047  0.00  0.00    -0.050 A 
ATOM     27  C   UNL     1       3.043  -3.460   1.041  0.00  0.00    +0.005 A 
ATOM     28  C   UNL     1       2.550  -2.169   1.055  0.00  0.00    +0.027 A 
ATOM     29  C   UNL     1       1.817  -1.696  -0.024  0.00  0.00    +0.053 A 
ATOM     30  C   UNL     1       1.577  -2.523  -1.113  0.00  0.00    -0.026 A 
ATOM     31  C   UNL     1       2.076  -3.811  -1.124  0.00  0.00    +0.008 A 
ATOM     32  C   UNL     1       0.776  -2.014  -2.284  0.00  0.00    +0.046 C 
ENDBRANCH  20  29
ENDBRANCH  19  24
ENDBRANCH   1  19
TORSDOF 5
