REMARK  Name = ZINC40008889
REMARK  6 active torsions:
REMARK  status: ('A' for Active; 'I' for Inactive)
REMARK    1  A    between atoms: C_1  and  C_2
REMARK    2  A    between atoms: C_4  and  C_36
REMARK    3  A    between atoms: C_12  and  C_29
REMARK    4  A    between atoms: C_19  and  C_28
REMARK    5  A    between atoms: C_20  and  C_27
REMARK    6  A    between atoms: C_32  and  O_35
REMARK                            x       y       z     vdW  Elec       q    Type
REMARK                         _______ _______ _______ _____ _____    ______ ____
ROOT
ATOM      1  C   UNL     1      -0.018   1.503   0.010  0.00  0.00    +0.044 C 
ATOM      2  C   UNL     1       0.002  -0.004   0.002  0.00  0.00    -0.049 A 
ATOM      3  C   UNL     1       0.006  -0.698  -1.199  0.00  0.00    +0.009 A 
ATOM      4  C   UNL     1       0.024  -2.068  -1.235  0.00  0.00    -0.024 A 
ATOM      5  C   UNL     1       0.040  -2.822  -0.038  0.00  0.00    +0.083 A 
ATOM      6  C   UNL     1       0.036  -2.081   1.166  0.00  0.00    +0.041 A 
ATOM      7  C   UNL     1       0.023  -0.709   1.192  0.00  0.00    +0.020 A 
ATOM      8  S   UNL     1       0.059  -3.361   2.397  0.00  0.00    -0.052 S 
ATOM      9  C   UNL     1       0.072  -4.752   1.275  0.00  0.00    +0.169 A 
ATOM     10  N   UNL     1       0.059  -4.165   0.101  0.00  0.00    -0.224 NA
ATOM     11  N   UNL     1       0.092  -6.104   1.569  0.00  0.00    -0.232 N 
ATOM     12  C   UNL     1       0.101  -6.697   2.916  0.00  0.00    +0.151 C 
ATOM     13  C   UNL     1       0.124  -8.176   2.711  0.00  0.00    +0.072 A 
ATOM     14  C   UNL     1       0.151  -9.285   3.670  0.00  0.00    +0.199 A 
ATOM     15  O   UNL     1      -0.019  -9.135   4.867  0.00  0.00    -0.287 OA
ATOM     16  C   UNL     1       0.404 -10.607   3.043  0.00  0.00    +0.065 A 
ATOM     17  C   UNL     1       0.656 -11.727   3.835  0.00  0.00    +0.019 A 
ATOM     18  C   UNL     1       0.892 -12.936   3.243  0.00  0.00    -0.047 A 
ATOM     19  C   UNL     1       0.883 -13.051   1.860  0.00  0.00    -0.044 A 
ATOM     20  C   UNL     1       0.634 -11.956   1.063  0.00  0.00    +0.050 A 
ATOM     21  C   UNL     1       0.388 -10.711   1.643  0.00  0.00    +0.140 A 
ATOM     22  O   UNL     1       0.136  -9.651   0.842  0.00  0.00    -0.450 OA
ATOM     23  C   UNL     1       0.124  -8.409   1.364  0.00  0.00    +0.199 A 
ATOM     24  C   UNL     1       0.101  -7.110   0.670  0.00  0.00    +0.289 C 
ATOM     25  O   UNL     1       0.094  -6.966  -0.536  0.00  0.00    -0.266 OA
ATOM     26  C   UNL     1       1.148 -14.390   1.222  0.00  0.00    +0.044 C 
ATOM     27  C   UNL     1       1.164 -14.149   4.095  0.00  0.00    +0.044 C 
ATOM     28  C   UNL     1       0.026  -2.779  -2.564  0.00  0.00    +0.046 C 
ENDROOT
BRANCH  12  29
ATOM     29  C   UNL     1       1.328  -6.255   3.671  0.00  0.00    -0.022 A 
ATOM     30  C   UNL     1       2.538  -6.136   3.011  0.00  0.00    +0.009 A 
ATOM     31  C   UNL     1       3.664  -5.732   3.701  0.00  0.00    +0.046 A 
ATOM     32  C   UNL     1       3.582  -5.445   5.056  0.00  0.00    +0.117 A 
ATOM     33  C   UNL     1       2.367  -5.565   5.715  0.00  0.00    +0.046 A 
ATOM     34  C   UNL     1       1.242  -5.965   5.020  0.00  0.00    +0.009 A 
BRANCH  32  35
ATOM     35  O   UNL     1       4.689  -5.048   5.736  0.00  0.00    -0.507 OA
ATOM     36  H   UNL     1       4.824  -4.090   5.744  0.00  0.00    +0.292 HD
ENDBRANCH  32  35
ENDBRANCH  12  29
TORSDOF 2
