REMARK  Name = ZINC12900243
REMARK  7 active torsions:
REMARK  status: ('A' for Active; 'I' for Inactive)
REMARK    1  A    between atoms: C_1  and  C_2
REMARK    2  A    between atoms: C_2  and  C_4
REMARK    3  A    between atoms: C_2  and  N_12
REMARK    4  A    between atoms: C_6  and  C_9
REMARK    5  A    between atoms: C_9  and  C_10
REMARK    6  A    between atoms: C_9  and  C_11
REMARK    7  A    between atoms: C_15  and  C_18
REMARK                            x       y       z     vdW  Elec       q    Type
REMARK                         _______ _______ _______ _____ _____    ______ ____
ROOT
ATOM      1  N   UNL     1       0.690  -0.478  -1.207  0.00  0.00    +0.390 N 
ATOM      2  C   UNL     1      -0.027  -0.001  -2.400  0.00  0.00    -0.073 C 
ATOM      3  C   UNL     1       0.837  -0.278  -3.632  0.00  0.00    +0.017 C 
ATOM      4  C   UNL     1       1.299  -1.710  -3.612  0.00  0.00    -0.046 C 
ATOM      5  C   UNL     1       1.243  -2.453  -2.526  0.00  0.00    -0.041 C 
ATOM      6  C   UNL     1       0.711  -1.945  -1.216  0.00  0.00    -0.050 C 
ATOM      7  H   UNL     1       1.635  -0.127  -1.216  0.00  0.00    -0.080 HD
ENDROOT
BRANCH   4   8
ATOM      8  C   UNL     1       1.835  -2.303  -4.853  0.00  0.00    +0.003 A 
ATOM      9  C   UNL     1       1.120  -2.696  -5.938  0.00  0.00    +0.091 A 
ATOM     10  N   UNL     1       1.962  -3.196  -6.888  0.00  0.00    -0.360 N 
ATOM     11  H   UNL     1       1.683  -3.539  -7.752  0.00  0.00    +0.165 HD
ATOM     12  C   UNL     1       3.266  -3.142  -6.444  0.00  0.00    +0.047 A 
ATOM     13  C   UNL     1       3.249  -2.578  -5.158  0.00  0.00    +0.007 A 
ATOM     14  C   UNL     1       4.442  -2.396  -4.460  0.00  0.00    +0.010 A 
ATOM     15  C   UNL     1       5.634  -2.768  -5.040  0.00  0.00    +0.001 A 
ATOM     16  C   UNL     1       5.652  -3.322  -6.312  0.00  0.00    +0.002 A 
ATOM     17  C   UNL     1       4.481  -3.516  -7.010  0.00  0.00    +0.026 A 
ENDBRANCH   4   8
BRANCH   1  19
ATOM     18  C   UNL     1      -0.019   1.526   0.010  0.00  0.00    -0.003 C 
ATOM     19  C   UNL     1       0.002  -0.004   0.002  0.00  0.00    +0.019 C 
BRANCH  19  20
ATOM     20  C   UNL     1       0.731  -0.503   1.223  0.00  0.00    +0.214 A 
ATOM     21  N   UNL     1       0.179  -1.034   2.279  0.00  0.00    -0.197 NA
ATOM     22  C   UNL     1       1.119  -1.365   3.171  0.00  0.00    +0.174 A 
ATOM     23  N   UNL     1       2.287  -1.047   2.691  0.00  0.00    -0.061 NA
ATOM     24  O   UNL     1       2.057  -0.484   1.408  0.00  0.00    -0.340 OA
BRANCH  22  25
ATOM     25  C   UNL     1       0.868  -2.001   4.514  0.00  0.00    +0.054 C 
ATOM     26  C   UNL     1       1.586  -3.351   4.581  0.00  0.00    +0.015 C 
ATOM     27  C   UNL     1       1.397  -1.086   5.619  0.00  0.00    +0.015 C 
ENDBRANCH  22  25
ENDBRANCH  19  20
ENDBRANCH   1  19
TORSDOF 4
