REMARK  Name = ZINC67216243
REMARK  7 active torsions:
REMARK  status: ('A' for Active; 'I' for Inactive)
REMARK    1  A    between atoms: C_1  and  C_2
REMARK    2  A    between atoms: C_2  and  C_4
REMARK    3  A    between atoms: C_9  and  N_10
REMARK    4  A    between atoms: C_11  and  C_13
REMARK    5  A    between atoms: C_13  and  S_14
REMARK    6  A    between atoms: S_14  and  C_15
REMARK    7  A    between atoms: N_24  and  C_25
REMARK                            x       y       z     vdW  Elec       q    Type
REMARK                         _______ _______ _______ _____ _____    ______ ____
ROOT
ATOM      1  S   UNL     1       0.756  -6.567   1.028  0.00  0.00    -0.078 S 
ENDROOT
BRANCH   1   2
ATOM      2  C   UNL     1       0.734  -7.272   2.642  0.00  0.00    +0.177 A 
ATOM      3  N   UNL     1       0.514  -6.489   3.663  0.00  0.00    -0.222 NA
ATOM      4  C   UNL     1       0.482  -6.963   4.944  0.00  0.00    +0.086 A 
ATOM      5  C   UNL     1       0.259  -6.250   6.131  0.00  0.00    +0.036 A 
ATOM      6  C   UNL     1       0.263  -6.890   7.319  0.00  0.00    +0.048 A 
ATOM      7  S   UNL     1       0.587  -8.583   6.853  0.00  0.00    -0.090 S 
ATOM      8  C   UNL     1       0.700  -8.343   5.100  0.00  0.00    +0.102 A 
ATOM      9  C   UNL     1       0.935  -9.173   4.006  0.00  0.00    +0.274 A 
ATOM     10  O   UNL     1       1.123 -10.368   4.157  0.00  0.00    -0.266 OA
ATOM     11  N   UNL     1       0.944  -8.618   2.771  0.00  0.00    -0.252 N 
BRANCH  11  12
ATOM     12  C   UNL     1       1.170  -9.412   1.638  0.00  0.00    +0.087 A 
ATOM     13  C   UNL     1       2.464  -9.617   1.179  0.00  0.00    +0.029 A 
ATOM     14  C   UNL     1       2.684 -10.401   0.063  0.00  0.00    +0.002 A 
ATOM     15  C   UNL     1       1.617 -10.981  -0.599  0.00  0.00    +0.003 A 
ATOM     16  C   UNL     1       0.326 -10.779  -0.146  0.00  0.00    +0.040 A 
ATOM     17  C   UNL     1       0.099 -10.001   0.975  0.00  0.00    +0.147 A 
ATOM     18  F   UNL     1      -1.162  -9.808   1.420  0.00  0.00    -0.203 F 
ENDBRANCH  11  12
ENDBRANCH   1   2
BRANCH   1  19
ATOM     19  C   UNL     1       0.443  -4.803   1.315  0.00  0.00    +0.173 C 
BRANCH  19  21
ATOM     20  N   UNL     1       0.220  -2.743  -0.036  0.00  0.00    -0.284 N 
ATOM     21  C   UNL     1       0.435  -4.073  -0.003  0.00  0.00    +0.228 C 
ATOM     22  O   UNL     1       0.622  -4.683  -1.035  0.00  0.00    -0.275 OA
ATOM     23  H   UNL     1       0.128  -2.247   0.792  0.00  0.00    +0.155 HD
BRANCH  20  29
ATOM     24  C   UNL     1      -0.861  -1.104  -1.460  0.00  0.00    +0.042 A 
ATOM     25  C   UNL     1      -0.939  -0.439  -2.693  0.00  0.00    +0.062 A 
ATOM     26  C   UNL     1      -0.052  -0.750  -3.700  0.00  0.00    +0.167 A 
ATOM     27  C   UNL     1       0.928  -1.727  -3.496  0.00  0.00    +0.168 A 
ATOM     28  C   UNL     1       1.013  -2.388  -2.281  0.00  0.00    +0.073 A 
ATOM     29  C   UNL     1       0.130  -2.082  -1.258  0.00  0.00    +0.048 A 
ATOM     30  O   UNL     1       1.669  -1.842  -4.635  0.00  0.00    -0.453 OA
ATOM     31  C   UNL     1       0.881  -1.227  -5.672  0.00  0.00    +0.466 C 
ATOM     32  O   UNL     1       0.082  -0.259  -4.968  0.00  0.00    -0.453 OA
BRANCH  24  34
ATOM     33  C   UNL     1      -2.787   0.350  -0.565  0.00  0.00    +0.091 C 
ATOM     34  C   UNL     1      -1.802  -0.777  -0.387  0.00  0.00    +0.162 C 
ATOM     35  O   UNL     1      -1.789  -1.413   0.646  0.00  0.00    -0.292 OA
ENDBRANCH  24  34
ENDBRANCH  20  29
ENDBRANCH  19  21
ENDBRANCH   1  19
TORSDOF 6
