REMARK  Name = ZINC67602450
REMARK  14 active torsions:
REMARK  status: ('A' for Active; 'I' for Inactive)
REMARK    1  A    between atoms: C_1  and  C_2
REMARK    2  A    between atoms: C_6  and  C_29
REMARK    3  A    between atoms: C_7  and  O_8
REMARK    4  A    between atoms: O_8  and  C_9
REMARK    5  A    between atoms: C_9  and  C_10
REMARK    6  A    between atoms: C_10  and  C_12
REMARK    7  A    between atoms: C_10  and  O_28
REMARK    8  A    between atoms: C_12  and  N_13
REMARK    9  A    between atoms: N_16  and  C_17
REMARK   10  A    between atoms: C_17  and  C_18
REMARK   11  A    between atoms: C_18  and  C_20
REMARK   12  A    between atoms: C_18  and  N_25
REMARK   13  A    between atoms: N_25  and  C_26
REMARK   14  A    between atoms: N_25  and  C_27
REMARK                            x       y       z     vdW  Elec       q    Type
REMARK                         _______ _______ _______ _____ _____    ______ ____
ROOT
ATOM      1  N   UNL     1      -1.331   3.114   6.149  0.00  0.00    -0.297 N 
ATOM      2  C   UNL     1      -2.511   3.302   6.772  0.00  0.00    +0.300 C 
ATOM      3  O   UNL     1      -3.523   2.800   6.322  0.00  0.00    -0.253 OA
ATOM      4  N   UNL     1      -2.570   4.045   7.895  0.00  0.00    -0.301 N 
ATOM      5  H   UNL     1      -0.524   3.515   6.508  0.00  0.00    +0.150 HD
ATOM      6  H   UNL     1      -1.762   4.445   8.254  0.00  0.00    +0.150 HD
ENDROOT
BRANCH   1   7
ATOM      7  C   UNL     1      -1.268   2.307   4.928  0.00  0.00    +0.140 C 
BRANCH   7   8
ATOM      8  C   UNL     1       0.176   2.253   4.426  0.00  0.00    +0.169 C 
BRANCH   8   9
ATOM      9  O   UNL     1       0.987   1.563   5.379  0.00  0.00    -0.387 OA
ATOM     10  H   UNL     1       0.709   0.651   5.545  0.00  0.00    +0.210 HD
ENDBRANCH   8   9
BRANCH   8  11
ATOM     11  C   UNL     1       0.224   1.516   3.086  0.00  0.00    +0.261 C 
BRANCH  11  12
ATOM     12  O   UNL     1       1.552   1.567   2.561  0.00  0.00    -0.489 OA
BRANCH  12  19
ATOM     13  C   UNL     1       1.203   3.113   0.223  0.00  0.00    +0.047 C 
ATOM     14  C   UNL     1       1.611   1.663   0.185  0.00  0.00    -0.009 A 
ATOM     15  C   UNL     1       1.837   1.040  -1.027  0.00  0.00    +0.007 A 
ATOM     16  C   UNL     1       2.212  -0.290  -1.063  0.00  0.00    +0.001 A 
ATOM     17  C   UNL     1       2.362  -1.000   0.114  0.00  0.00    +0.007 A 
ATOM     18  C   UNL     1       2.138  -0.382   1.329  0.00  0.00    -0.009 A 
ATOM     19  C   UNL     1       1.767   0.955   1.367  0.00  0.00    +0.126 A 
ATOM     20  C   UNL     1       2.302  -1.156   2.611  0.00  0.00    +0.047 C 
ENDBRANCH  12  19
ENDBRANCH  11  12
ENDBRANCH   8  11
ENDBRANCH   7   8
ENDBRANCH   1   7
BRANCH   4  21
ATOM     21  C   UNL     1      -3.852   4.248   8.573  0.00  0.00    +0.095 C 
BRANCH  21  22
ATOM     22  C   UNL     1      -3.623   5.011   9.879  0.00  0.00    -0.020 C 
BRANCH  22  23
ATOM     23  C   UNL     1      -2.809   4.162  10.821  0.00  0.00    -0.052 A 
ATOM     24  C   UNL     1      -1.451   4.378  10.965  0.00  0.00    +0.009 A 
ATOM     25  C   UNL     1      -0.749   3.596  11.821  0.00  0.00    +0.045 A 
ATOM     26  S   UNL     1      -2.017   2.513  12.458  0.00  0.00    -0.105 S 
ATOM     27  C   UNL     1      -3.399   3.179  11.544  0.00  0.00    +0.047 A 
ENDBRANCH  22  23
BRANCH  22  28
ATOM     28  N   UNL     1      -4.918   5.324  10.497  0.00  0.00    +0.382 N 
ATOM     29  C   UNL     1      -4.698   6.017  11.774  0.00  0.00    -0.096 C 
ATOM     30  C   UNL     1      -5.694   6.190   9.598  0.00  0.00    -0.096 C 
ATOM     31  H   UNL     1      -5.428   4.469  10.662  0.00  0.00    -0.082 HD
ENDBRANCH  22  28
ENDBRANCH  21  22
ENDBRANCH   4  21
TORSDOF 10
