REMARK  Name = ZINC37769950
REMARK  6 active torsions:
REMARK  status: ('A' for Active; 'I' for Inactive)
REMARK    1  A    between atoms: C_1  and  O_2
REMARK    2  A    between atoms: O_2  and  C_3
REMARK    3  A    between atoms: C_3  and  C_5
REMARK    4  A    between atoms: C_10  and  N_11
REMARK    5  A    between atoms: C_12  and  C_14
REMARK    6  A    between atoms: C_14  and  N_19
REMARK                            x       y       z     vdW  Elec       q    Type
REMARK                         _______ _______ _______ _____ _____    ______ ____
ROOT
ATOM      1  N   UNL     1       1.712  -2.026  -3.363  0.00  0.00    -0.285 N 
ATOM      2  C   UNL     1       2.393  -2.661  -4.336  0.00  0.00    +0.206 C 
ATOM      3  O   UNL     1       2.495  -3.869  -4.316  0.00  0.00    -0.277 OA
ATOM      4  H   UNL     1       1.588  -1.065  -3.404  0.00  0.00    +0.155 HD
ENDROOT
BRANCH   1  10
ATOM      5  C   UNL     1      -0.205  -2.820  -2.110  0.00  0.00    +0.082 A 
ATOM      6  C   UNL     1      -0.723  -3.554  -1.040  0.00  0.00    +0.032 A 
ATOM      7  C   UNL     1       0.131  -4.199  -0.172  0.00  0.00    +0.020 A 
ATOM      8  C   UNL     1       1.504  -4.124  -0.355  0.00  0.00    +0.032 A 
ATOM      9  C   UNL     1       2.030  -3.402  -1.408  0.00  0.00    +0.041 A 
ATOM     10  C   UNL     1       1.183  -2.750  -2.296  0.00  0.00    +0.062 A 
ATOM     11 BR   UNL     1       3.903  -3.307  -1.645  0.00  0.00    -0.048 Br
ATOM     12 BR   UNL     1      -0.572  -5.192   1.276  0.00  0.00    -0.050 Br
BRANCH   5  13
ATOM     13  C   UNL     1      -1.114  -2.128  -3.042  0.00  0.00    +0.341 C 
ATOM     14  O   UNL     1      -0.668  -1.583  -4.033  0.00  0.00    -0.245 OA
BRANCH  13  16
ATOM     15  C   UNL     1      -3.259  -1.411  -3.742  0.00  0.00    +0.280 C 
ATOM     16  O   UNL     1      -2.438  -2.099  -2.796  0.00  0.00    -0.464 OA
ENDBRANCH  13  16
ENDBRANCH   5  13
ENDBRANCH   1  10
BRANCH   2  17
ATOM     17  C   UNL     1       3.030  -1.869  -5.450  0.00  0.00    +0.007 C 
ATOM     18  C   UNL     1       2.042  -1.705  -6.631  0.00  0.00    -0.004 C 
ATOM     19  C   UNL     1       2.169  -3.058  -7.374  0.00  0.00    -0.001 C 
ATOM     20  C   UNL     1       3.669  -3.403  -7.278  0.00  0.00    -0.001 C 
ATOM     21  C   UNL     1       4.217  -2.647  -6.055  0.00  0.00    -0.004 C 
BRANCH  17  22
ATOM     22  N   UNL     1       3.471  -0.557  -4.959  0.00  0.00    +0.388 N 
ATOM     23  H   UNL     1       4.155  -0.684  -4.227  0.00  0.00    -0.089 HD
ATOM     24  H   UNL     1       3.884  -0.036  -5.718  0.00  0.00    -0.089 HD
ATOM     25  H   UNL     1       2.679  -0.050  -4.594  0.00  0.00    -0.089 HD
ENDBRANCH  17  22
ENDBRANCH   2  17
TORSDOF 5
