REMARK  Name = ZINC55757233
REMARK  10 active torsions:
REMARK  status: ('A' for Active; 'I' for Inactive)
REMARK    1  A    between atoms: C_1  and  C_2
REMARK    2  A    between atoms: C_2  and  C_3
REMARK    3  A    between atoms: C_3  and  C_4
REMARK    4  A    between atoms: C_4  and  N_5
REMARK    5  A    between atoms: C_9  and  C_10
REMARK    6  A    between atoms: C_19  and  C_20
REMARK    7  A    between atoms: C_19  and  C_22
REMARK    8  A    between atoms: C_22  and  C_24
REMARK    9  A    between atoms: C_24  and  C_25
REMARK   10  A    between atoms: C_24  and  C_26
REMARK                            x       y       z     vdW  Elec       q    Type
REMARK                         _______ _______ _______ _____ _____    ______ ____
ROOT
ATOM      1  N   UNL     1       1.343  -2.644  -2.416  0.00  0.00    -0.301 N 
ATOM      2  C   UNL     1       0.671  -2.922  -3.525  0.00  0.00    +0.266 A 
ATOM      3  O   UNL     1      -0.528  -2.744  -3.633  0.00  0.00    -0.266 OA
ATOM      4  C   UNL     1       1.502  -3.466  -4.618  0.00  0.00    +0.079 A 
ATOM      5  C   UNL     1       1.139  -3.851  -5.869  0.00  0.00    +0.028 C 
ATOM      6  S   UNL     1       3.112  -3.480  -3.849  0.00  0.00    -0.065 S 
ATOM      7  C   UNL     1       2.688  -2.856  -2.347  0.00  0.00    +0.105 A 
ATOM      8  C   UNL     1       3.535  -2.610  -1.256  0.00  0.00    +0.125 C 
ENDROOT
BRANCH   5   9
ATOM      9  C   UNL     1      -0.224  -3.591  -6.351  0.00  0.00    -0.024 A 
ATOM     10  C   UNL     1      -0.850  -2.372  -6.065  0.00  0.00    +0.011 A 
ATOM     11  C   UNL     1      -2.129  -2.135  -6.521  0.00  0.00    +0.039 A 
ATOM     12  C   UNL     1      -2.795  -3.102  -7.260  0.00  0.00    +0.123 A 
ATOM     13  C   UNL     1      -2.181  -4.312  -7.546  0.00  0.00    +0.039 A 
ATOM     14  C   UNL     1      -0.900  -4.559  -7.102  0.00  0.00    +0.011 A 
ATOM     15  F   UNL     1      -4.049  -2.863  -7.702  0.00  0.00    -0.205 F 
ENDBRANCH   5   9
BRANCH   8  16
ATOM     16  C   UNL     1       2.983  -2.208   0.003  0.00  0.00    +0.105 C 
ATOM     17  N   UNL     1       2.545  -1.889   1.001  0.00  0.00    -0.191 NA
ENDBRANCH   8  16
BRANCH   8  18
ATOM     18  C   UNL     1       4.927  -2.758  -1.398  0.00  0.00    +0.178 C 
ATOM     19  O   UNL     1       5.396  -3.100  -2.466  0.00  0.00    -0.291 OA
BRANCH  18  20
ATOM     20  C   UNL     1       5.837  -2.494  -0.226  0.00  0.00    +0.055 C 
ATOM     21  C   UNL     1       7.137  -3.280  -0.402  0.00  0.00    +0.015 C 
ATOM     22  C   UNL     1       6.151  -0.998  -0.152  0.00  0.00    +0.015 C 
ENDBRANCH  18  20
ENDBRANCH   8  18
BRANCH   1  23
ATOM     23  C   UNL     1       0.634  -2.098  -1.256  0.00  0.00    +0.126 C 
BRANCH  23  24
ATOM     24  C   UNL     1       0.257  -3.237  -0.307  0.00  0.00    +0.021 C 
BRANCH  24  26
ATOM     25  C   UNL     1      -0.861  -3.806   1.854  0.00  0.00    +0.004 C 
ATOM     26  C   UNL     1      -0.483  -2.667   0.905  0.00  0.00    -0.002 C 
ENDBRANCH  24  26
ENDBRANCH  23  24
ENDBRANCH   1  23
TORSDOF 7
