REMARK  Name = ZINC28293837
REMARK  2 active torsions:
REMARK  status: ('A' for Active; 'I' for Inactive)
REMARK    1  A    between atoms: C_6  and  C_7
REMARK    2  A    between atoms: C_17  and  C_19
REMARK                            x       y       z     vdW  Elec       q    Type
REMARK                         _______ _______ _______ _____ _____    ______ ____
ROOT
ATOM      1  C   UNL     1      -1.084   5.451   1.224  0.00  0.00    +0.013 C 
ATOM      2  C   UNL     1      -2.266   5.045   0.732  0.00  0.00    -0.023 C 
ATOM      3  C   UNL     1      -3.476   5.949   0.778  0.00  0.00    +0.037 C 
ATOM      4  C   UNL     1      -4.672   5.076   1.184  0.00  0.00    +0.009 C 
ATOM      5  C   UNL     1      -4.889   4.019   0.107  0.00  0.00    +0.034 C 
ATOM      6  C   UNL     1      -3.636   3.221  -0.153  0.00  0.00    -0.028 C 
ATOM      7  C   UNL     1      -2.415   3.695   0.128  0.00  0.00    +0.045 C 
ATOM      8  N   UNL     1      -1.261   3.001  -0.091  0.00  0.00    -0.338 N 
ATOM      9  C   UNL     1      -1.168   1.706  -0.187  0.00  0.00    +0.130 C 
ATOM     10  S   UNL     1      -2.615   0.709  -0.022  0.00  0.00    -0.080 S 
ATOM     11  C   UNL     1      -3.815   1.845  -0.764  0.00  0.00    +0.112 C 
ATOM     12  N   UNL     1       0.053   1.117  -0.410  0.00  0.00    -0.339 N 
ATOM     13  H   UNL     1       0.129   0.022  -0.491  0.00  0.00    +0.144 HD
ATOM     14  H   UNL     1       0.954   1.740  -0.508  0.00  0.00    +0.144 HD
ATOM     15  H   UNL     1      -0.361   3.625  -0.188  0.00  0.00    +0.168 HD
ENDROOT
BRANCH   1  21
ATOM     16  C   UNL     1      -1.586   7.879   1.004  0.00  0.00    +0.009 A 
ATOM     17  C   UNL     1      -1.422   9.183   1.423  0.00  0.00    +0.016 A 
ATOM     18  C   UNL     1      -0.581   9.472   2.484  0.00  0.00    +0.018 A 
ATOM     19  C   UNL     1       0.097   8.456   3.136  0.00  0.00    +0.016 A 
ATOM     20  C   UNL     1      -0.062   7.147   2.732  0.00  0.00    +0.009 A 
ATOM     21  C   UNL     1      -0.909   6.848   1.661  0.00  0.00    -0.025 A 
ATOM     22 BR   UNL     1      -0.356  11.264   3.046  0.00  0.00    -0.050 Br
ENDBRANCH   1  21
BRANCH  11  23
ATOM     23  C   UNL     1      -3.584   1.921  -2.252  0.00  0.00    -0.030 A 
ATOM     24  C   UNL     1      -2.368   2.361  -2.741  0.00  0.00    +0.006 A 
ATOM     25  C   UNL     1      -2.154   2.426  -4.105  0.00  0.00    +0.015 A 
ATOM     26  C   UNL     1      -3.160   2.060  -4.981  0.00  0.00    +0.018 A 
ATOM     27  C   UNL     1      -4.379   1.624  -4.491  0.00  0.00    +0.015 A 
ATOM     28  C   UNL     1      -4.590   1.555  -3.127  0.00  0.00    +0.006 A 
ATOM     29 BR   UNL     1      -2.871   2.155  -6.847  0.00  0.00    -0.050 Br
ENDBRANCH  11  23
TORSDOF 2
