REMARK  Name = ZINC12033633
REMARK  6 active torsions:
REMARK  status: ('A' for Active; 'I' for Inactive)
REMARK    1  A    between atoms: C_11  and  C_13
REMARK    2  A    between atoms: C_13  and  S_14
REMARK    3  A    between atoms: S_14  and  C_15
REMARK    4  A    between atoms: C_20  and  N_24
REMARK    5  A    between atoms: C_21  and  N_23
REMARK    6  A    between atoms: C_25  and  C_27
REMARK                            x       y       z     vdW  Elec       q    Type
REMARK                         _______ _______ _______ _____ _____    ______ ____
ROOT
ATOM      1  C   UNL     1       4.673   6.041  -1.546  0.00  0.00    +0.171 A 
ATOM      2  N   UNL     1       5.626   6.836  -2.107  0.00  0.00    -0.300 N 
ATOM      3  H   UNL     1       6.514   6.483  -2.274  0.00  0.00    +0.171 HD
ATOM      4  C   UNL     1       5.339   8.115  -2.429  0.00  0.00    +0.275 A 
ATOM      5  O   UNL     1       6.188   8.835  -2.933  0.00  0.00    -0.266 OA
ATOM      6  C   UNL     1       4.048   8.603  -2.177  0.00  0.00    +0.139 A 
ATOM      7  C   UNL     1       3.113   7.748  -1.603  0.00  0.00    +0.146 A 
ATOM      8  N   UNL     1       3.457   6.489  -1.310  0.00  0.00    -0.207 NA
ENDROOT
BRANCH   6   9
ATOM      9  N   UNL     1       3.707   9.931  -2.499  0.00  0.00    -0.272 N 
ATOM     10  C   UNL     1       4.401  10.954  -1.963  0.00  0.00    +0.284 C 
ATOM     11  O   UNL     1       5.262  10.735  -1.130  0.00  0.00    -0.266 OA
ATOM     12  H   UNL     1       2.971  10.108  -3.106  0.00  0.00    +0.155 HD
BRANCH  10  13
ATOM     13  C   UNL     1       4.119  12.330  -2.382  0.00  0.00    +0.191 A 
ATOM     14  C   UNL     1       4.741  13.454  -1.917  0.00  0.00    +0.056 A 
ATOM     15  C   UNL     1       4.163  14.542  -2.589  0.00  0.00    +0.058 A 
ATOM     16  C   UNL     1       3.218  14.042  -3.418  0.00  0.00    +0.171 A 
ATOM     17  O   UNL     1       3.195  12.708  -3.290  0.00  0.00    -0.444 OA
ATOM     18 BR   UNL     1       2.114  15.057  -4.569  0.00  0.00    -0.008 Br
ENDBRANCH  10  13
ENDBRANCH   6   9
BRANCH   7  19
ATOM     19  N   UNL     1       1.831   8.197  -1.340  0.00  0.00    -0.341 N 
ATOM     20  H   UNL     1       1.583   9.109  -1.556  0.00  0.00    +0.144 HD
ATOM     21  H   UNL     1       1.181   7.599  -0.940  0.00  0.00    +0.144 HD
ENDBRANCH   7  19
BRANCH   1  22
ATOM     22  S   UNL     1       5.073   4.376  -1.133  0.00  0.00    -0.078 S 
BRANCH  22  23
ATOM     23  C   UNL     1       3.487   3.831  -0.452  0.00  0.00    +0.173 C 
BRANCH  23  34
ATOM     24  C   UNL     1       2.722  -2.337   1.271  0.00  0.00    +0.000 A 
ATOM     25  C   UNL     1       3.737  -1.719   0.563  0.00  0.00    +0.002 A 
ATOM     26  C   UNL     1       3.658  -0.369   0.283  0.00  0.00    +0.024 A 
ATOM     27  C   UNL     1       2.561   0.367   0.713  0.00  0.00    +0.039 A 
ATOM     28  C   UNL     1       1.543  -0.253   1.420  0.00  0.00    -0.026 A 
ATOM     29  C   UNL     1       1.627  -1.608   1.693  0.00  0.00    +0.005 A 
ATOM     30  C   UNL     1       0.337   0.512   1.897  0.00  0.00    +0.038 C 
ATOM     31  C   UNL     1       0.641   2.009   1.957  0.00  0.00    +0.024 C 
ATOM     32  C   UNL     1       1.230   2.449   0.611  0.00  0.00    +0.114 C 
ATOM     33  N   UNL     1       2.502   1.738   0.423  0.00  0.00    -0.270 N 
ATOM     34  C   UNL     1       3.595   2.391  -0.019  0.00  0.00    +0.230 C 
ATOM     35  O   UNL     1       4.664   1.821  -0.070  0.00  0.00    -0.274 OA
ENDBRANCH  23  34
ENDBRANCH  22  23
ENDBRANCH   1  22
TORSDOF 6
