REMARK  Name = ZINC01346562
REMARK  8 active torsions:
REMARK  status: ('A' for Active; 'I' for Inactive)
REMARK    1  A    between atoms: C_1  and  C_2
REMARK    2  A    between atoms: C_6  and  N_8
REMARK    3  A    between atoms: N_8  and  C_9
REMARK    4  A    between atoms: C_9  and  N_11
REMARK    5  A    between atoms: N_11  and  C_12
REMARK    6  A    between atoms: N_11  and  C_27
REMARK    7  A    between atoms: C_12  and  C_13
REMARK    8  A    between atoms: C_17  and  C_26
REMARK                            x       y       z     vdW  Elec       q    Type
REMARK                         _______ _______ _______ _____ _____    ______ ____
ROOT
ATOM      1  N   UNL     1       1.061   7.274   0.231  0.00  0.00    -0.305 N 
ENDROOT
BRANCH   1   2
ATOM      2  C   UNL     1      -0.218   7.976   0.357  0.00  0.00    +0.075 C 
ATOM      3  C   UNL     1      -1.000   7.403   1.541  0.00  0.00    +0.022 C 
ATOM      4  C   UNL     1      -2.336   8.137   1.672  0.00  0.00    +0.002 C 
ATOM      5  C   UNL     1      -3.148   7.952   0.389  0.00  0.00    +0.000 C 
ATOM      6  C   UNL     1      -2.366   8.524  -0.796  0.00  0.00    +0.002 C 
ATOM      7  C   UNL     1      -1.030   7.791  -0.927  0.00  0.00    +0.022 C 
ENDBRANCH   1   2
BRANCH   1   8
ATOM      8  C   UNL     1       1.086   5.929   0.139  0.00  0.00    +0.138 C 
ATOM      9  S   UNL     1       2.584   5.100   0.127  0.00  0.00    -0.018 S 
BRANCH   8  10
ATOM     10  N   UNL     1      -0.068   5.238   0.057  0.00  0.00    -0.297 N 
ATOM     11  H   UNL     1      -0.912   5.710  -0.010  0.00  0.00    +0.154 HD
BRANCH  10  17
ATOM     12  C   UNL     1      -1.841   0.994   1.793  0.00  0.00    +0.044 C 
ATOM     13  C   UNL     1      -0.897   1.756   0.900  0.00  0.00    -0.049 A 
ATOM     14  C   UNL     1      -0.008   1.073   0.090  0.00  0.00    +0.003 A 
ATOM     15  C   UNL     1       0.857   1.768  -0.734  0.00  0.00    +0.002 A 
ATOM     16  C   UNL     1       0.839   3.149  -0.748  0.00  0.00    +0.023 A 
ATOM     17  C   UNL     1      -0.048   3.839   0.068  0.00  0.00    +0.033 A 
ATOM     18  C   UNL     1      -0.915   3.137   0.895  0.00  0.00    +0.026 A 
ENDBRANCH  10  17
ENDBRANCH   8  10
ENDBRANCH   1   8
BRANCH   1  19
ATOM     19  C   UNL     1       2.314   8.033   0.205  0.00  0.00    +0.146 C 
BRANCH  19  20
ATOM     20  C   UNL     1       2.657   8.388  -1.218  0.00  0.00    +0.016 A 
ATOM     21  C   UNL     1       3.574   7.657  -1.893  0.00  0.00    +0.019 A 
ATOM     22  C   UNL     1       3.892   8.019  -3.276  0.00  0.00    +0.001 A 
ATOM     23  C   UNL     1       4.833   7.294  -4.014  0.00  0.00    +0.013 A 
ATOM     24  C   UNL     1       5.110   7.655  -5.301  0.00  0.00    -0.050 A 
ATOM     25  C   UNL     1       4.465   8.738  -5.885  0.00  0.00    +0.005 A 
ATOM     26  C   UNL     1       3.535   9.467  -5.176  0.00  0.00    +0.029 A 
ATOM     27  C   UNL     1       3.236   9.117  -3.864  0.00  0.00    +0.077 A 
ATOM     28  N   UNL     1       2.311   9.828  -3.131  0.00  0.00    -0.192 N 
ATOM     29  C   UNL     1       2.014   9.482  -1.845  0.00  0.00    +0.184 A 
ATOM     30  N   UNL     1       1.106  10.349  -1.420  0.00  0.00    -0.108 NA
ATOM     31  N   UNL     1       0.821  11.188  -2.350  0.00  0.00    -0.022 NA
ATOM     32  N   UNL     1       1.506  10.941  -3.414  0.00  0.00    -0.039 NA
ATOM     33  C   UNL     1       6.123   6.873  -6.096  0.00  0.00    +0.044 C 
ENDBRANCH  19  20
ENDBRANCH   1  19
TORSDOF 6
