REMARK  Name = ZINC25043112
REMARK  11 active torsions:
REMARK  status: ('A' for Active; 'I' for Inactive)
REMARK    1  A    between atoms: C_1  and  C_2
REMARK    2  A    between atoms: C_5  and  N_9
REMARK    3  A    between atoms: C_6  and  C_8
REMARK    4  A    between atoms: N_9  and  S_10
REMARK    5  A    between atoms: S_10  and  C_13
REMARK    6  A    between atoms: C_15  and  N_30
REMARK    7  A    between atoms: C_18  and  N_19
REMARK    8  A    between atoms: N_19  and  N_20
REMARK    9  A    between atoms: C_21  and  C_22
REMARK   10  A    between atoms: C_23  and  C_29
REMARK   11  A    between atoms: N_25  and  C_28
REMARK                            x       y       z     vdW  Elec       q    Type
REMARK                         _______ _______ _______ _____ _____    ______ ____
ROOT
ATOM      1  C   UNL     1       2.437   0.159  -2.427  0.00  0.00    +0.133 A 
ATOM      2  C   UNL     1       3.513   0.098  -3.285  0.00  0.00    +0.063 A 
ATOM      3  C   UNL     1       3.372   0.490  -4.608  0.00  0.00    +0.128 A 
ATOM      4  C   UNL     1       2.152   0.955  -5.075  0.00  0.00    +0.035 A 
ATOM      5  C   UNL     1       1.069   1.027  -4.229  0.00  0.00    +0.029 A 
ATOM      6  C   UNL     1       1.201   0.628  -2.892  0.00  0.00    +0.075 A 
ENDROOT
BRANCH   1   7
ATOM      7  S   UNL     1       2.617  -0.344  -0.748  0.00  0.00    +0.074 S 
ATOM      8  O   UNL     1       2.055   0.690   0.048  0.00  0.00    -0.150 OA
ATOM      9  O   UNL     1       3.962  -0.778  -0.596  0.00  0.00    -0.150 OA
BRANCH   7  10
ATOM     10  N   UNL     1       1.662  -1.679  -0.532  0.00  0.00    -0.216 N 
ATOM     11  H   UNL     1       0.850  -1.661   0.210  0.00  0.00    +0.174 HD
BRANCH  10  16
ATOM     12  C   UNL     1       2.573  -6.347  -3.621  0.00  0.00    +0.044 C 
ATOM     13  C   UNL     1       2.331  -5.107  -2.800  0.00  0.00    -0.050 A 
ATOM     14  C   UNL     1       3.399  -4.326  -2.398  0.00  0.00    +0.005 A 
ATOM     15  C   UNL     1       3.181  -3.192  -1.641  0.00  0.00    +0.025 A 
ATOM     16  C   UNL     1       1.886  -2.829  -1.294  0.00  0.00    +0.051 A 
ATOM     17  C   UNL     1       0.815  -3.612  -1.704  0.00  0.00    -0.028 A 
ATOM     18  C   UNL     1       1.040  -4.748  -2.457  0.00  0.00    +0.008 A 
ATOM     19  C   UNL     1      -0.592  -3.222  -1.330  0.00  0.00    +0.046 C 
ENDBRANCH  10  16
ENDBRANCH   7  10
ENDBRANCH   1   7
BRANCH   3  20
ATOM     20  N   UNL     1       4.533   0.416  -5.526  0.00  0.00    +0.056 N 
ATOM     21  O   UNL     1       4.405   0.791  -6.782  0.00  0.00    -0.126 OA
ATOM     22  O   UNL     1       5.694  -0.025  -5.086  0.00  0.00    -0.126 OA
ENDBRANCH   3  20
BRANCH   6  23
ATOM     23  N   UNL     1       0.128   0.697  -2.043  0.00  0.00    -0.236 N 
ATOM     24  H   UNL     1       0.254   0.461  -0.976  0.00  0.00    +0.174 HD
BRANCH  23  25
ATOM     25  N   UNL     1      -1.032   1.038  -2.495  0.00  0.00    -0.190 NA
ATOM     26  C   UNL     1      -2.064   1.205  -1.645  0.00  0.00    +0.143 C 
BRANCH  26  27
ATOM     27  C   UNL     1      -3.337   1.468  -2.140  0.00  0.00    +0.054 A 
ATOM     28  C   UNL     1      -4.552   1.773  -1.372  0.00  0.00    +0.070 A 
ATOM     29  N   UNL     1      -5.514   1.955  -2.224  0.00  0.00    -0.175 NA
ATOM     30  N   UNL     1      -5.067   1.791  -3.535  0.00  0.00    -0.255 N 
ATOM     31  C   UNL     1      -3.763   1.497  -3.548  0.00  0.00    +0.136 A 
ATOM     32 CL   UNL     1      -2.773   1.207  -4.944  0.00  0.00    -0.062 Cl
ATOM     33  C   UNL     1      -5.907   1.923  -4.728  0.00  0.00    +0.174 C 
ATOM     34  C   UNL     1      -4.661   1.863   0.129  0.00  0.00    +0.068 C 
ENDBRANCH  26  27
ENDBRANCH  23  25
ENDBRANCH   6  23
TORSDOF 7
