REMARK  Name = ZINC01111360
REMARK  13 active torsions:
REMARK  status: ('A' for Active; 'I' for Inactive)
REMARK    1  A    between atoms: C_1  and  C_2
REMARK    2  A    between atoms: C_4  and  C_24
REMARK    3  A    between atoms: C_5  and  C_23
REMARK    4  A    between atoms: C_6  and  C_8
REMARK    5  A    between atoms: C_10  and  C_21
REMARK    6  A    between atoms: C_11  and  N_20
REMARK    7  A    between atoms: C_13  and  C_19
REMARK    8  A    between atoms: C_14  and  C_15
REMARK    9  A    between atoms: C_15  and  O_17
REMARK   10  A    between atoms: O_17  and  C_18
REMARK   11  A    between atoms: C_24  and  O_25
REMARK   12  A    between atoms: O_25  and  C_26
REMARK   13  A    between atoms: C_31  and  C_32
REMARK                            x       y       z     vdW  Elec       q    Type
REMARK                         _______ _______ _______ _____ _____    ______ ____
ROOT
ATOM      1  C   UNL     1      -2.898  -2.051   4.481  0.00  0.00    +0.044 C 
ATOM      2  C   UNL     1      -1.977  -0.943   4.923  0.00  0.00    -0.050 A 
ATOM      3  C   UNL     1      -1.404  -0.981   6.181  0.00  0.00    +0.010 A 
ATOM      4  C   UNL     1      -0.559   0.035   6.586  0.00  0.00    -0.007 A 
ATOM      5  C   UNL     1      -0.284   1.087   5.733  0.00  0.00    -0.040 A 
ATOM      6  C   UNL     1      -0.860   1.128   4.478  0.00  0.00    -0.031 A 
ATOM      7  C   UNL     1      -1.705   0.111   4.072  0.00  0.00    +0.008 A 
ATOM      8  C   UNL     1       0.642   2.192   6.173  0.00  0.00    +0.044 C 
ENDROOT
BRANCH   6   9
ATOM      9  C   UNL     1      -0.564   2.277   3.549  0.00  0.00    +0.105 C 
ATOM     10  C   UNL     1      -1.825   3.062   3.306  0.00  0.00    +0.098 C 
ATOM     11  C   UNL     1      -2.503   2.940   2.139  0.00  0.00    +0.198 C 
ATOM     12  O   UNL     1      -2.084   2.124   1.159  0.00  0.00    -0.445 OA
ATOM     13  C   UNL     1      -0.812   1.698   1.153  0.00  0.00    +0.115 C 
ATOM     14  C   UNL     1      -0.038   1.743   2.244  0.00  0.00    +0.087 C 
ATOM     15  C   UNL     1      -0.233   1.155  -0.128  0.00  0.00    +0.087 C 
BRANCH  11  16
ATOM     16  N   UNL     1      -3.647   3.674   1.953  0.00  0.00    -0.328 N 
ATOM     17  H   UNL     1      -3.961   4.270   2.651  0.00  0.00    +0.145 HD
ATOM     18  H   UNL     1      -4.143   3.597   1.122  0.00  0.00    +0.145 HD
ENDBRANCH  11  16
BRANCH  14  19
ATOM     19  C   UNL     1       1.299   1.281   2.169  0.00  0.00    +0.339 C 
ATOM     20  O   UNL     1       1.768   0.949   1.097  0.00  0.00    -0.245 OA
BRANCH  19  21
ATOM     21  O   UNL     1       2.051   1.209   3.287  0.00  0.00    -0.465 OA
ATOM     22  C   UNL     1       3.391   0.734   3.138  0.00  0.00    +0.280 C 
ENDBRANCH  19  21
ENDBRANCH  14  19
BRANCH  10  23
ATOM     23  C   UNL     1      -2.313   3.949   4.319  0.00  0.00    +0.101 C 
ATOM     24  N   UNL     1      -2.700   4.652   5.123  0.00  0.00    -0.191 NA
ENDBRANCH  10  23
ENDBRANCH   6   9
BRANCH   4  25
ATOM     25  C   UNL     1       0.066  -0.007   7.957  0.00  0.00    +0.264 C 
BRANCH  25  26
ATOM     26  O   UNL     1      -0.364  -1.185   8.641  0.00  0.00    -0.487 OA
BRANCH  26  27
ATOM     27  C   UNL     1       0.112  -1.377   9.900  0.00  0.00    +0.124 A 
ATOM     28  C   UNL     1       0.975  -0.449  10.464  0.00  0.00    +0.047 A 
ATOM     29  C   UNL     1       1.458  -0.645  11.744  0.00  0.00    +0.023 A 
ATOM     30  C   UNL     1       1.080  -1.766  12.463  0.00  0.00    +0.041 A 
ATOM     31  C   UNL     1       0.219  -2.692  11.901  0.00  0.00    +0.027 A 
ATOM     32  C   UNL     1      -0.270  -2.496  10.624  0.00  0.00    -0.007 A 
ATOM     33  C   UNL     1      -1.213  -3.502  10.015  0.00  0.00    +0.047 C 
ATOM     34 CL   UNL     1       1.687  -2.010  14.070  0.00  0.00    -0.084 Cl
ENDBRANCH  26  27
ENDBRANCH  25  26
ENDBRANCH   4  25
TORSDOF 8
