REMARK  Name = ZINC63082838
REMARK  11 active torsions:
REMARK  status: ('A' for Active; 'I' for Inactive)
REMARK    1  A    between atoms: C_1  and  C_2
REMARK    2  A    between atoms: C_12  and  S_25
REMARK    3  A    between atoms: N_14  and  C_19
REMARK    4  A    between atoms: S_25  and  C_26
REMARK    5  A    between atoms: C_26  and  C_27
REMARK    6  A    between atoms: C_27  and  C_29
REMARK    7  A    between atoms: C_31  and  C_40
REMARK    8  A    between atoms: C_32  and  C_36
REMARK    9  A    between atoms: C_33  and  C_35
REMARK   10  A    between atoms: C_36  and  O_38
REMARK   11  A    between atoms: O_38  and  C_39
REMARK                            x       y       z     vdW  Elec       q    Type
REMARK                         _______ _______ _______ _____ _____    ______ ____
ROOT
ATOM      1  C   UNL     1       1.776   1.987   1.188  0.00  0.00    +0.007 C 
ATOM      2  C   UNL     1       1.401   0.552   0.814  0.00  0.00    -0.012 C 
ATOM      3  C   UNL     1       2.173   0.138  -0.438  0.00  0.00    +0.008 C 
ATOM      4  C   UNL     1       1.725  -1.257  -0.890  0.00  0.00    +0.033 C 
ATOM      5  C   UNL     1       1.857  -2.188   0.311  0.00  0.00    -0.042 C 
ATOM      6  C   UNL     1       1.240  -1.790   1.654  0.00  0.00    +0.080 C 
ATOM      7  C   UNL     1       1.741  -0.380   1.980  0.00  0.00    +0.022 C 
ATOM      8  S   UNL     1       2.046  -2.990   2.792  0.00  0.00    -0.098 S 
ATOM      9  C   UNL     1       2.577  -4.141   1.557  0.00  0.00    +0.107 C 
ATOM     10  N   UNL     1       2.985  -5.357   1.612  0.00  0.00    -0.243 NA
ATOM     11  C   UNL     1       3.246  -6.088   0.370  0.00  0.00    +0.260 C 
ATOM     12  N   UNL     1       3.572  -5.242  -0.763  0.00  0.00    -0.236 N 
ATOM     13  C   UNL     1       3.158  -3.965  -0.913  0.00  0.00    +0.256 C 
ATOM     14  O   UNL     1       3.319  -3.348  -1.948  0.00  0.00    -0.269 OA
ATOM     15  C   UNL     1       2.484  -3.358   0.283  0.00  0.00    +0.069 C 
ENDROOT
BRANCH  12  16
ATOM     16  C   UNL     1       4.374  -5.786  -1.771  0.00  0.00    +0.039 A 
ATOM     17  C   UNL     1       5.758  -5.722  -1.671  0.00  0.00    +0.023 A 
ATOM     18  C   UNL     1       6.546  -6.261  -2.668  0.00  0.00    +0.002 A 
ATOM     19  C   UNL     1       5.960  -6.864  -3.765  0.00  0.00    +0.000 A 
ATOM     20  C   UNL     1       4.582  -6.931  -3.868  0.00  0.00    +0.002 A 
ATOM     21  C   UNL     1       3.788  -6.398  -2.872  0.00  0.00    +0.023 A 
ENDBRANCH  12  16
BRANCH  11  22
ATOM     22  S   UNL     1       1.772  -7.060  -0.047  0.00  0.00    -0.107 S 
BRANCH  22  23
ATOM     23  C   UNL     1       0.465  -5.816  -0.234  0.00  0.00    +0.153 C 
BRANCH  23  24
ATOM     24  C   UNL     1      -0.832  -6.498  -0.586  0.00  0.00    +0.188 C 
ATOM     25  O   UNL     1      -0.871  -7.705  -0.700  0.00  0.00    -0.290 OA
BRANCH  24  26
ATOM     26  C   UNL     1      -2.050  -5.701  -0.792  0.00  0.00    +0.092 C 
ATOM     27  N   UNL     1      -2.158  -4.405  -0.710  0.00  0.00    -0.252 NA
ATOM     28  C   UNL     1      -3.390  -3.953  -0.948  0.00  0.00    +0.049 C 
ATOM     29  C   UNL     1      -4.259  -4.955  -1.223  0.00  0.00    +0.066 C 
ATOM     30  C   UNL     1      -3.429  -6.224  -1.149  0.00  0.00    +0.077 C 
ATOM     31  C   UNL     1      -3.957  -7.151  -0.053  0.00  0.00    +0.019 C 
ATOM     32  C   UNL     1      -3.772  -2.495  -0.913  0.00  0.00    +0.066 C 
BRANCH  29  33
ATOM     33  C   UNL     1      -5.689  -4.840  -1.532  0.00  0.00    +0.337 C 
ATOM     34  O   UNL     1      -6.218  -3.745  -1.561  0.00  0.00    -0.245 OA
BRANCH  33  35
ATOM     35  O   UNL     1      -6.416  -5.947  -1.784  0.00  0.00    -0.465 OA
ATOM     36  C   UNL     1      -7.802  -5.760  -2.077  0.00  0.00    +0.280 C 
ENDBRANCH  33  35
ENDBRANCH  29  33
ENDBRANCH  24  26
ENDBRANCH  23  24
ENDBRANCH  22  23
ENDBRANCH  11  22
TORSDOF 7
