REMARK  Name = ZINC58406495
REMARK  5 active torsions:
REMARK  status: ('A' for Active; 'I' for Inactive)
REMARK    1  A    between atoms: C_1  and  C_2
REMARK    2  A    between atoms: C_2  and  C_3
REMARK    3  A    between atoms: C_2  and  C_4
REMARK    4  A    between atoms: C_2  and  C_5
REMARK    5  A    between atoms: C_6  and  C_11
REMARK                            x       y       z     vdW  Elec       q    Type
REMARK                         _______ _______ _______ _____ _____    ______ ____
ROOT
ATOM      1  C   UNL     1       0.493  -3.025  -0.835  0.00  0.00    +0.018 C 
ATOM      2  C   UNL     1       0.673  -4.259  -1.349  0.00  0.00    -0.002 C 
ATOM      3  C   UNL     1       0.193  -5.557  -0.746  0.00  0.00    +0.060 C 
ATOM      4  C   UNL     1       0.663  -6.638  -1.728  0.00  0.00    +0.131 C 
ATOM      5  N   UNL     1       1.365  -5.940  -2.814  0.00  0.00    -0.292 N 
ATOM      6  C   UNL     1       1.367  -4.587  -2.602  0.00  0.00    +0.140 A 
ATOM      7  N   UNL     1       1.939  -3.748  -3.453  0.00  0.00    -0.229 NA
ATOM      8  C   UNL     1       2.549  -4.162  -4.574  0.00  0.00    +0.080 A 
ATOM      9  C   UNL     1       3.148  -3.260  -5.460  0.00  0.00    +0.048 A 
ATOM     10  C   UNL     1       3.763  -3.733  -6.599  0.00  0.00    +0.043 A 
ATOM     11  C   UNL     1       3.795  -5.095  -6.878  0.00  0.00    +0.021 A 
ATOM     12  C   UNL     1       3.216  -5.995  -6.028  0.00  0.00    +0.017 A 
ATOM     13  C   UNL     1       2.587  -5.545  -4.868  0.00  0.00    +0.065 A 
ATOM     14  C   UNL     1       1.958  -6.468  -3.916  0.00  0.00    +0.262 A 
ATOM     15  O   UNL     1       1.957  -7.669  -4.115  0.00  0.00    -0.267 OA
ATOM     16 CL   UNL     1       4.506  -2.615  -7.699  0.00  0.00    -0.083 Cl
ENDROOT
BRANCH   1  18
ATOM     17  C   UNL     1       1.489  -0.668  -1.131  0.00  0.00    +0.075 A 
ATOM     18  C   UNL     1       0.866  -1.839  -1.621  0.00  0.00    +0.016 A 
ATOM     19  C   UNL     1       0.673  -1.660  -2.978  0.00  0.00    +0.113 A 
ATOM     20  N   UNL     1       1.154  -0.445  -3.295  0.00  0.00    -0.284 N 
ATOM     21  H   UNL     1       1.153  -0.048  -4.181  0.00  0.00    +0.188 HD
ATOM     22  N   UNL     1       1.651   0.153  -2.132  0.00  0.00    -0.178 NA
BRANCH  17  24
ATOM     23  C   UNL     1       2.528   0.975   0.408  0.00  0.00    +0.017 C 
ATOM     24  C   UNL     1       1.891  -0.412   0.298  0.00  0.00    +0.007 C 
ATOM     25  C   UNL     1       2.901  -1.473   0.742  0.00  0.00    +0.017 C 
ATOM     26  C   UNL     1       0.654  -0.478   1.196  0.00  0.00    +0.017 C 
ENDBRANCH  17  24
ENDBRANCH   1  18
TORSDOF 2
