REMARK  Name = ZINC02408912
REMARK  4 active torsions:
REMARK  status: ('A' for Active; 'I' for Inactive)
REMARK    1  A    between atoms: C_1  and  C_2
REMARK    2  A    between atoms: N_15  and  C_25
REMARK    3  A    between atoms: C_16  and  C_18
REMARK    4  A    between atoms: C_25  and  C_26
REMARK                            x       y       z     vdW  Elec       q    Type
REMARK                         _______ _______ _______ _____ _____    ______ ____
ROOT
ATOM      1  C   UNL     1      -3.574  -9.138  -3.622  0.00  0.00    +0.044 C 
ATOM      2  C   UNL     1      -2.463  -8.209  -3.207  0.00  0.00    -0.050 A 
ATOM      3  C   UNL     1      -1.190  -8.375  -3.736  0.00  0.00    +0.007 A 
ATOM      4  C   UNL     1      -0.159  -7.538  -3.370  0.00  0.00    +0.047 A 
ATOM      5  C   UNL     1      -0.390  -6.510  -2.460  0.00  0.00    +0.139 A 
ATOM      6  C   UNL     1      -1.682  -6.349  -1.930  0.00  0.00    +0.065 A 
ATOM      7  C   UNL     1      -2.713  -7.207  -2.311  0.00  0.00    +0.018 A 
ATOM      8  C   UNL     1      -1.907  -5.255  -0.965  0.00  0.00    +0.199 A 
ATOM      9  O   UNL     1      -3.000  -5.057  -0.466  0.00  0.00    -0.287 OA
ATOM     10  C   UNL     1      -0.749  -4.418  -0.639  0.00  0.00    +0.072 A 
ATOM     11  C   UNL     1       0.451  -4.671  -1.216  0.00  0.00    +0.199 A 
ATOM     12  O   UNL     1       0.605  -5.683  -2.093  0.00  0.00    -0.450 OA
ATOM     13  C   UNL     1       1.432  -3.679  -0.708  0.00  0.00    +0.283 C 
ATOM     14  O   UNL     1       2.602  -3.632  -1.031  0.00  0.00    -0.267 OA
ATOM     15  N   UNL     1       0.839  -2.842   0.160  0.00  0.00    -0.281 N 
ATOM     16  C   UNL     1      -0.570  -3.237   0.280  0.00  0.00    +0.145 C 
ENDROOT
BRANCH  16  17
ATOM     17  C   UNL     1      -1.464  -2.105  -0.154  0.00  0.00    -0.022 A 
ATOM     18  C   UNL     1      -1.198  -1.423  -1.327  0.00  0.00    +0.007 A 
ATOM     19  C   UNL     1      -2.021  -0.389  -1.728  0.00  0.00    +0.020 A 
ATOM     20  C   UNL     1      -3.107  -0.027  -0.950  0.00  0.00    +0.041 A 
ATOM     21  C   UNL     1      -3.370  -0.706   0.227  0.00  0.00    +0.020 A 
ATOM     22  C   UNL     1      -2.549  -1.744   0.624  0.00  0.00    +0.007 A 
ATOM     23 CL   UNL     1      -4.138   1.277  -1.450  0.00  0.00    -0.084 Cl
ENDBRANCH  16  17
BRANCH  15  24
ATOM     24  C   UNL     1       1.487  -1.735   0.868  0.00  0.00    +0.140 C 
BRANCH  24  25
ATOM     25  C   UNL     1       2.030  -2.234   2.208  0.00  0.00    +0.136 C 
ATOM     26  C   UNL     1       2.686  -1.070   2.993  0.00  0.00    +0.035 C 
ATOM     27  C   UNL     1       3.675  -1.847   3.902  0.00  0.00    +0.031 C 
ATOM     28  C   UNL     1       4.098  -3.024   2.996  0.00  0.00    +0.160 C 
ATOM     29  O   UNL     1       3.086  -3.184   1.995  0.00  0.00    -0.375 OA
ENDBRANCH  24  25
ENDBRANCH  15  24
TORSDOF 3
