REMARK  Name = ZINC43732597
REMARK  4 active torsions:
REMARK  status: ('A' for Active; 'I' for Inactive)
REMARK    1  A    between atoms: C_1  and  N_2
REMARK    2  A    between atoms: C_4  and  C_26
REMARK    3  A    between atoms: C_6  and  C_18
REMARK    4  A    between atoms: C_18  and  C_20
REMARK                            x       y       z     vdW  Elec       q    Type
REMARK                         _______ _______ _______ _____ _____    ______ ____
ROOT
ATOM      1  C   UNL     1       1.177   1.292   1.306  0.00  0.00    +0.106 C 
ATOM      2  N   UNL     1       0.760   0.020   0.701  0.00  0.00    -0.287 NA
ATOM      3  C   UNL     1      -0.696   0.013   0.432  0.00  0.00    +0.094 C 
ATOM      4  C   UNL     1      -1.133  -1.456   0.659  0.00  0.00    +0.046 C 
ATOM      5  C   UNL     1      -0.236  -1.871   1.857  0.00  0.00    +0.103 C 
ATOM      6  C   UNL     1       1.070  -1.109   1.584  0.00  0.00    +0.136 C 
ATOM      7  C   UNL     1       1.697  -0.645   2.871  0.00  0.00    +0.004 A 
ATOM      8  C   UNL     1       1.276   0.195   3.878  0.00  0.00    +0.008 A 
ATOM      9  C   UNL     1       2.095   0.435   4.967  0.00  0.00    +0.000 A 
ATOM     10  C   UNL     1       3.336  -0.171   5.041  0.00  0.00    +0.002 A 
ATOM     11  C   UNL     1       3.762  -1.012   4.034  0.00  0.00    +0.023 A 
ATOM     12  C   UNL     1       2.944  -1.258   2.934  0.00  0.00    +0.039 A 
ATOM     13  N   UNL     1       3.148  -2.054   1.805  0.00  0.00    -0.283 N 
ATOM     14  C   UNL     1       2.098  -2.022   0.964  0.00  0.00    +0.243 C 
ATOM     15  O   UNL     1       1.997  -2.613  -0.090  0.00  0.00    -0.273 OA
ATOM     16  H   UNL     1       3.953  -2.572   1.646  0.00  0.00    +0.155 HD
ENDROOT
BRANCH   4  17
ATOM     17  C   UNL     1      -2.593  -1.535   1.025  0.00  0.00    -0.042 A 
ATOM     18  C   UNL     1      -3.254  -0.407   1.475  0.00  0.00    +0.005 A 
ATOM     19  C   UNL     1      -4.593  -0.478   1.810  0.00  0.00    +0.020 A 
ATOM     20  C   UNL     1      -5.272  -1.678   1.696  0.00  0.00    +0.041 A 
ATOM     21  C   UNL     1      -4.610  -2.806   1.245  0.00  0.00    +0.020 A 
ATOM     22  C   UNL     1      -3.272  -2.733   0.904  0.00  0.00    +0.005 A 
ATOM     23 CL   UNL     1      -6.953  -1.768   2.117  0.00  0.00    -0.084 Cl
ENDBRANCH   4  17
BRANCH   5  24
ATOM     24  C   UNL     1      -0.852  -1.433   3.161  0.00  0.00    +0.169 C 
ATOM     25  O   UNL     1      -1.440  -0.375   3.229  0.00  0.00    -0.292 OA
BRANCH  24  26
ATOM     26  C   UNL     1      -0.738  -2.289   4.353  0.00  0.00    +0.018 A 
ATOM     27  C   UNL     1      -0.055  -3.508   4.280  0.00  0.00    +0.011 A 
ATOM     28  C   UNL     1       0.047  -4.304   5.401  0.00  0.00    +0.001 A 
ATOM     29  C   UNL     1      -0.524  -3.901   6.596  0.00  0.00    +0.000 A 
ATOM     30  C   UNL     1      -1.202  -2.696   6.675  0.00  0.00    +0.001 A 
ATOM     31  C   UNL     1      -1.308  -1.886   5.565  0.00  0.00    +0.011 A 
ENDBRANCH  24  26
ENDBRANCH   5  24
TORSDOF 3
