REMARK  Name = ZINC45789988
REMARK  10 active torsions:
REMARK  status: ('A' for Active; 'I' for Inactive)
REMARK    1  A    between atoms: C_1  and  C_2
REMARK    2  A    between atoms: C_2  and  C_3
REMARK    3  A    between atoms: C_2  and  N_4
REMARK    4  A    between atoms: N_4  and  C_5
REMARK    5  A    between atoms: N_4  and  C_6
REMARK    6  A    between atoms: C_6  and  C_7
REMARK    7  A    between atoms: C_12  and  C_13
REMARK    8  A    between atoms: C_13  and  N_14
REMARK    9  A    between atoms: N_17  and  N_18
REMARK   10  A    between atoms: C_19  and  C_21
REMARK                            x       y       z     vdW  Elec       q    Type
REMARK                         _______ _______ _______ _____ _____    ______ ____
ROOT
ATOM      1  N   UNL     1       3.489  -3.336  -0.568  0.00  0.00    -0.294 N 
ATOM      2  C   UNL     1       4.207  -3.183   0.562  0.00  0.00    +0.316 C 
ATOM      3  O   UNL     1       4.887  -2.187   0.721  0.00  0.00    -0.251 OA
ATOM      4  N   UNL     1       4.173  -4.135   1.516  0.00  0.00    -0.218 N 
ATOM      5  H   UNL     1       2.947  -4.130  -0.695  0.00  0.00    +0.151 HD
ATOM      6  H   UNL     1       4.690  -4.025   2.329  0.00  0.00    +0.174 HD
ENDROOT
BRANCH   4   7
ATOM      7  N   UNL     1       3.391  -5.282   1.333  0.00  0.00    -0.229 N 
ATOM      8  C   UNL     1       3.356  -6.234   2.287  0.00  0.00    +0.260 C 
ATOM      9  O   UNL     1       4.004  -6.096   3.306  0.00  0.00    -0.269 OA
ATOM     10  H   UNL     1       2.873  -5.392   0.520  0.00  0.00    +0.173 HD
BRANCH   8  11
ATOM     11  C   UNL     1       2.531  -7.445   2.094  0.00  0.00    +0.038 A 
ATOM     12  C   UNL     1       1.790  -7.608   0.922  0.00  0.00    +0.013 A 
ATOM     13  C   UNL     1       1.022  -8.741   0.748  0.00  0.00    +0.001 A 
ATOM     14  C   UNL     1       0.985  -9.713   1.732  0.00  0.00    +0.000 A 
ATOM     15  C   UNL     1       1.716  -9.557   2.896  0.00  0.00    +0.001 A 
ATOM     16  C   UNL     1       2.493  -8.432   3.080  0.00  0.00    +0.013 A 
ENDBRANCH   8  11
ENDBRANCH   4   7
BRANCH   1  17
ATOM     17  C   UNL     1       3.526  -2.301  -1.605  0.00  0.00    +0.141 C 
BRANCH  17  23
ATOM     18  C   UNL     1       1.207  -2.351  -2.544  0.00  0.00    -0.059 A 
ATOM     19  C   UNL     1       0.310  -2.665  -3.548  0.00  0.00    +0.002 A 
ATOM     20  C   UNL     1       0.753  -3.283  -4.703  0.00  0.00    +0.000 A 
ATOM     21  C   UNL     1       2.094  -3.586  -4.853  0.00  0.00    +0.000 A 
ATOM     22  C   UNL     1       2.991  -3.271  -3.850  0.00  0.00    +0.005 A 
ATOM     23  C   UNL     1       2.548  -2.650  -2.697  0.00  0.00    -0.029 A 
BRANCH  18  24
ATOM     24  C   UNL     1       0.723  -1.678  -1.286  0.00  0.00    -0.043 C 
BRANCH  24  25
ATOM     25  N   UNL     1       0.549  -2.683  -0.229  0.00  0.00    +0.382 N 
ATOM     26  C   UNL     1      -0.520  -3.615  -0.610  0.00  0.00    -0.095 C 
ATOM     27  H   UNL     1       1.411  -3.193  -0.104  0.00  0.00    -0.081 HD
BRANCH  25  29
ATOM     28  C   UNL     1       0.008  -3.061   2.130  0.00  0.00    -0.014 C 
ATOM     29  C   UNL     1       0.190  -2.014   1.029  0.00  0.00    -0.075 C 
ATOM     30  C   UNL     1       1.304  -1.044   1.427  0.00  0.00    -0.014 C 
ENDBRANCH  25  29
ENDBRANCH  24  25
ENDBRANCH  18  24
ENDBRANCH  17  23
ENDBRANCH   1  17
TORSDOF 7
