REMARK  Name = ZINC45774006
REMARK  9 active torsions:
REMARK  status: ('A' for Active; 'I' for Inactive)
REMARK    1  A    between atoms: C_1  and  C_2
REMARK    2  A    between atoms: C_2  and  C_4
REMARK    3  A    between atoms: C_2  and  N_12
REMARK    4  A    between atoms: N_12  and  C_13
REMARK    5  A    between atoms: N_12  and  C_14
REMARK    6  A    between atoms: C_14  and  C_15
REMARK    7  A    between atoms: N_17  and  C_18
REMARK    8  A    between atoms: C_21  and  S_24
REMARK    9  A    between atoms: S_24  and  N_27
REMARK                            x       y       z     vdW  Elec       q    Type
REMARK                         _______ _______ _______ _____ _____    ______ ____
ROOT
ATOM      1  C   UNL     1       1.519  -2.432  -2.390  0.00  0.00    +0.201 C 
ATOM      2  O   UNL     1       2.022  -1.632  -3.150  0.00  0.00    -0.278 OA
ATOM      3  N   UNL     1       1.677  -3.753  -2.599  0.00  0.00    -0.287 N 
ATOM      4  H   UNL     1       1.332  -4.391  -1.955  0.00  0.00    +0.155 HD
ENDROOT
BRANCH   3   5
ATOM      5  C   UNL     1       2.340  -4.205  -3.746  0.00  0.00    +0.033 A 
ATOM      6  C   UNL     1       1.930  -5.376  -4.371  0.00  0.00    +0.025 A 
ATOM      7  C   UNL     1       2.587  -5.819  -5.502  0.00  0.00    +0.030 A 
ATOM      8  C   UNL     1       3.651  -5.099  -6.012  0.00  0.00    +0.105 A 
ATOM      9  C   UNL     1       4.062  -3.934  -5.392  0.00  0.00    +0.030 A 
ATOM     10  C   UNL     1       3.406  -3.482  -4.264  0.00  0.00    +0.025 A 
BRANCH   8  11
ATOM     11  S   UNL     1       4.486  -5.669  -7.456  0.00  0.00    +0.056 S 
ATOM     12  O   UNL     1       5.792  -5.110  -7.417  0.00  0.00    -0.153 OA
ATOM     13  O   UNL     1       4.259  -7.069  -7.531  0.00  0.00    -0.153 OA
BRANCH  11  14
ATOM     14  N   UNL     1       3.722  -4.995  -8.761  0.00  0.00    -0.204 NA
ATOM     15  H   UNL     1       4.221  -4.805  -9.571  0.00  0.00    +0.144 HD
ATOM     16  H   UNL     1       2.775  -4.790  -8.716  0.00  0.00    +0.144 HD
ENDBRANCH  11  14
ENDBRANCH   8  11
ENDBRANCH   3   5
BRANCH   1  17
ATOM     17  C   UNL     1       0.715  -1.947  -1.211  0.00  0.00    +0.019 C 
BRANCH  17  18
ATOM     18  N   UNL     1       0.692  -0.478  -1.205  0.00  0.00    +0.388 N 
ATOM     19  C   UNL     1      -0.028   0.005  -2.390  0.00  0.00    -0.095 C 
ATOM     20  H   UNL     1       1.638  -0.127  -1.219  0.00  0.00    -0.081 HD
BRANCH  18  22
ATOM     21  C   UNL     1      -0.013   1.526   0.014  0.00  0.00    -0.008 C 
ATOM     22  C   UNL     1       0.012  -0.004   0.008  0.00  0.00    -0.040 C 
BRANCH  22  23
ATOM     23  C   UNL     1       0.750  -0.500   1.225  0.00  0.00    -0.058 A 
ATOM     24  C   UNL     1       2.133  -0.507   1.238  0.00  0.00    +0.005 A 
ATOM     25  C   UNL     1       2.812  -0.961   2.353  0.00  0.00    +0.041 A 
ATOM     26  C   UNL     1       2.108  -1.409   3.457  0.00  0.00    +0.158 A 
ATOM     27  C   UNL     1       0.722  -1.402   3.444  0.00  0.00    +0.159 A 
ATOM     28  C   UNL     1       0.045  -0.942   2.328  0.00  0.00    +0.043 A 
ATOM     29  F   UNL     1       0.033  -1.839   4.521  0.00  0.00    -0.202 F 
ATOM     30  F   UNL     1       2.772  -1.853   4.547  0.00  0.00    -0.202 F 
ENDBRANCH  22  23
ENDBRANCH  18  22
ENDBRANCH  17  18
ENDBRANCH   1  17
TORSDOF 7
