REMARK  Name = ZINC32795858
REMARK  7 active torsions:
REMARK  status: ('A' for Active; 'I' for Inactive)
REMARK    1  A    between atoms: C_1  and  N_2
REMARK    2  A    between atoms: N_2  and  C_3
REMARK    3  A    between atoms: N_2  and  S_4
REMARK    4  A    between atoms: S_4  and  C_7
REMARK    5  A    between atoms: C_10  and  C_12
REMARK    6  A    between atoms: C_12  and  N_13
REMARK    7  A    between atoms: C_14  and  C_16
REMARK                            x       y       z     vdW  Elec       q    Type
REMARK                         _______ _______ _______ _____ _____    ______ ____
ROOT
ATOM      1  N   UNL     1       4.242  -0.541  -1.422  0.00  0.00    -0.307 N 
ATOM      2  C   UNL     1       5.498  -0.954  -1.682  0.00  0.00    +0.246 C 
ATOM      3  O   UNL     1       6.258  -1.205  -0.766  0.00  0.00    -0.270 OA
ATOM      4  H   UNL     1       3.555  -0.313  -2.251  0.00  0.00    +0.149 HD
ENDROOT
BRANCH   2   5
ATOM      5  C   UNL     1       5.952  -1.100  -3.078  0.00  0.00    +0.061 A 
ATOM      6  C   UNL     1       5.084  -0.818  -4.130  0.00  0.00    +0.015 A 
ATOM      7  C   UNL     1       5.505  -0.949  -5.441  0.00  0.00    +0.001 A 
ATOM      8  C   UNL     1       6.786  -1.370  -5.729  0.00  0.00    +0.010 A 
ATOM      9  C   UNL     1       7.674  -1.663  -4.692  0.00  0.00    +0.004 A 
ATOM     10  C   UNL     1       7.261  -1.530  -3.353  0.00  0.00    +0.059 A 
ATOM     11  N   UNL     1       8.324  -1.881  -2.560  0.00  0.00    -0.357 N 
ATOM     12  H   UNL     1       8.226  -1.852  -1.465  0.00  0.00    +0.166 HD
ATOM     13  C   UNL     1       9.393  -2.230  -3.337  0.00  0.00    +0.020 A 
ATOM     14  C   UNL     1       9.061  -2.117  -4.637  0.00  0.00    -0.019 A 
ATOM     15  C   UNL     1       9.986  -2.415  -5.788  0.00  0.00    +0.037 C 
ATOM     16  C   UNL     1      11.424  -2.455  -5.257  0.00  0.00    +0.005 C 
ATOM     17  C   UNL     1      11.483  -3.357  -4.021  0.00  0.00    +0.006 C 
ATOM     18  C   UNL     1      10.754  -2.678  -2.856  0.00  0.00    +0.053 C 
ENDBRANCH   2   5
BRANCH   1  19
ATOM     19  C   UNL     1       3.791  -0.395  -0.036  0.00  0.00    +0.147 C 
BRANCH  19  23
ATOM     20  C   UNL     1      -0.016   1.351   0.009  0.00  0.00    +0.143 A 
ATOM     21  C   UNL     1       0.002  -0.004   0.002  0.00  0.00    +0.037 A 
ATOM     22  C   UNL     1       1.220  -0.658  -0.013  0.00  0.00    +0.015 A 
ATOM     23  C   UNL     1       2.360   0.076  -0.020  0.00  0.00    +0.009 A 
ATOM     24  S   UNL     1       1.725   1.744  -0.005  0.00  0.00    -0.072 S 
BRANCH  20  25
ATOM     25  S   UNL     1      -1.400   2.442   0.022  0.00  0.00    +0.067 S 
ATOM     26  O   UNL     1      -0.951   3.675  -0.524  0.00  0.00    -0.152 OA
ATOM     27  O   UNL     1      -2.493   1.719  -0.527  0.00  0.00    -0.152 OA
BRANCH  25  29
ATOM     28  C   UNL     1      -1.158   3.863   2.311  0.00  0.00    +0.131 C 
ATOM     29  N   UNL     1      -1.776   2.737   1.608  0.00  0.00    -0.182 NA
ATOM     30  C   UNL     1      -2.729   1.871   2.308  0.00  0.00    +0.131 C 
ENDBRANCH  25  29
ENDBRANCH  20  25
ENDBRANCH  19  23
ENDBRANCH   1  19
TORSDOF 5
