REMARK  Name = ZINC06409979
REMARK  9 active torsions:
REMARK  status: ('A' for Active; 'I' for Inactive)
REMARK    1  A    between atoms: C_1  and  C_2
REMARK    2  A    between atoms: C_7  and  C_14
REMARK    3  A    between atoms: C_14  and  C_16
REMARK    4  A    between atoms: C_14  and  N_67
REMARK    5  A    between atoms: N_20  and  C_21
REMARK    6  A    between atoms: C_26  and  C_27
REMARK    7  A    between atoms: C_26  and  N_67
REMARK    8  A    between atoms: C_34  and  C_35
REMARK    9  A    between atoms: C_34  and  N_67
REMARK                            x       y       z     vdW  Elec       q    Type
REMARK                         _______ _______ _______ _____ _____    ______ ____
ROOT
ATOM      1  C   UNL     1       1.532   0.942   0.796  0.00  0.00    +0.040 C 
ENDROOT
BRANCH   1   8
ATOM      2  C   UNL     1       4.797  -4.437   5.698  0.00  0.00    +0.044 C 
ATOM      3  C   UNL     1       4.268  -3.551   4.600  0.00  0.00    -0.048 A 
ATOM      4  C   UNL     1       4.518  -3.878   3.274  0.00  0.00    +0.004 A 
ATOM      5  C   UNL     1       4.048  -3.089   2.263  0.00  0.00    +0.010 A 
ATOM      6  C   UNL     1       3.308  -1.941   2.566  0.00  0.00    -0.001 A 
ATOM      7  C   UNL     1       2.790  -1.073   1.507  0.00  0.00    +0.017 A 
ATOM      8  C   UNL     1       2.080   0.027   1.861  0.00  0.00    +0.011 A 
ATOM      9  C   UNL     1       1.857   0.321   3.223  0.00  0.00    +0.251 A 
ATOM     10  O   UNL     1       1.220   1.317   3.519  0.00  0.00    -0.268 OA
ATOM     11  N   UNL     1       2.324  -0.473   4.202  0.00  0.00    -0.322 N 
ATOM     12  H   UNL     1       2.150  -0.244   5.128  0.00  0.00    +0.169 HD
ATOM     13  C   UNL     1       3.053  -1.606   3.909  0.00  0.00    +0.049 A 
ATOM     14  C   UNL     1       3.542  -2.425   4.921  0.00  0.00    +0.029 A 
ENDBRANCH   1   8
BRANCH   1  15
ATOM     15  C   UNL     1       2.199   2.289   0.899  0.00  0.00    +0.143 A 
ATOM     16  N   UNL     1       1.786   3.314   1.604  0.00  0.00    -0.115 NA
ATOM     17  N   UNL     1       2.625   4.277   1.434  0.00  0.00    -0.023 NA
ATOM     18  N   UNL     1       3.558   3.896   0.634  0.00  0.00    -0.044 NA
ATOM     19  N   UNL     1       3.331   2.675   0.282  0.00  0.00    -0.227 N 
BRANCH  19  20
ATOM     20  C   UNL     1       4.151   1.863  -0.620  0.00  0.00    +0.111 C 
ATOM     21  C   UNL     1       5.526   1.584   0.022  0.00  0.00    +0.027 C 
ATOM     22  C   UNL     1       6.518   1.642  -1.166  0.00  0.00    +0.002 C 
ATOM     23  C   UNL     1       5.952   2.797  -2.029  0.00  0.00    +0.002 C 
ATOM     24  C   UNL     1       4.422   2.633  -1.924  0.00  0.00    +0.027 C 
ENDBRANCH  19  20
ENDBRANCH   1  15
BRANCH   1  25
ATOM     25  N   UNL     1       0.079   1.113   1.004  0.00  0.00    +0.397 N 
ATOM     26  H   UNL     1      -0.072   1.716   1.822  0.00  0.00    -0.079 HD
BRANCH  25  27
ATOM     27  C   UNL     1      -0.529   1.752  -0.182  0.00  0.00    -0.039 C 
BRANCH  27  28
ATOM     28  C   UNL     1      -0.139   3.208  -0.201  0.00  0.00    -0.046 A 
ATOM     29  C   UNL     1      -0.705   4.087   0.704  0.00  0.00    +0.003 A 
ATOM     30  C   UNL     1      -0.344   5.421   0.690  0.00  0.00    +0.000 A 
ATOM     31  C   UNL     1       0.575   5.879  -0.236  0.00  0.00    +0.001 A 
ATOM     32  C   UNL     1       1.137   5.003  -1.145  0.00  0.00    +0.020 A 
ATOM     33  C   UNL     1       0.780   3.666  -1.128  0.00  0.00    +0.042 A 
ATOM     34 CL   UNL     1       1.485   2.564  -2.269  0.00  0.00    -0.083 Cl
ENDBRANCH  27  28
ENDBRANCH  25  27
BRANCH  25  35
ATOM     35  C   UNL     1      -0.554  -0.199   1.251  0.00  0.00    -0.001 C 
BRANCH  35  36
ATOM     36  C   UNL     1      -1.916   0.028   1.855  0.00  0.00    +0.089 A 
ATOM     37  C   UNL     1      -3.082   0.043   1.184  0.00  0.00    +0.042 A 
ATOM     38  C   UNL     1      -4.099   0.288   2.135  0.00  0.00    +0.041 A 
ATOM     39  C   UNL     1      -3.494   0.408   3.330  0.00  0.00    +0.195 A 
ATOM     40  O   UNL     1      -2.173   0.244   3.156  0.00  0.00    -0.470 OA
ENDBRANCH  35  36
ENDBRANCH  25  35
ENDBRANCH   1  25
TORSDOF 8
