REMARK  Name = ZINC36020495
REMARK  9 active torsions:
REMARK  status: ('A' for Active; 'I' for Inactive)
REMARK    1  A    between atoms: C_1  and  C_2
REMARK    2  A    between atoms: C_7  and  N_8
REMARK    3  A    between atoms: C_9  and  C_11
REMARK    4  A    between atoms: C_11  and  C_12
REMARK    5  A    between atoms: C_12  and  C_13
REMARK    6  A    between atoms: N_15  and  N_16
REMARK    7  A    between atoms: C_17  and  C_18
REMARK    8  A    between atoms: C_20  and  N_25
REMARK    9  A    between atoms: C_23  and  O_24
REMARK                            x       y       z     vdW  Elec       q    Type
REMARK                         _______ _______ _______ _____ _____    ______ ____
ROOT
ATOM      1  C   UNL     1      -0.357  -0.200   7.342  0.00  0.00    +0.233 C 
ATOM      2  O   UNL     1      -0.374   1.013   7.346  0.00  0.00    -0.274 OA
ATOM      3  N   UNL     1      -0.439  -0.879   8.503  0.00  0.00    -0.207 N 
ATOM      4  H   UNL     1      -0.425  -1.849   8.499  0.00  0.00    +0.177 HD
ENDROOT
BRANCH   3   5
ATOM      5  N   UNL     1      -0.543  -0.185   9.715  0.00  0.00    -0.188 NA
ATOM      6  C   UNL     1      -0.621  -0.840  10.833  0.00  0.00    +0.142 C 
BRANCH   6   7
ATOM      7  C   UNL     1      -0.731  -0.109  12.109  0.00  0.00    +0.038 A 
ATOM      8  C   UNL     1      -0.810  -0.809  13.315  0.00  0.00    +0.045 A 
ATOM      9  C   UNL     1      -0.911  -0.120  14.504  0.00  0.00    +0.127 A 
ATOM     10  C   UNL     1      -0.936   1.265  14.509  0.00  0.00    +0.036 A 
ATOM     11  C   UNL     1      -0.859   1.969  13.322  0.00  0.00    +0.048 A 
ATOM     12  C   UNL     1      -0.750   1.292  12.119  0.00  0.00    +0.126 A 
BRANCH   9  13
ATOM     13  N   UNL     1      -0.995  -0.863  15.782  0.00  0.00    +0.056 N 
ATOM     14  O   UNL     1      -0.974  -2.071  15.781  0.00  0.00    -0.126 OA
ATOM     15  O   UNL     1      -1.084  -0.261  16.826  0.00  0.00    -0.126 OA
ENDBRANCH   9  13
BRANCH  12  16
ATOM     16  O   UNL     1      -0.669   1.984  10.953  0.00  0.00    -0.506 OA
ATOM     17  H   UNL     1      -1.526   2.172  10.546  0.00  0.00    +0.292 HD
ENDBRANCH  12  16
ENDBRANCH   6   7
ENDBRANCH   3   5
BRANCH   1  18
ATOM     18  C   UNL     1      -0.245  -0.947   6.038  0.00  0.00    +0.107 C 
BRANCH  18  19
ATOM     19  C   UNL     1      -0.169   0.053   4.882  0.00  0.00    +0.105 C 
BRANCH  19  21
ATOM     20  N   UNL     1       0.025  -0.014   2.417  0.00  0.00    -0.285 N 
ATOM     21  C   UNL     1      -0.057  -0.694   3.578  0.00  0.00    +0.218 C 
ATOM     22  O   UNL     1      -0.040  -1.907   3.573  0.00  0.00    -0.275 OA
ATOM     23  H   UNL     1       0.077   0.954   2.425  0.00  0.00    +0.155 HD
BRANCH  20  30
ATOM     24  C   UNL     1      -1.265   1.183   0.181  0.00  0.00    +0.046 C 
ATOM     25  C   UNL     1      -0.584  -0.158   0.084  0.00  0.00    -0.028 A 
ATOM     26  C   UNL     1      -0.569  -0.841  -1.116  0.00  0.00    +0.019 A 
ATOM     27  C   UNL     1       0.056  -2.071  -1.206  0.00  0.00    +0.014 A 
ATOM     28  C   UNL     1       0.668  -2.622  -0.094  0.00  0.00    +0.016 A 
ATOM     29  C   UNL     1       0.656  -1.944   1.109  0.00  0.00    +0.024 A 
ATOM     30  C   UNL     1       0.034  -0.706   1.201  0.00  0.00    +0.036 A 
ATOM     31  I   UNL     1       0.076  -3.103  -3.029  0.00  0.00    -0.044 I 
ENDBRANCH  20  30
ENDBRANCH  19  21
ENDBRANCH  18  19
ENDBRANCH   1  18
TORSDOF 8
