REMARK  Name = ZINC63372886
REMARK  10 active torsions:
REMARK  status: ('A' for Active; 'I' for Inactive)
REMARK    1  A    between atoms: C_1  and  C_2
REMARK    2  A    between atoms: C_2  and  C_3
REMARK    3  A    between atoms: C_2  and  C_4
REMARK    4  A    between atoms: C_4  and  C_5
REMARK    5  A    between atoms: C_5  and  C_7
REMARK    6  A    between atoms: C_5  and  N_19
REMARK    7  A    between atoms: N_9  and  C_10
REMARK    8  A    between atoms: C_10  and  C_11
REMARK    9  A    between atoms: C_11  and  C_12
REMARK   10  A    between atoms: C_22  and  C_38
REMARK                            x       y       z     vdW  Elec       q    Type
REMARK                         _______ _______ _______ _____ _____    ______ ____
ROOT
ATOM      1  N   UNL     1      -0.290   1.103   2.662  0.00  0.00    -0.212 N 
ATOM      2  C   UNL     1      -1.457   1.776   2.585  0.00  0.00    +0.249 C 
ATOM      3  O   UNL     1      -2.549   1.319   2.326  0.00  0.00    -0.273 OA
ATOM      4  C   UNL     1      -1.119   3.219   2.889  0.00  0.00    +0.136 C 
ATOM      5  C   UNL     1      -1.451   4.103   1.681  0.00  0.00    +0.139 C 
ATOM      6  C   UNL     1      -0.614   5.368   1.829  0.00  0.00    -0.034 C 
ATOM      7  C   UNL     1      -1.471   6.385   1.835  0.00  0.00    -0.001 A 
ATOM      8  C   UNL     1      -1.260   7.840   1.890  0.00  0.00    +0.010 A 
ATOM      9  C   UNL     1      -2.381   8.609   1.889  0.00  0.00    +0.001 A 
ATOM     10  C   UNL     1      -3.675   8.081   1.838  0.00  0.00    +0.002 A 
ATOM     11  C   UNL     1      -3.961   6.756   1.780  0.00  0.00    +0.026 A 
ATOM     12  C   UNL     1      -2.864   5.847   1.772  0.00  0.00    +0.043 A 
ATOM     13  N   UNL     1      -2.850   4.537   1.705  0.00  0.00    -0.375 N 
ATOM     14  C   UNL     1       0.885   5.354   2.000  0.00  0.00    +0.052 C 
ATOM     15  C   UNL     1       1.201   4.390   3.162  0.00  0.00    +0.115 C 
ATOM     16  N   UNL     1       0.356   3.202   3.016  0.00  0.00    -0.269 N 
ATOM     17  C   UNL     1       0.735   1.920   2.941  0.00  0.00    +0.313 C 
ATOM     18  O   UNL     1       1.878   1.541   3.103  0.00  0.00    -0.252 OA
ATOM     19  C   UNL     1      -1.800   3.708   4.170  0.00  0.00    +0.044 C 
ATOM     20  H   UNL     1      -3.625   3.953   1.678  0.00  0.00    +0.160 HD
ENDROOT
BRANCH   1  21
ATOM     21  C   UNL     1      -0.161  -0.344   2.472  0.00  0.00    +0.171 C 
BRANCH  21  22
ATOM     22  C   UNL     1       0.287  -0.982   3.762  0.00  0.00    +0.234 C 
ATOM     23  O   UNL     1       0.478  -0.296   4.743  0.00  0.00    -0.274 OA
ATOM     24  N   UNL     1       0.474  -2.316   3.824  0.00  0.00    -0.313 N 
ATOM     25  H   UNL     1       0.320  -2.864   3.039  0.00  0.00    +0.149 HD
BRANCH  24  26
ATOM     26  C   UNL     1       0.908  -2.936   5.078  0.00  0.00    +0.109 C 
BRANCH  26  27
ATOM     27  C   UNL     1       1.044  -4.447   4.879  0.00  0.00    +0.054 C 
BRANCH  27  28
ATOM     28  C   UNL     1       1.491  -5.086   6.169  0.00  0.00    -0.046 A 
ATOM     29  C   UNL     1       2.840  -5.228   6.438  0.00  0.00    +0.006 A 
ATOM     30  C   UNL     1       3.251  -5.813   7.620  0.00  0.00    +0.038 A 
ATOM     31  C   UNL     1       2.312  -6.256   8.536  0.00  0.00    +0.123 A 
ATOM     32  C   UNL     1       0.962  -6.113   8.266  0.00  0.00    +0.038 A 
ATOM     33  C   UNL     1       0.552  -5.523   7.085  0.00  0.00    +0.006 A 
ATOM     34  F   UNL     1       2.713  -6.829   9.692  0.00  0.00    -0.205 F 
ENDBRANCH  27  28
ENDBRANCH  26  27
ENDBRANCH  24  26
ENDBRANCH  21  22
BRANCH  21  35
ATOM     35  C   UNL     1       0.873  -0.624   1.379  0.00  0.00    +0.035 C 
BRANCH  35  37
ATOM     36  C   UNL     1       1.466  -0.214  -1.013  0.00  0.00    +0.007 C 
ATOM     37  C   UNL     1       0.378  -0.049   0.050  0.00  0.00    -0.015 C 
ATOM     38  C   UNL     1      -0.883  -0.794  -0.390  0.00  0.00    +0.007 C 
ENDBRANCH  35  37
ENDBRANCH  21  35
ENDBRANCH   1  21
TORSDOF 7
