REMARK  Name = ZINC16477388
REMARK  9 active torsions:
REMARK  status: ('A' for Active; 'I' for Inactive)
REMARK    1  A    between atoms: C_4  and  C_7
REMARK    2  A    between atoms: C_7  and  C_9
REMARK    3  A    between atoms: C_7  and  O_30
REMARK    4  A    between atoms: C_9  and  N_53
REMARK    5  A    between atoms: C_10  and  C_11
REMARK    6  A    between atoms: C_10  and  N_53
REMARK    7  A    between atoms: C_20  and  O_21
REMARK    8  A    between atoms: O_21  and  C_22
REMARK    9  A    between atoms: C_22  and  C_23
REMARK                            x       y       z     vdW  Elec       q    Type
REMARK                         _______ _______ _______ _____ _____    ______ ____
ROOT
ATOM      1  C   UNL     1      -0.112   5.253   0.031  0.00  0.00    -0.015 A 
ATOM      2  C   UNL     1      -0.095   3.849   0.024  0.00  0.00    -0.013 A 
ATOM      3  C   UNL     1      -1.288   3.105   0.031  0.00  0.00    +0.009 A 
ATOM      4  C   UNL     1      -1.235   1.746   0.018  0.00  0.00    +0.001 A 
ATOM      5  C   UNL     1      -0.013   1.076   0.008  0.00  0.00    +0.001 A 
ATOM      6  C   UNL     1       1.163   1.762   0.000  0.00  0.00    +0.008 A 
ATOM      7  C   UNL     1       1.148   3.167   0.008  0.00  0.00    -0.017 A 
ATOM      8  C   UNL     1       2.342   3.909   0.000  0.00  0.00    +0.012 A 
ATOM      9  C   UNL     1       2.292   5.268   0.007  0.00  0.00    +0.046 A 
ATOM     10  C   UNL     1       1.067   5.942   0.023  0.00  0.00    +0.123 A 
ENDROOT
BRANCH   1  11
ATOM     11  C   UNL     1      -1.423   5.995   0.047  0.00  0.00    -0.042 C 
BRANCH  11  12
ATOM     12  N   UNL     1      -1.831   6.226   1.446  0.00  0.00    +0.384 N 
ATOM     13  H   UNL     1      -1.936   5.322   1.921  0.00  0.00    -0.085 HD
ATOM     14  H   UNL     1      -1.110   6.782   1.921  0.00  0.00    -0.085 HD
BRANCH  12  15
ATOM     15  C   UNL     1      -3.114   6.952   1.492  0.00  0.00    -0.046 C 
BRANCH  15  16
ATOM     16  C   UNL     1      -3.510   7.177   2.952  0.00  0.00    +0.128 C 
BRANCH  16  20
ATOM     17  C   UNL     1      -7.225   9.280   3.111  0.00  0.00    +0.000 A 
ATOM     18  C   UNL     1      -6.033   9.976   3.190  0.00  0.00    +0.000 A 
ATOM     19  C   UNL     1      -4.831   9.295   3.138  0.00  0.00    +0.006 A 
ATOM     20  C   UNL     1      -4.821   7.919   3.008  0.00  0.00    -0.021 A 
ATOM     21  C   UNL     1      -6.013   7.224   2.925  0.00  0.00    +0.006 A 
ATOM     22  C   UNL     1      -7.215   7.904   2.981  0.00  0.00    +0.000 A 
ENDBRANCH  16  20
BRANCH  16  23
ATOM     23  O   UNL     1      -3.649   5.915   3.608  0.00  0.00    -0.389 OA
ATOM     24  H   UNL     1      -4.319   5.340   3.216  0.00  0.00    +0.210 HD
ENDBRANCH  16  23
ENDBRANCH  15  16
ENDBRANCH  12  15
ENDBRANCH  11  12
ENDBRANCH   1  11
BRANCH  10  25
ATOM     25  O   UNL     1       1.050   7.301   0.029  0.00  0.00    -0.487 OA
BRANCH  25  26
ATOM     26  C   UNL     1       2.315   7.966   0.020  0.00  0.00    +0.267 C 
BRANCH  26  27
ATOM     27  C   UNL     1       2.098   9.457   0.029  0.00  0.00    +0.025 A 
ATOM     28  C   UNL     1       0.814   9.969   0.038  0.00  0.00    +0.010 A 
ATOM     29  C   UNL     1       0.616  11.337   0.052  0.00  0.00    +0.001 A 
ATOM     30  C   UNL     1       1.700  12.195   0.046  0.00  0.00    +0.003 A 
ATOM     31  C   UNL     1       2.984  11.685   0.031  0.00  0.00    +0.039 A 
ATOM     32  C   UNL     1       3.185  10.315   0.023  0.00  0.00    +0.130 A 
ATOM     33  F   UNL     1       4.440   9.815   0.008  0.00  0.00    -0.205 F 
ENDBRANCH  26  27
ENDBRANCH  25  26
ENDBRANCH  10  25
TORSDOF 9
