REMARK  Name = ZINC23128816
REMARK  9 active torsions:
REMARK  status: ('A' for Active; 'I' for Inactive)
REMARK    1  A    between atoms: C_1  and  C_2
REMARK    2  A    between atoms: C_8  and  C_10
REMARK    3  A    between atoms: N_12  and  C_33
REMARK    4  A    between atoms: C_14  and  C_17
REMARK    5  A    between atoms: N_19  and  C_20
REMARK    6  A    between atoms: C_20  and  C_21
REMARK    7  A    between atoms: C_21  and  N_27
REMARK    8  A    between atoms: C_33  and  C_34
REMARK    9  A    between atoms: C_33  and  C_35
REMARK                            x       y       z     vdW  Elec       q    Type
REMARK                         _______ _______ _______ _____ _____    ______ ____
ROOT
ATOM      1  C   UNL     1      -0.046   0.096   4.129  0.00  0.00    +0.100 A 
ATOM      2  C   UNL     1      -0.654   0.672   3.035  0.00  0.00    +0.102 A 
ATOM      3  N   UNL     1       0.042   1.408   2.154  0.00  0.00    -0.349 N 
ATOM      4  C   UNL     1       1.362   1.635   2.260  0.00  0.00    +0.102 A 
ATOM      5  C   UNL     1       2.096   1.125   3.309  0.00  0.00    +0.100 A 
ATOM      6  C   UNL     1       1.400   0.307   4.316  0.00  0.00    +0.206 A 
ATOM      7  O   UNL     1       1.995  -0.176   5.264  0.00  0.00    -0.286 OA
ENDROOT
BRANCH   1  15
ATOM      8  C   UNL     1      -3.693   2.118   8.760  0.00  0.00    +0.007 C 
ATOM      9  C   UNL     1      -3.495   1.250   7.516  0.00  0.00    -0.011 C 
ATOM     10  C   UNL     1      -2.835  -0.072   7.917  0.00  0.00    +0.022 C 
ATOM     11  C   UNL     1      -2.670  -0.953   6.675  0.00  0.00    +0.108 C 
ATOM     12  N   UNL     1      -1.933  -0.197   5.653  0.00  0.00    -0.297 N 
ATOM     13  C   UNL     1      -2.428   1.130   5.263  0.00  0.00    +0.108 C 
ATOM     14  C   UNL     1      -2.599   1.986   6.517  0.00  0.00    +0.022 C 
ATOM     15  C   UNL     1      -0.822  -0.708   5.088  0.00  0.00    +0.252 C 
ATOM     16  O   UNL     1      -0.459  -1.835   5.370  0.00  0.00    -0.270 OA
ENDBRANCH   1  15
BRANCH   5  17
ATOM     17  C   UNL     1       3.542   1.387   3.417  0.00  0.00    +0.249 C 
ATOM     18  O   UNL     1       4.176   0.924   4.346  0.00  0.00    -0.270 OA
ATOM     19  N   UNL     1       4.162   2.138   2.485  0.00  0.00    -0.309 N 
ATOM     20  H   UNL     1       3.588   2.556   1.645  0.00  0.00    +0.149 HD
BRANCH  19  21
ATOM     21  C   UNL     1       5.599   2.398   2.592  0.00  0.00    +0.126 C 
BRANCH  21  22
ATOM     22  C   UNL     1       6.012   3.425   1.536  0.00  0.00    +0.038 C 
ATOM     23  C   UNL     1       5.525   2.966   0.160  0.00  0.00    +0.024 C 
ATOM     24  C   UNL     1       6.150   1.610  -0.175  0.00  0.00    +0.002 C 
ATOM     25  C   UNL     1       7.674   1.741  -0.191  0.00  0.00    +0.000 C 
ATOM     26  C   UNL     1       8.161   2.201   1.184  0.00  0.00    +0.002 C 
ATOM     27  C   UNL     1       7.536   3.556   1.520  0.00  0.00    +0.024 C 
BRANCH  22  28
ATOM     28  N   UNL     1       5.412   4.727   1.858  0.00  0.00    -0.291 NA
ATOM     29  C   UNL     1       5.816   5.176   3.198  0.00  0.00    +0.113 C 
ATOM     30  C   UNL     1       5.219   6.560   3.469  0.00  0.00    +0.175 C 
ATOM     31  O   UNL     1       3.797   6.496   3.325  0.00  0.00    -0.377 OA
ATOM     32  C   UNL     1       3.368   6.062   2.032  0.00  0.00    +0.175 C 
ATOM     33  C   UNL     1       3.947   4.674   1.747  0.00  0.00    +0.113 C 
ENDBRANCH  22  28
ENDBRANCH  21  22
ENDBRANCH  19  21
ENDBRANCH   5  17
BRANCH   3  34
ATOM     34  C   UNL     1      -0.673   1.989   1.014  0.00  0.00    +0.081 C 
ATOM     35  C   UNL     1      -0.071   1.459  -0.289  0.00  0.00    +0.030 C 
ATOM     36  C   UNL     1      -0.543   3.513   1.054  0.00  0.00    +0.030 C 
ENDBRANCH   3  34
TORSDOF 6
