REMARK  Name = ZINC19923168
REMARK  6 active torsions:
REMARK  status: ('A' for Active; 'I' for Inactive)
REMARK    1  A    between atoms: C_1  and  C_2
REMARK    2  A    between atoms: C_2  and  C_4
REMARK    3  A    between atoms: C_2  and  N_12
REMARK    4  A    between atoms: C_6  and  O_11
REMARK    5  A    between atoms: C_9  and  O_10
REMARK    6  A    between atoms: N_12  and  C_13
REMARK                            x       y       z     vdW  Elec       q    Type
REMARK                         _______ _______ _______ _____ _____    ______ ____
ROOT
ATOM      1  C   UNL     1      -1.548  -0.769  -1.492  0.00  0.00    +0.033 C 
ATOM      2  C   UNL     1      -1.256  -0.754   0.010  0.00  0.00    +0.101 C 
ENDROOT
BRANCH   2   3
ATOM      3  C   UNL     1      -1.000  -2.160   0.486  0.00  0.00    +0.017 A 
ATOM      4  C   UNL     1       0.291  -2.649   0.534  0.00  0.00    +0.054 A 
ATOM      5  C   UNL     1       0.527  -3.943   0.973  0.00  0.00    +0.117 A 
ATOM      6  C   UNL     1      -0.534  -4.747   1.363  0.00  0.00    +0.049 A 
ATOM      7  C   UNL     1      -1.825  -4.259   1.315  0.00  0.00    +0.049 A 
ATOM      8  C   UNL     1      -2.060  -2.963   0.881  0.00  0.00    +0.122 A 
BRANCH   8   9
ATOM      9  O   UNL     1      -3.331  -2.480   0.838  0.00  0.00    -0.506 OA
ATOM     10  H   UNL     1      -4.172  -3.117   1.151  0.00  0.00    +0.292 HD
ENDBRANCH   8   9
BRANCH   5  11
ATOM     11  O   UNL     1       1.798  -4.424   1.021  0.00  0.00    -0.507 OA
ATOM     12  H   UNL     1       1.985  -5.450   1.369  0.00  0.00    +0.292 HD
ENDBRANCH   5  11
ENDBRANCH   2   3
BRANCH   2  13
ATOM     13  N   UNL     1      -0.075   0.072   0.270  0.00  0.00    -0.337 N 
ATOM     14  H   UNL     1       0.918  -0.395   0.338  0.00  0.00    +0.147 HD
BRANCH  13  15
ATOM     15  C   UNL     1      -0.210   1.454   0.431  0.00  0.00    +0.028 A 
ATOM     16  C   UNL     1      -1.464   2.046   0.339  0.00  0.00    +0.024 A 
ATOM     17  C   UNL     1      -1.595   3.410   0.505  0.00  0.00    +0.017 A 
ATOM     18  C   UNL     1      -0.478   4.190   0.751  0.00  0.00    +0.018 A 
ATOM     19  C   UNL     1       0.772   3.604   0.836  0.00  0.00    +0.017 A 
ATOM     20  C   UNL     1       0.909   2.239   0.677  0.00  0.00    +0.024 A 
ATOM     21 BR   UNL     1      -0.661   6.059   0.970  0.00  0.00    -0.050 Br
ENDBRANCH  13  15
ENDBRANCH   2  13
TORSDOF 5
