REMARK  Name = ZINC02695391
REMARK  6 active torsions:
REMARK  status: ('A' for Active; 'I' for Inactive)
REMARK    1  A    between atoms: C_1  and  C_2
REMARK    2  A    between atoms: C_2  and  C_3
REMARK    3  A    between atoms: C_2  and  O_4
REMARK    4  A    between atoms: O_4  and  C_5
REMARK    5  A    between atoms: C_8  and  C_11
REMARK    6  A    between atoms: C_19  and  C_20
REMARK                            x       y       z     vdW  Elec       q    Type
REMARK                         _______ _______ _______ _____ _____    ______ ____
ROOT
ATOM      1  C   UNL     1       7.411   4.678   0.842  0.00  0.00    +0.183 A 
ATOM      2  N   UNL     1       6.255   5.317   1.074  0.00  0.00    -0.200 NA
ATOM      3  C   UNL     1       5.307   4.442   1.246  0.00  0.00    +0.200 A 
ATOM      4  N   UNL     1       5.819   3.178   1.130  0.00  0.00    -0.169 N 
ATOM      5  N   UNL     1       7.200   3.385   0.866  0.00  0.00    -0.141 NA
ATOM      6  C   UNL     1       4.988   2.138   1.276  0.00  0.00    +0.288 A 
ATOM      7  O   UNL     1       5.404   0.998   1.181  0.00  0.00    -0.265 OA
ATOM      8  C   UNL     1       3.615   2.383   1.545  0.00  0.00    +0.083 A 
ATOM      9  C   UNL     1       2.596   1.494   1.729  0.00  0.00    +0.035 C 
ATOM     10  S   UNL     1       3.580   4.170   1.569  0.00  0.00    -0.044 S 
ENDROOT
BRANCH   1  14
ATOM     11  C   UNL     1      11.165   6.551   0.143  0.00  0.00    +0.121 A 
ATOM     12  C   UNL     1      10.037   7.326   0.372  0.00  0.00    +0.046 A 
ATOM     13  C   UNL     1       8.818   6.722   0.598  0.00  0.00    +0.015 A 
ATOM     14  C   UNL     1       8.720   5.332   0.598  0.00  0.00    +0.021 A 
ATOM     15  C   UNL     1       9.857   4.556   0.374  0.00  0.00    +0.015 A 
ATOM     16  C   UNL     1      11.072   5.166   0.143  0.00  0.00    +0.046 A 
BRANCH  11  17
ATOM     17  O   UNL     1      12.365   7.149  -0.080  0.00  0.00    -0.489 OA
BRANCH  17  19
ATOM     18  C   UNL     1      12.454   9.186   1.217  0.00  0.00    +0.051 C 
ATOM     19  C   UNL     1      12.370   8.575  -0.182  0.00  0.00    +0.167 C 
ATOM     20  C   UNL     1      13.577   9.022  -1.008  0.00  0.00    +0.051 C 
ENDBRANCH  17  19
ENDBRANCH  11  17
ENDBRANCH   1  14
BRANCH   9  21
ATOM     21  C   UNL     1       1.288   1.962   1.988  0.00  0.00    +0.013 A 
ATOM     22  C   UNL     1       0.122   1.234   2.204  0.00  0.00    +0.015 A 
ATOM     23  C   UNL     1      -1.026   1.950   2.429  0.00  0.00    +0.008 A 
ATOM     24  C   UNL     1      -0.971   3.308   2.442  0.00  0.00    +0.046 A 
ATOM     25  S   UNL     1       0.701   3.641   2.124  0.00  0.00    -0.097 S 
ENDBRANCH   9  21
TORSDOF 4
