REMARK  Name = ZINC08790265
REMARK  8 active torsions:
REMARK  status: ('A' for Active; 'I' for Inactive)
REMARK    1  A    between atoms: C_1  and  C_2
REMARK    2  A    between atoms: C_4  and  C_39
REMARK    3  A    between atoms: C_13  and  C_15
REMARK    4  A    between atoms: C_15  and  C_16
REMARK    5  A    between atoms: C_19  and  O_22
REMARK    6  A    between atoms: N_25  and  C_28
REMARK    7  A    between atoms: C_28  and  C_29
REMARK    8  A    between atoms: C_29  and  C_30
REMARK                            x       y       z     vdW  Elec       q    Type
REMARK                         _______ _______ _______ _____ _____    ______ ____
ROOT
ATOM      1  C   UNL     1      -3.715   2.128   0.056  0.00  0.00    +0.044 C 
ATOM      2  C   UNL     1      -2.408   1.379   0.037  0.00  0.00    -0.050 A 
ATOM      3  C   UNL     1      -2.401  -0.004   0.030  0.00  0.00    +0.008 A 
ATOM      4  C   UNL     1      -1.207  -0.695   0.013  0.00  0.00    -0.029 A 
ATOM      5  C   UNL     1       0.002  -0.004   0.002  0.00  0.00    +0.039 A 
ATOM      6  C   UNL     1      -0.017   1.387   0.010  0.00  0.00    -0.027 A 
ATOM      7  C   UNL     1      -1.211   2.073   0.030  0.00  0.00    +0.008 A 
ATOM      8  C   UNL     1       1.423   1.818  -0.002  0.00  0.00    +0.050 C 
ATOM      9  C   UNL     1       1.763   2.670   1.227  0.00  0.00    +0.088 C 
ATOM     10  C   UNL     1       2.786   3.717   0.704  0.00  0.00    +0.073 C 
ATOM     11  C   UNL     1       2.970   3.380  -0.790  0.00  0.00    -0.053 C 
ATOM     12  C   UNL     1       2.042   5.027   0.833  0.00  0.00    +0.224 C 
ATOM     13  O   UNL     1       2.479   6.114   0.523  0.00  0.00    -0.275 OA
ATOM     14  N   UNL     1       0.827   4.799   1.344  0.00  0.00    -0.241 N 
ATOM     15  C   UNL     1       0.566   3.513   1.605  0.00  0.00    +0.225 C 
ATOM     16  O   UNL     1      -0.469   3.090   2.073  0.00  0.00    -0.275 OA
ATOM     17  C   UNL     1       2.213   0.538  -0.019  0.00  0.00    +0.211 C 
ATOM     18  O   UNL     1       3.422   0.434  -0.032  0.00  0.00    -0.277 OA
ATOM     19  N   UNL     1       1.319  -0.469  -0.015  0.00  0.00    -0.286 N 
ATOM     20  C   UNL     1      -1.212  -2.202   0.005  0.00  0.00    +0.045 C 
ATOM     21  H   UNL     1       1.561  -1.408  -0.024  0.00  0.00    +0.155 HD
ATOM     22  N   UNL     1       1.748   2.654  -1.143  0.00  0.00    +0.394 N 
ATOM     23  H   UNL     1       0.984   3.315  -1.328  0.00  0.00    -0.083 HD
ATOM     24  H   UNL     1       1.907   2.074  -1.975  0.00  0.00    -0.083 HD
ENDROOT
BRANCH  11  25
ATOM     25  C   UNL     1       3.117   4.663  -1.611  0.00  0.00    +0.020 C 
BRANCH  25  26
ATOM     26  C   UNL     1       3.418   4.310  -3.045  0.00  0.00    -0.049 A 
ATOM     27  C   UNL     1       4.729   4.173  -3.462  0.00  0.00    +0.007 A 
ATOM     28  C   UNL     1       5.008   3.844  -4.775  0.00  0.00    +0.045 A 
ATOM     29  C   UNL     1       3.970   3.662  -5.678  0.00  0.00    +0.117 A 
ATOM     30  C   UNL     1       2.655   3.805  -5.258  0.00  0.00    +0.045 A 
ATOM     31  C   UNL     1       2.382   4.128  -3.943  0.00  0.00    +0.007 A 
BRANCH  29  32
ATOM     32  O   UNL     1       4.241   3.345  -6.971  0.00  0.00    -0.507 OA
ATOM     33  H   UNL     1       4.348   4.112  -7.550  0.00  0.00    +0.292 HD
ENDBRANCH  29  32
ENDBRANCH  25  26
ENDBRANCH  11  25
BRANCH  14  34
ATOM     34  C   UNL     1      -0.140   5.871   1.596  0.00  0.00    +0.121 C 
BRANCH  34  35
ATOM     35  C   UNL     1      -1.006   6.080   0.352  0.00  0.00    +0.054 C 
BRANCH  35  36
ATOM     36  C   UNL     1      -2.000   7.183   0.612  0.00  0.00    -0.046 A 
ATOM     37  C   UNL     1      -3.243   6.883   1.136  0.00  0.00    +0.004 A 
ATOM     38  C   UNL     1      -4.154   7.894   1.378  0.00  0.00    +0.000 A 
ATOM     39  C   UNL     1      -3.824   9.205   1.087  0.00  0.00    +0.000 A 
ATOM     40  C   UNL     1      -2.583   9.504   0.558  0.00  0.00    +0.000 A 
ATOM     41  C   UNL     1      -1.671   8.493   0.320  0.00  0.00    +0.004 A 
ENDBRANCH  35  36
ENDBRANCH  34  35
ENDBRANCH  14  34
TORSDOF 6
