REMARK  Name = ZINC59789506
REMARK  12 active torsions:
REMARK  status: ('A' for Active; 'I' for Inactive)
REMARK    1  A    between atoms: C_1  and  C_2
REMARK    2  A    between atoms: C_2  and  C_32
REMARK    3  A    between atoms: C_4  and  N_10
REMARK    4  A    between atoms: C_6  and  C_8
REMARK    5  A    between atoms: C_6  and  C_9
REMARK    6  A    between atoms: C_11  and  C_13
REMARK    7  A    between atoms: C_13  and  S_14
REMARK    8  A    between atoms: S_14  and  C_15
REMARK    9  A    between atoms: C_18  and  C_23
REMARK   10  A    between atoms: N_19  and  C_20
REMARK   11  A    between atoms: C_20  and  C_21
REMARK   12  A    between atoms: C_27  and  N_29
REMARK                            x       y       z     vdW  Elec       q    Type
REMARK                         _______ _______ _______ _____ _____    ______ ____
ROOT
ATOM      1  S   UNL     1       5.683  -0.100  -5.027  0.00  0.00    -0.077 S 
ENDROOT
BRANCH   1   2
ATOM      2  C   UNL     1       6.332  -0.827  -6.495  0.00  0.00    +0.193 A 
ATOM      3  N   UNL     1       6.038  -2.017  -6.972  0.00  0.00    -0.122 NA
ATOM      4  N   UNL     1       6.690  -2.230  -8.059  0.00  0.00    -0.128 NA
ATOM      5  C   UNL     1       7.439  -1.190  -8.343  0.00  0.00    +0.165 A 
ATOM      6  N   UNL     1       7.229  -0.258  -7.353  0.00  0.00    -0.298 N 
BRANCH   5   7
ATOM      7  C   UNL     1       8.336  -1.046  -9.510  0.00  0.00    +0.021 A 
ATOM      8  C   UNL     1       9.524  -0.321  -9.396  0.00  0.00    +0.012 A 
ATOM      9  C   UNL     1      10.356  -0.191 -10.488  0.00  0.00    +0.003 A 
ATOM     10  C   UNL     1      10.015  -0.775 -11.695  0.00  0.00    +0.033 A 
ATOM     11  C   UNL     1       8.839  -1.495 -11.815  0.00  0.00    +0.127 A 
ATOM     12  C   UNL     1       8.001  -1.639 -10.728  0.00  0.00    +0.044 A 
BRANCH  11  13
ATOM     13  N   UNL     1       8.483  -2.117 -13.110  0.00  0.00    +0.056 N 
ATOM     14  O   UNL     1       9.218  -1.996 -14.062  0.00  0.00    -0.126 OA
ATOM     15  O   UNL     1       7.456  -2.746 -13.216  0.00  0.00    -0.126 OA
ENDBRANCH  11  13
ENDBRANCH   5   7
BRANCH   6  16
ATOM     16  C   UNL     1       7.843   1.067  -7.241  0.00  0.00    +0.152 C 
BRANCH  16  17
ATOM     17  C   UNL     1       9.036   0.993  -6.324  0.00  0.00    -0.013 C 
ATOM     18  C   UNL     1      10.200   1.440  -6.725  0.00  0.00    +0.005 C 
ENDBRANCH  16  17
ENDBRANCH   6  16
ENDBRANCH   1   2
BRANCH   1  19
ATOM     19  C   UNL     1       4.563  -1.366  -4.369  0.00  0.00    +0.173 C 
BRANCH  19  21
ATOM     20  N   UNL     1       3.058  -1.642  -2.425  0.00  0.00    -0.312 N 
ATOM     21  C   UNL     1       3.932  -0.865  -3.095  0.00  0.00    +0.224 C 
ATOM     22  O   UNL     1       4.211   0.237  -2.673  0.00  0.00    -0.275 OA
ATOM     23  H   UNL     1       2.835  -2.523  -2.763  0.00  0.00    +0.149 HD
BRANCH  20  27
ATOM     24  C   UNL     1      -0.111   0.006   0.151  0.00  0.00    -0.010 C 
ATOM     25  C   UNL     1       0.463  -1.403   0.333  0.00  0.00    -0.072 C 
ATOM     26  C   UNL     1       1.110  -1.868  -0.968  0.00  0.00    +0.009 C 
ATOM     27  C   UNL     1       2.444  -1.154  -1.184  0.00  0.00    +0.070 C 
ATOM     28  C   UNL     1       3.359  -1.484  -0.005  0.00  0.00    +0.009 C 
ATOM     29  C   UNL     1       2.729  -1.017   1.303  0.00  0.00    -0.072 C 
ATOM     30  N   UNL     1       1.359  -1.465   1.475  0.00  0.00    +0.386 N 
ATOM     31  C   UNL     1       2.834   0.508   1.413  0.00  0.00    -0.010 C 
ATOM     32  C   UNL     1       3.567  -1.613   2.458  0.00  0.00    -0.010 C 
ATOM     33  C   UNL     1      -0.729  -2.345   0.619  0.00  0.00    -0.010 C 
ATOM     34  H   UNL     1       0.939  -0.930   2.241  0.00  0.00    -0.084 HD
ATOM     35  H   UNL     1       1.379  -2.432   1.814  0.00  0.00    -0.084 HD
ENDBRANCH  20  27
ENDBRANCH  19  21
ENDBRANCH   1  19
TORSDOF 8
