REMARK  Name = ZINC12875811
REMARK  11 active torsions:
REMARK  status: ('A' for Active; 'I' for Inactive)
REMARK    1  A    between atoms: C_1  and  C_2
REMARK    2  A    between atoms: C_2  and  C_3
REMARK    3  A    between atoms: C_3  and  C_4
REMARK    4  A    between atoms: C_22  and  C_41
REMARK    5  A    between atoms: C_25  and  O_40
REMARK    6  A    between atoms: C_28  and  C_39
REMARK    7  A    between atoms: C_29  and  C_31
REMARK    8  A    between atoms: C_31  and  C_33
REMARK    9  A    between atoms: C_33  and  O_34
REMARK   10  A    between atoms: O_34  and  S_35
REMARK   11  A    between atoms: S_35  and  C_38
REMARK                            x       y       z     vdW  Elec       q    Type
REMARK                         _______ _______ _______ _____ _____    ______ ____
ROOT
ATOM      1  C   UNL     1       0.001  -2.876  -2.568  0.00  0.00    +0.252 C 
ATOM      2  O   UNL     1       1.177  -2.337  -1.930  0.00  0.00    -0.345 OA
ATOM      3  C   UNL     1       0.906  -0.929  -1.775  0.00  0.00    +0.161 C 
ATOM      4  C   UNL     1       1.335  -0.515  -0.341  0.00  0.00    +0.039 C 
ATOM      5  C   UNL     1       0.073  -0.778   0.488  0.00  0.00    +0.004 C 
ATOM      6  C   UNL     1      -0.033  -0.005   1.790  0.00  0.00    -0.000 C 
ATOM      7  C   UNL     1       1.108  -0.407   2.727  0.00  0.00    +0.008 C 
ATOM      8  C   UNL     1       1.006   0.386   4.034  0.00  0.00    +0.032 C 
ATOM      9  C   UNL     1      -0.384   0.199   4.612  0.00  0.00    -0.056 C 
ATOM     10  C   UNL     1      -0.507  -0.190   5.874  0.00  0.00    +0.051 C 
ATOM     11  C   UNL     1      -1.836  -0.416   6.461  0.00  0.00    +0.179 C 
ATOM     12  O   UNL     1      -1.954  -0.740   7.628  0.00  0.00    -0.288 OA
ATOM     13  C   UNL     1      -3.021  -0.241   5.605  0.00  0.00    +0.047 C 
ATOM     14  C   UNL     1      -2.867   0.138   4.360  0.00  0.00    -0.012 C 
ATOM     15  C   UNL     1      -1.560   0.450   3.715  0.00  0.00    +0.013 C 
ATOM     16  C   UNL     1      -1.391  -0.351   2.421  0.00  0.00    +0.035 C 
ATOM     17  C   UNL     1      -2.548  -0.010   1.486  0.00  0.00    +0.120 C 
ATOM     18  C   UNL     1      -2.367  -0.712   0.113  0.00  0.00    +0.042 C 
ATOM     19  C   UNL     1      -1.040  -0.247  -0.454  0.00  0.00    +0.012 C 
ATOM     20  C   UNL     1      -0.646  -0.808  -1.815  0.00  0.00    +0.164 C 
ATOM     21  O   UNL     1      -1.102  -2.183  -1.944  0.00  0.00    -0.334 OA
ATOM     22  C   UNL     1      -1.000   1.282  -0.493  0.00  0.00    +0.015 C 
ATOM     23  C   UNL     1      -1.560   1.936   3.349  0.00  0.00    +0.020 C 
ENDROOT
BRANCH  20  24
ATOM     24  C   UNL     1      -1.113   0.076  -2.942  0.00  0.00    +0.196 C 
ATOM     25  O   UNL     1      -1.137   1.275  -2.799  0.00  0.00    -0.292 OA
BRANCH  24  26
ATOM     26  C   UNL     1      -1.551  -0.535  -4.248  0.00  0.00    +0.270 C 
BRANCH  26  27
ATOM     27  O   UNL     1      -1.946   0.500  -5.150  0.00  0.00    -0.231 OA
BRANCH  27  28
ATOM     28  S   UNL     1      -2.410  -0.006  -6.508  0.00  0.00    +0.080 S 
ATOM     29  O   UNL     1      -2.499   1.158  -7.318  0.00  0.00    -0.147 OA
ATOM     30  O   UNL     1      -1.502  -1.048  -6.836  0.00  0.00    -0.147 OA
ATOM     31  C   UNL     1      -4.064  -0.689  -6.212  0.00  0.00    +0.228 C 
ENDBRANCH  27  28
ENDBRANCH  26  27
ENDBRANCH  24  26
ENDBRANCH  20  24
BRANCH  17  32
ATOM     32  O   UNL     1      -2.608   1.407   1.315  0.00  0.00    -0.391 OA
ATOM     33  H   UNL     1      -3.321   1.703   0.732  0.00  0.00    +0.210 HD
ENDBRANCH  17  32
BRANCH   1  34
ATOM     34  C   UNL     1      -0.101  -4.381  -2.317  0.00  0.00    +0.061 C 
BRANCH  34  36
ATOM     35  C   UNL     1       0.951  -6.602  -2.770  0.00  0.00    +0.004 C 
ATOM     36  C   UNL     1       1.053  -5.096  -3.022  0.00  0.00    +0.002 C 
ENDBRANCH  34  36
ENDBRANCH   1  34
TORSDOF 7
