REMARK  Name = ZINC64720772
REMARK  7 active torsions:
REMARK  status: ('A' for Active; 'I' for Inactive)
REMARK    1  A    between atoms: C_1  and  C_2
REMARK    2  A    between atoms: C_2  and  C_3
REMARK    3  A    between atoms: C_2  and  S_4
REMARK    4  A    between atoms: S_4  and  C_5
REMARK    5  A    between atoms: C_10  and  C_11
REMARK    6  A    between atoms: N_13  and  N_14
REMARK    7  A    between atoms: C_15  and  C_17
REMARK                            x       y       z     vdW  Elec       q    Type
REMARK                         _______ _______ _______ _____ _____    ______ ____
ROOT
ATOM      1  C   UNL     1       2.771  -0.952  -3.774  0.00  0.00    +0.261 C 
ATOM      2  O   UNL     1       1.596  -1.253  -3.868  0.00  0.00    -0.269 OA
ATOM      3  N   UNL     1       3.602  -1.152  -4.816  0.00  0.00    -0.230 N 
ATOM      4  H   UNL     1       4.539  -0.912  -4.741  0.00  0.00    +0.173 HD
ENDROOT
BRANCH   1  10
ATOM      5  C   UNL     1       2.422  -0.159  -1.434  0.00  0.00    +0.020 A 
ATOM      6  C   UNL     1       2.921   0.387  -0.256  0.00  0.00    +0.015 A 
ATOM      7  C   UNL     1       4.255   0.724  -0.162  0.00  0.00    +0.001 A 
ATOM      8  C   UNL     1       5.108   0.523  -1.237  0.00  0.00    +0.001 A 
ATOM      9  C   UNL     1       4.632  -0.017  -2.412  0.00  0.00    +0.014 A 
ATOM     10  C   UNL     1       3.285  -0.369  -2.522  0.00  0.00    +0.052 A 
BRANCH   5  11
ATOM     11  S   UNL     1       0.718  -0.591  -1.558  0.00  0.00    -0.122 S 
BRANCH  11  13
ATOM     12  C   UNL     1      -0.030   1.544  -0.020  0.00  0.00    +0.019 C 
ATOM     13  C   UNL     1      -0.002   0.015  -0.007  0.00  0.00    +0.045 C 
ATOM     14  C   UNL     1      -1.428  -0.521   0.136  0.00  0.00    +0.019 C 
ENDBRANCH  11  13
ENDBRANCH   5  11
ENDBRANCH   1  10
BRANCH   3  15
ATOM     15  N   UNL     1       3.114  -1.706  -6.006  0.00  0.00    -0.229 N 
ATOM     16  C   UNL     1       3.946  -1.906  -7.047  0.00  0.00    +0.278 C 
ATOM     17  O   UNL     1       5.119  -1.605  -6.954  0.00  0.00    -0.267 OA
ATOM     18  H   UNL     1       2.177  -1.946  -6.080  0.00  0.00    +0.173 HD
BRANCH  16  19
ATOM     19  C   UNL     1       3.429  -2.493  -8.307  0.00  0.00    +0.127 A 
ATOM     20  C   UNL     1       4.310  -2.699  -9.379  0.00  0.00    +0.034 A 
ATOM     21  C   UNL     1       3.846  -3.239 -10.544  0.00  0.00    +0.012 A 
ATOM     22  C   UNL     1       2.481  -3.572 -10.627  0.00  0.00    +0.000 A 
ATOM     23  C   UNL     1       1.937  -4.131 -11.795  0.00  0.00    +0.010 A 
ATOM     24  C   UNL     1       0.613  -4.442 -11.839  0.00  0.00    +0.001 A 
ATOM     25  C   UNL     1      -0.214  -4.213 -10.739  0.00  0.00    +0.002 A 
ATOM     26  C   UNL     1       0.278  -3.673  -9.592  0.00  0.00    +0.028 A 
ATOM     27  C   UNL     1       1.643  -3.338  -9.506  0.00  0.00    +0.072 A 
ATOM     28  N   UNL     1       2.152  -2.814  -8.392  0.00  0.00    -0.242 NA
ENDBRANCH  16  19
ENDBRANCH   3  15
TORSDOF 5
