REMARK  Name = ZINC27522037
REMARK  6 active torsions:
REMARK  status: ('A' for Active; 'I' for Inactive)
REMARK    1  A    between atoms: C_3  and  C_10
REMARK    2  A    between atoms: C_5  and  N_7
REMARK    3  A    between atoms: C_11  and  C_12
REMARK    4  A    between atoms: C_11  and  N_23
REMARK    5  A    between atoms: N_14  and  C_15
REMARK    6  A    between atoms: C_24  and  C_26
REMARK                            x       y       z     vdW  Elec       q    Type
REMARK                         _______ _______ _______ _____ _____    ______ ____
ROOT
ATOM      1  C   UNL     1      -0.304   5.312   0.207  0.00  0.00    +0.036 C 
ATOM      2  C   UNL     1      -1.260   6.225  -0.083  0.00  0.00    +0.097 C 
ENDROOT
BRANCH   1   5
ATOM      3  C   UNL     1      -2.257   2.393   1.520  0.00  0.00    +0.003 A 
ATOM      4  C   UNL     1      -1.905   3.686   1.197  0.00  0.00    +0.008 A 
ATOM      5  C   UNL     1      -0.685   3.937   0.562  0.00  0.00    -0.021 A 
ATOM      6  C   UNL     1       0.173   2.872   0.265  0.00  0.00    +0.040 A 
ATOM      7  C   UNL     1      -0.191   1.585   0.601  0.00  0.00    +0.127 A 
ATOM      8  C   UNL     1      -1.401   1.345   1.229  0.00  0.00    +0.033 A 
BRANCH   7   9
ATOM      9  N   UNL     1       0.714   0.456   0.287  0.00  0.00    +0.056 N 
ATOM     10  O   UNL     1       0.394  -0.681   0.583  0.00  0.00    -0.126 OA
ATOM     11  O   UNL     1       1.779   0.665  -0.266  0.00  0.00    -0.126 OA
ENDBRANCH   7   9
ENDBRANCH   1   5
BRANCH   2  12
ATOM     12  C   UNL     1      -0.879   7.590  -0.474  0.00  0.00    +0.262 C 
ATOM     13  O   UNL     1      -1.739   8.411  -0.735  0.00  0.00    -0.268 OA
ATOM     14  N   UNL     1       0.423   7.932  -0.543  0.00  0.00    -0.280 N 
ATOM     15  H   UNL     1       1.197   7.216  -0.232  0.00  0.00    +0.155 HD
BRANCH  14  16
ATOM     16  C   UNL     1       0.789   9.198  -1.011  0.00  0.00    +0.036 A 
ATOM     17  C   UNL     1       0.004   9.843  -1.958  0.00  0.00    +0.043 A 
ATOM     18  C   UNL     1       0.365  11.097  -2.415  0.00  0.00    +0.044 A 
ATOM     19  C   UNL     1       1.514  11.704  -1.938  0.00  0.00    +0.040 A 
ATOM     20  C   UNL     1       2.300  11.061  -0.998  0.00  0.00    +0.044 A 
ATOM     21  C   UNL     1       1.940   9.810  -0.533  0.00  0.00    +0.043 A 
ATOM     22 CL   UNL     1       3.740  11.827  -0.402  0.00  0.00    -0.083 Cl
ATOM     23 CL   UNL     1      -0.618  11.907  -3.594  0.00  0.00    -0.083 Cl
ENDBRANCH  14  16
ENDBRANCH   2  12
BRANCH   2  24
ATOM     24  N   UNL     1      -2.610   5.870  -0.011  0.00  0.00    -0.277 N 
ATOM     25  C   UNL     1      -3.438   6.531   0.823  0.00  0.00    +0.248 C 
ATOM     26  O   UNL     1      -3.034   7.497   1.440  0.00  0.00    -0.270 OA
ATOM     27  H   UNL     1      -2.998   5.051  -0.636  0.00  0.00    +0.155 HD
BRANCH  25  28
ATOM     28  C   UNL     1      -4.836   6.081   0.987  0.00  0.00    +0.038 A 
ATOM     29  C   UNL     1      -5.274   4.912   0.361  0.00  0.00    +0.013 A 
ATOM     30  C   UNL     1      -6.579   4.495   0.522  0.00  0.00    +0.002 A 
ATOM     31  C   UNL     1      -7.456   5.236   1.293  0.00  0.00    +0.020 A 
ATOM     32  C   UNL     1      -7.030   6.398   1.913  0.00  0.00    +0.042 A 
ATOM     33  C   UNL     1      -5.725   6.825   1.764  0.00  0.00    +0.033 A 
ATOM     34 CL   UNL     1      -8.138   7.322   2.878  0.00  0.00    -0.084 Cl
ENDBRANCH  25  28
ENDBRANCH   2  24
TORSDOF 6
