REMARK  Name = ZINC15772386
REMARK  10 active torsions:
REMARK  status: ('A' for Active; 'I' for Inactive)
REMARK    1  A    between atoms: C_1  and  O_2
REMARK    2  A    between atoms: O_2  and  C_3
REMARK    3  A    between atoms: C_6  and  C_11
REMARK    4  A    between atoms: C_8  and  O_9
REMARK    5  A    between atoms: O_9  and  C_10
REMARK    6  A    between atoms: C_15  and  O_38
REMARK    7  A    between atoms: C_16  and  O_36
REMARK    8  A    between atoms: C_26  and  N_27
REMARK    9  A    between atoms: O_36  and  C_37
REMARK   10  A    between atoms: O_38  and  C_39
REMARK                            x       y       z     vdW  Elec       q    Type
REMARK                         _______ _______ _______ _____ _____    ______ ____
ROOT
ATOM      1  C   UNL     1       1.288  -2.257  -0.070  0.00  0.00    +0.238 C 
ATOM      2  C   UNL     1       1.203  -2.865   1.304  0.00  0.00    +0.009 A 
ATOM      3  C   UNL     1       1.945  -2.318   2.336  0.00  0.00    +0.057 A 
ATOM      4  C   UNL     1       1.887  -2.869   3.606  0.00  0.00    +0.162 A 
ATOM      5  C   UNL     1       1.084  -3.979   3.858  0.00  0.00    +0.162 A 
ATOM      6  C   UNL     1       0.336  -4.532   2.833  0.00  0.00    +0.058 A 
ATOM      7  C   UNL     1       0.393  -3.972   1.559  0.00  0.00    +0.003 A 
ATOM      8  C   UNL     1      -0.417  -4.544   0.451  0.00  0.00    +0.110 C 
ATOM      9  C   UNL     1      -1.342  -5.546   0.656  0.00  0.00    +0.157 C 
ATOM     10  C   UNL     1      -2.565  -5.759  -0.130  0.00  0.00    +0.062 A 
ATOM     11  C   UNL     1      -3.195  -6.892   0.431  0.00  0.00    +0.072 A 
ATOM     12  C   UNL     1      -4.391  -7.351  -0.106  0.00  0.00    +0.016 A 
ATOM     13  C   UNL     1      -4.952  -6.699  -1.189  0.00  0.00    +0.003 A 
ATOM     14  C   UNL     1      -4.331  -5.592  -1.743  0.00  0.00    +0.033 A 
ATOM     15  C   UNL     1      -3.140  -5.120  -1.223  0.00  0.00    +0.138 A 
ATOM     16  C   UNL     1      -2.336  -7.323   1.546  0.00  0.00    +0.345 C 
ATOM     17  O   UNL     1      -2.547  -8.268   2.280  0.00  0.00    -0.245 OA
ATOM     18  O   UNL     1      -1.278  -6.494   1.617  0.00  0.00    -0.421 OA
ATOM     19  C   UNL     1      -0.162  -3.962  -0.891  0.00  0.00    +0.344 C 
ATOM     20  O   UNL     1      -0.231  -4.617  -1.913  0.00  0.00    -0.245 OA
ATOM     21  O   UNL     1       0.154  -2.638  -0.889  0.00  0.00    -0.448 OA
ENDROOT
BRANCH   1  25
ATOM     22  C   UNL     1       1.378   2.003   0.291  0.00  0.00    +0.162 A 
ATOM     23  C   UNL     1       0.172   1.325   0.361  0.00  0.00    +0.050 A 
ATOM     24  C   UNL     1       0.146  -0.053   0.244  0.00  0.00    +0.011 A 
ATOM     25  C   UNL     1       1.322  -0.756   0.057  0.00  0.00    +0.001 A 
ATOM     26  C   UNL     1       2.529  -0.085  -0.013  0.00  0.00    +0.057 A 
ATOM     27  C   UNL     1       2.561   1.296   0.103  0.00  0.00    +0.162 A 
BRANCH  22  29
ATOM     28  C   UNL     1       0.152   4.018   0.597  0.00  0.00    +0.277 C 
ATOM     29  O   UNL     1       1.405   3.358   0.406  0.00  0.00    -0.491 OA
ENDBRANCH  22  29
BRANCH  27  30
ATOM     30  O   UNL     1       3.747   1.958   0.034  0.00  0.00    -0.491 OA
ATOM     31  C   UNL     1       4.921   1.166  -0.162  0.00  0.00    +0.277 C 
ENDBRANCH  27  30
ENDBRANCH   1  25
BRANCH  15  32
ATOM     32  N   UNL     1      -2.485  -3.936  -1.822  0.00  0.00    +0.057 N 
ATOM     33  O   UNL     1      -2.239  -2.962  -1.133  0.00  0.00    -0.126 OA
ATOM     34  O   UNL     1      -2.191  -3.935  -3.004  0.00  0.00    -0.126 OA
ENDBRANCH  15  32
BRANCH   5  35
ATOM     35  O   UNL     1       1.036  -4.518   5.105  0.00  0.00    -0.491 OA
ATOM     36  C   UNL     1       0.191  -5.656   5.288  0.00  0.00    +0.277 C 
ENDBRANCH   5  35
BRANCH   4  37
ATOM     37  O   UNL     1       2.619  -2.322   4.613  0.00  0.00    -0.491 OA
ATOM     38  C   UNL     1       3.422  -1.185   4.289  0.00  0.00    +0.277 C 
ENDBRANCH   4  37
TORSDOF 6
