REMARK  Name = ZINC22838460
REMARK  10 active torsions:
REMARK  status: ('A' for Active; 'I' for Inactive)
REMARK    1  A    between atoms: C_1  and  C_2
REMARK    2  A    between atoms: C_5  and  C_9
REMARK    3  A    between atoms: C_12  and  C_14
REMARK    4  A    between atoms: C_15  and  C_16
REMARK    5  A    between atoms: N_18  and  C_19
REMARK    6  A    between atoms: C_19  and  N_21
REMARK    7  A    between atoms: C_25  and  O_33
REMARK    8  A    between atoms: C_27  and  O_31
REMARK    9  A    between atoms: O_31  and  C_32
REMARK   10  A    between atoms: O_33  and  C_34
REMARK                            x       y       z     vdW  Elec       q    Type
REMARK                         _______ _______ _______ _____ _____    ______ ____
ROOT
ATOM      1  C   UNL     1       0.124  -8.354  -3.840  0.00  0.00    +0.242 C 
ATOM      2  O   UNL     1       0.137  -9.484  -3.387  0.00  0.00    -0.270 OA
ATOM      3  N   UNL     1       0.116  -8.163  -5.175  0.00  0.00    -0.263 N 
ATOM      4  H   UNL     1       0.106  -7.263  -5.535  0.00  0.00    +0.157 HD
ENDROOT
BRANCH   1   6
ATOM      5  C   UNL     1       0.125  -7.435  -1.623  0.00  0.00    +0.051 C 
ATOM      6  C   UNL     1       0.117  -7.242  -2.967  0.00  0.00    +0.071 C 
BRANCH   5  10
ATOM      7  C   UNL     1       0.100  -4.247  -0.024  0.00  0.00    +0.136 A 
ATOM      8  C   UNL     1       0.113  -5.058   1.089  0.00  0.00    +0.050 A 
ATOM      9  C   UNL     1       0.124  -6.378   0.632  0.00  0.00    +0.050 A 
ATOM     10  C   UNL     1       0.117  -6.323  -0.749  0.00  0.00    +0.129 A 
ATOM     11  O   UNL     1       0.098  -5.026  -1.121  0.00  0.00    -0.455 OA
BRANCH   7  16
ATOM     12  C   UNL     1       0.039   1.506   0.007  0.00  0.00    +0.045 C 
ATOM     13  C   UNL     1       0.055  -0.001  -0.001  0.00  0.00    -0.032 A 
ATOM     14  C   UNL     1       0.052  -0.684  -1.204  0.00  0.00    +0.005 A 
ATOM     15  C   UNL     1       0.067  -2.063  -1.220  0.00  0.00    +0.012 A 
ATOM     16  C   UNL     1       0.085  -2.772  -0.015  0.00  0.00    +0.019 A 
ATOM     17  C   UNL     1       0.088  -2.077   1.196  0.00  0.00    +0.031 A 
ATOM     18  C   UNL     1       0.078  -0.697   1.197  0.00  0.00    +0.045 A 
ATOM     19 CL   UNL     1       0.089   0.169   2.701  0.00  0.00    -0.083 Cl
ENDBRANCH   7  16
ENDBRANCH   5  10
ENDBRANCH   1   6
BRANCH   3  20
ATOM     20  C   UNL     1       0.123  -9.223  -6.007  0.00  0.00    +0.163 C 
ATOM     21  S   UNL     1       0.141 -10.812  -5.370  0.00  0.00    -0.016 S 
BRANCH  20  22
ATOM     22  N   UNL     1       0.116  -9.033  -7.330  0.00  0.00    -0.169 NA
ATOM     23  C   UNL     1       0.228 -10.071  -8.150  0.00  0.00    +0.163 A 
ATOM     24  N   UNL     1       0.344 -10.078  -9.508  0.00  0.00    -0.333 N 
ATOM     25  C   UNL     1       0.452 -11.279 -10.193  0.00  0.00    +0.097 A 
ATOM     26  C   UNL     1       0.576 -11.464 -11.586  0.00  0.00    +0.148 A 
ATOM     27  C   UNL     1       0.674 -12.729 -12.125  0.00  0.00    +0.093 A 
ATOM     28  C   UNL     1       0.653 -13.858 -11.317  0.00  0.00    +0.125 A 
ATOM     29  C   UNL     1       0.531 -13.702  -9.943  0.00  0.00    +0.063 A 
ATOM     30  C   UNL     1       0.433 -12.438  -9.407  0.00  0.00    +0.046 A 
ATOM     31  S   UNL     1       0.275 -11.811  -7.752  0.00  0.00    -0.052 S 
ATOM     32  H   UNL     1       0.350  -9.241  -9.997  0.00  0.00    +0.168 HD
BRANCH  28  33
ATOM     33  O   UNL     1       0.750 -15.099 -11.864  0.00  0.00    -0.495 OA
ATOM     34  C   UNL     1       0.872 -15.174 -13.285  0.00  0.00    +0.277 C 
ENDBRANCH  28  33
BRANCH  26  35
ATOM     35  O   UNL     1       0.600 -10.381 -12.407  0.00  0.00    -0.493 OA
ATOM     36  C   UNL     1       0.728 -10.632 -13.808  0.00  0.00    +0.277 C 
ENDBRANCH  26  35
ENDBRANCH  20  22
ENDBRANCH   3  20
TORSDOF 7
