REMARK  Name = ZINC11905573
REMARK  8 active torsions:
REMARK  status: ('A' for Active; 'I' for Inactive)
REMARK    1  A    between atoms: C_1  and  O_2
REMARK    2  A    between atoms: O_2  and  C_3
REMARK    3  A    between atoms: C_5  and  O_27
REMARK    4  A    between atoms: C_8  and  N_9
REMARK    5  A    between atoms: C_10  and  C_12
REMARK    6  A    between atoms: C_12  and  S_13
REMARK    7  A    between atoms: S_13  and  C_14
REMARK    8  A    between atoms: O_27  and  C_28
REMARK                            x       y       z     vdW  Elec       q    Type
REMARK                         _______ _______ _______ _____ _____    ______ ____
ROOT
ATOM      1  N   UNL     1      -5.949  -0.013   1.862  0.00  0.00    -0.282 N 
ATOM      2  C   UNL     1      -6.604   0.303   2.997  0.00  0.00    +0.228 C 
ATOM      3  O   UNL     1      -6.071   1.006   3.829  0.00  0.00    -0.275 OA
ATOM      4  H   UNL     1      -6.403  -0.507   1.161  0.00  0.00    +0.155 HD
ENDROOT
BRANCH   1  10
ATOM      5  C   UNL     1      -4.086   0.529   0.414  0.00  0.00    +0.145 A 
ATOM      6  C   UNL     1      -2.764   0.910   0.251  0.00  0.00    +0.094 A 
ATOM      7  C   UNL     1      -1.966   1.134   1.362  0.00  0.00    +0.142 A 
ATOM      8  C   UNL     1      -2.488   0.973   2.638  0.00  0.00    +0.084 A 
ATOM      9  C   UNL     1      -3.809   0.598   2.803  0.00  0.00    +0.050 A 
ATOM     10  C   UNL     1      -4.611   0.373   1.694  0.00  0.00    +0.077 A 
ATOM     11 CL   UNL     1      -1.484   1.247   4.027  0.00  0.00    -0.080 Cl
BRANCH   5  13
ATOM     12  C   UNL     1      -4.265   0.487  -1.957  0.00  0.00    +0.277 C 
ATOM     13  O   UNL     1      -4.870   0.308  -0.675  0.00  0.00    -0.493 OA
ENDBRANCH   5  13
BRANCH   7  14
ATOM     14  O   UNL     1      -0.668   1.507   1.202  0.00  0.00    -0.494 OA
ATOM     15  C   UNL     1      -0.194   1.649  -0.139  0.00  0.00    +0.277 C 
ENDBRANCH   7  14
ENDBRANCH   1  10
BRANCH   2  16
ATOM     16  C   UNL     1      -7.999  -0.217   3.231  0.00  0.00    +0.173 C 
BRANCH  16  17
ATOM     17  S   UNL     1      -8.603   0.377   4.831  0.00  0.00    -0.078 S 
BRANCH  17  18
ATOM     18  C   UNL     1     -10.204  -0.359   4.845  0.00  0.00    +0.170 A 
ATOM     19  N   UNL     1     -11.024  -0.162   5.915  0.00  0.00    -0.302 N 
ATOM     20  H   UNL     1     -10.730   0.383   6.662  0.00  0.00    +0.171 HD
ATOM     21  C   UNL     1     -12.248  -0.727   5.926  0.00  0.00    +0.255 A 
ATOM     22  O   UNL     1     -12.997  -0.560   6.875  0.00  0.00    -0.267 OA
ATOM     23  C   UNL     1     -12.649  -1.517   4.828  0.00  0.00    +0.038 A 
ATOM     24  C   UNL     1     -11.793  -1.678   3.786  0.00  0.00    +0.052 A 
ATOM     25  N   UNL     1     -10.589  -1.096   3.825  0.00  0.00    -0.228 NA
ATOM     26  C   UNL     1     -12.143  -2.486   2.564  0.00  0.00    +0.056 C 
ATOM     27  C   UNL     1     -13.320  -3.415   2.853  0.00  0.00    +0.006 C 
ATOM     28  C   UNL     1     -14.450  -2.586   3.476  0.00  0.00    +0.005 C 
ATOM     29  C   UNL     1     -14.013  -2.152   4.874  0.00  0.00    +0.042 C 
ENDBRANCH  17  18
ENDBRANCH  16  17
ENDBRANCH   2  16
TORSDOF 6
