REMARK  Name = ZINC62859537
REMARK  8 active torsions:
REMARK  status: ('A' for Active; 'I' for Inactive)
REMARK    1  A    between atoms: C_1  and  C_2
REMARK    2  A    between atoms: C_2  and  C_3
REMARK    3  A    between atoms: C_3  and  C_4
REMARK    4  A    between atoms: C_4  and  C_10
REMARK    5  A    between atoms: N_12  and  C_13
REMARK    6  A    between atoms: C_14  and  C_20
REMARK    7  A    between atoms: C_15  and  C_19
REMARK    8  A    between atoms: C_16  and  C_18
REMARK                            x       y       z     vdW  Elec       q    Type
REMARK                         _______ _______ _______ _____ _____    ______ ____
ROOT
ATOM      1  C   UNL     1      -0.497  -2.659   1.241  0.00  0.00    +0.222 C 
ATOM      2  O   UNL     1      -0.915  -3.286   2.192  0.00  0.00    -0.275 OA
ATOM      3  N   UNL     1      -1.259  -2.522   0.137  0.00  0.00    -0.279 N 
ATOM      4  H   UNL     1      -0.956  -1.960  -0.594  0.00  0.00    +0.155 HD
ENDROOT
BRANCH   1   5
ATOM      5  C   UNL     1       0.874  -2.035   1.293  0.00  0.00    +0.032 C 
ATOM      6  C   UNL     1       1.682  -2.470   0.067  0.00  0.00    +0.012 C 
ATOM      7  C   UNL     1       1.875  -3.989   0.108  0.00  0.00    -0.018 C 
ATOM      8  C   UNL     1       2.560  -4.375   1.421  0.00  0.00    -0.083 C 
ATOM      9  N   UNL     1       1.726  -3.956   2.554  0.00  0.00    +0.380 N 
ATOM     10  C   UNL     1       1.596  -2.494   2.562  0.00  0.00    -0.066 C 
ATOM     11  H   UNL     1       0.812  -4.374   2.470  0.00  0.00    -0.086 HD
ATOM     12  H   UNL     1       2.155  -4.259   3.416  0.00  0.00    -0.086 HD
BRANCH   5  13
ATOM     13  C   UNL     1       0.741  -0.511   1.303  0.00  0.00    +0.014 C 
BRANCH  13  15
ATOM     14  C   UNL     1      -0.036   1.457   2.631  0.00  0.00    +0.004 C 
ATOM     15  C   UNL     1       0.013  -0.071   2.575  0.00  0.00    -0.002 C 
ENDBRANCH  13  15
ENDBRANCH   5  13
ENDBRANCH   1   5
BRANCH   3  16
ATOM     16  C   UNL     1      -2.476  -3.182   0.047  0.00  0.00    +0.090 A 
ATOM     17  C   UNL     1      -3.380  -3.163  -1.003  0.00  0.00    +0.083 A 
ATOM     18  C   UNL     1      -4.582  -3.948  -0.837  0.00  0.00    -0.021 A 
ATOM     19  C   UNL     1      -4.689  -4.616   0.327  0.00  0.00    -0.007 A 
ATOM     20  S   UNL     1      -3.187  -4.194   1.181  0.00  0.00    -0.077 S 
ATOM     21  C   UNL     1      -5.811  -5.509   0.792  0.00  0.00    +0.052 C 
ATOM     22  C   UNL     1      -5.647  -4.015  -1.901  0.00  0.00    +0.046 C 
BRANCH  17  23
ATOM     23  C   UNL     1      -3.137  -2.402  -2.192  0.00  0.00    +0.102 C 
ATOM     24  N   UNL     1      -2.943  -1.799  -3.135  0.00  0.00    -0.191 NA
ENDBRANCH  17  23
ENDBRANCH   3  16
TORSDOF 5
