REMARK  Name = ZINC62977220
REMARK  11 active torsions:
REMARK  status: ('A' for Active; 'I' for Inactive)
REMARK    1  A    between atoms: C_1  and  C_2
REMARK    2  A    between atoms: C_2  and  N_3
REMARK    3  A    between atoms: N_3  and  C_4
REMARK    4  A    between atoms: N_3  and  C_6
REMARK    5  A    between atoms: C_4  and  C_5
REMARK    6  A    between atoms: C_9  and  C_12
REMARK    7  A    between atoms: C_17  and  C_38
REMARK    8  A    between atoms: C_19  and  O_37
REMARK    9  A    between atoms: C_20  and  C_23
REMARK   10  A    between atoms: C_23  and  N_24
REMARK   11  A    between atoms: N_27  and  C_30
REMARK                            x       y       z     vdW  Elec       q    Type
REMARK                         _______ _______ _______ _____ _____    ______ ____
ROOT
ATOM      1  C   UNL     1      -0.092  -6.088  -1.495  0.00  0.00    +0.058 C 
ATOM      2  C   UNL     1      -0.636  -6.619  -2.618  0.00  0.00    +0.176 C 
ATOM      3  C   UNL     1      -0.955  -5.893  -3.858  0.00  0.00    +0.232 C 
ATOM      4  O   UNL     1      -0.789  -4.709  -4.092  0.00  0.00    -0.283 OA
ATOM      5  C   UNL     1      -1.518  -6.920  -4.753  0.00  0.00    +0.071 A 
ATOM      6  C   UNL     1      -2.009  -6.883  -6.059  0.00  0.00    -0.033 A 
ATOM      7  C   UNL     1      -2.479  -8.025  -6.642  0.00  0.00    +0.050 A 
ATOM      8  C   UNL     1      -2.467  -9.226  -5.938  0.00  0.00    +0.122 A 
ATOM      9  C   UNL     1      -1.982  -9.278  -4.641  0.00  0.00    +0.020 A 
ATOM     10  C   UNL     1      -1.501  -8.125  -4.033  0.00  0.00    +0.145 A 
ATOM     11  O   UNL     1      -0.980  -7.915  -2.804  0.00  0.00    -0.451 OA
ATOM     12  C   UNL     1      -2.023  -5.584  -6.823  0.00  0.00    +0.045 C 
ENDROOT
BRANCH   1  16
ATOM     13  C   UNL     1       0.366  -1.887  -1.145  0.00  0.00    +0.013 A 
ATOM     14  C   UNL     1       1.359  -2.730  -0.673  0.00  0.00    +0.022 A 
ATOM     15  C   UNL     1       1.217  -4.096  -0.783  0.00  0.00    +0.010 A 
ATOM     16  C   UNL     1       0.067  -4.632  -1.373  0.00  0.00    -0.021 A 
ATOM     17  C   UNL     1      -0.931  -3.773  -1.848  0.00  0.00    +0.010 A 
ATOM     18  C   UNL     1      -0.777  -2.409  -1.725  0.00  0.00    +0.022 A 
BRANCH  13  19
ATOM     19  N   UNL     1       0.518  -0.502  -1.030  0.00  0.00    -0.394 NA
ATOM     20  H   UNL     1      -0.293  -0.042  -1.416  0.00  0.00    +0.126 HD
BRANCH  19  22
ATOM     21  C   UNL     1      -0.651  -0.449   1.122  0.00  0.00    +0.022 C 
ATOM     22  C   UNL     1       0.656  -0.141   0.388  0.00  0.00    +0.081 C 
ENDBRANCH  19  22
BRANCH  19  23
ATOM     23  C   UNL     1       1.718  -0.078  -1.762  0.00  0.00    +0.081 C 
ATOM     24  C   UNL     1       1.517  -0.327  -3.259  0.00  0.00    +0.022 C 
ENDBRANCH  19  23
ENDBRANCH  13  19
ENDBRANCH   1  16
BRANCH   8  25
ATOM     25  O   UNL     1      -2.936 -10.356  -6.527  0.00  0.00    -0.506 OA
ATOM     26  H   UNL     1      -2.263 -10.857  -7.007  0.00  0.00    +0.292 HD
ENDBRANCH   8  25
BRANCH   9  27
ATOM     27  C   UNL     1      -1.976 -10.585  -3.891  0.00  0.00    -0.035 C 
BRANCH  27  28
ATOM     28  N   UNL     1      -0.707 -11.283  -4.132  0.00  0.00    +0.385 N 
ATOM     29  C   UNL     1      -0.609 -11.639  -5.553  0.00  0.00    -0.059 C 
ATOM     30  C   UNL     1       0.763 -12.264  -5.829  0.00  0.00    +0.086 C 
ATOM     31  N   UNL     1       0.955 -13.393  -4.905  0.00  0.00    -0.331 N 
ATOM     32  C   UNL     1       0.717 -13.164  -3.472  0.00  0.00    +0.086 C 
ATOM     33  C   UNL     1      -0.653 -12.496  -3.308  0.00  0.00    -0.059 C 
ATOM     34  H   UNL     1       0.061 -10.676  -3.886  0.00  0.00    -0.081 HD
BRANCH  31  35
ATOM     35  C   UNL     1       1.352 -14.648  -5.377  0.00  0.00    +0.065 A 
ATOM     36  C   UNL     1       2.702 -14.963  -5.465  0.00  0.00    +0.026 A 
ATOM     37  C   UNL     1       3.091 -16.204  -5.931  0.00  0.00    +0.002 A 
ATOM     38  C   UNL     1       2.140 -17.133  -6.310  0.00  0.00    +0.003 A 
ATOM     39  C   UNL     1       0.794 -16.823  -6.225  0.00  0.00    +0.040 A 
ATOM     40  C   UNL     1       0.397 -15.586  -5.754  0.00  0.00    +0.144 A 
ATOM     41  F   UNL     1      -0.917 -15.286  -5.665  0.00  0.00    -0.204 F 
ENDBRANCH  31  35
ENDBRANCH  27  28
ENDBRANCH   9  27
TORSDOF 8
