REMARK  Name = ZINC25125551
REMARK  6 active torsions:
REMARK  status: ('A' for Active; 'I' for Inactive)
REMARK    1  A    between atoms: C_1  and  C_2
REMARK    2  A    between atoms: C_2  and  C_4
REMARK    3  A    between atoms: C_2  and  N_21
REMARK    4  A    between atoms: C_4  and  N_5
REMARK    5  A    between atoms: C_6  and  C_8
REMARK    6  A    between atoms: C_10  and  C_14
REMARK                            x       y       z     vdW  Elec       q    Type
REMARK                         _______ _______ _______ _____ _____    ______ ____
ROOT
ATOM      1  N   UNL     1      -4.822   2.146   1.052  0.00  0.00    -0.312 N 
ATOM      2  C   UNL     1      -6.085   2.079   0.588  0.00  0.00    +0.264 C 
ATOM      3  O   UNL     1      -6.864   1.275   1.061  0.00  0.00    -0.268 OA
ATOM      4  H   UNL     1      -4.117   2.874   0.624  0.00  0.00    +0.149 HD
ENDROOT
BRANCH   2   5
ATOM      5  C   UNL     1      -6.524   2.984  -0.494  0.00  0.00    +0.147 A 
ATOM      6  C   UNL     1      -7.809   3.029  -1.078  0.00  0.00    +0.062 A 
ATOM      7  C   UNL     1      -7.744   4.011  -2.026  0.00  0.00    +0.066 A 
ATOM      8  N   UNL     1      -6.475   4.510  -1.991  0.00  0.00    -0.276 N 
ATOM      9  H   UNL     1      -6.183   5.318  -2.678  0.00  0.00    +0.189 HD
ATOM     10  N   UNL     1      -5.790   3.902  -1.091  0.00  0.00    -0.169 NA
BRANCH   7  11
ATOM     11  C   UNL     1      -8.839   4.447  -2.921  0.00  0.00    -0.000 A 
ATOM     12  C   UNL     1     -10.090   3.835  -2.846  0.00  0.00    +0.013 A 
ATOM     13  C   UNL     1     -11.110   4.250  -3.677  0.00  0.00    +0.039 A 
ATOM     14  C   UNL     1     -10.889   5.265  -4.594  0.00  0.00    +0.123 A 
ATOM     15  C   UNL     1      -9.646   5.873  -4.676  0.00  0.00    +0.039 A 
ATOM     16  C   UNL     1      -8.622   5.469  -3.845  0.00  0.00    +0.013 A 
ATOM     17  F   UNL     1     -11.889   5.664  -5.410  0.00  0.00    -0.205 F 
ENDBRANCH   7  11
ENDBRANCH   2   5
BRANCH   1  18
ATOM     18  C   UNL     1      -4.386   1.249   2.125  0.00  0.00    +0.089 C 
BRANCH  18  20
ATOM     19  C   UNL     1      -2.408   0.413   3.401  0.00  0.00    -0.012 C 
ATOM     20  C   UNL     1      -2.889   1.440   2.374  0.00  0.00    -0.054 C 
BRANCH  20  21
ATOM     21  N   UNL     1      -2.156   1.255   1.115  0.00  0.00    +0.385 N 
ATOM     22  C   UNL     1      -2.272  -0.132   0.637  0.00  0.00    -0.073 C 
ATOM     23  C   UNL     1      -1.860  -0.179  -0.844  0.00  0.00    +0.024 C 
ATOM     24  C   UNL     1      -0.586   0.589  -0.988  0.00  0.00    -0.011 A 
ATOM     25  C   UNL     1      -0.041   1.438  -0.073  0.00  0.00    -0.054 A 
ATOM     26  C   UNL     1       1.162   2.045  -0.426  0.00  0.00    +0.009 A 
ATOM     27  C   UNL     1       1.727   1.779  -1.627  0.00  0.00    +0.045 A 
ATOM     28  S   UNL     1       0.558   0.628  -2.338  0.00  0.00    -0.101 S 
ATOM     29  C   UNL     1      -0.756   1.675   1.254  0.00  0.00    -0.042 C 
ATOM     30  H   UNL     1      -2.612   1.902   0.352  0.00  0.00    -0.081 HD
ENDBRANCH  20  21
ENDBRANCH  18  20
ENDBRANCH   1  18
TORSDOF 5
