REMARK  Name = ZINC63795277
REMARK  7 active torsions:
REMARK  status: ('A' for Active; 'I' for Inactive)
REMARK    1  A    between atoms: C_1  and  C_2
REMARK    2  A    between atoms: C_4  and  C_13
REMARK    3  A    between atoms: C_13  and  C_14
REMARK    4  A    between atoms: C_14  and  N_15
REMARK    5  A    between atoms: C_16  and  C_18
REMARK    6  A    between atoms: N_20  and  C_21
REMARK    7  A    between atoms: C_25  and  O_27
REMARK                            x       y       z     vdW  Elec       q    Type
REMARK                         _______ _______ _______ _____ _____    ______ ____
ROOT
ATOM      1  N   UNL     1       1.000  -0.726  -4.977  0.00  0.00    -0.307 N 
ATOM      2  C   UNL     1       1.754  -1.244  -5.967  0.00  0.00    +0.299 C 
ATOM      3  O   UNL     1       2.741  -1.898  -5.699  0.00  0.00    -0.265 OA
ATOM      4  H   UNL     1       0.212  -0.203  -5.191  0.00  0.00    +0.149 HD
ENDROOT
BRANCH   2   5
ATOM      5  C   UNL     1       1.376  -1.014  -7.393  0.00  0.00    +0.303 C 
ATOM      6  O   UNL     1       0.390  -0.360  -7.661  0.00  0.00    -0.265 OA
ATOM      7  N   UNL     1       2.130  -1.532  -8.383  0.00  0.00    -0.278 N 
ATOM      8  H   UNL     1       2.955  -1.997  -8.171  0.00  0.00    +0.155 HD
BRANCH   7   9
ATOM      9  C   UNL     1       1.725  -1.399  -9.713  0.00  0.00    +0.037 A 
ATOM     10  C   UNL     1       1.970  -2.422 -10.621  0.00  0.00    +0.023 A 
ATOM     11  C   UNL     1       1.569  -2.290 -11.936  0.00  0.00    +0.005 A 
ATOM     12  C   UNL     1       0.923  -1.141 -12.352  0.00  0.00    +0.045 A 
ATOM     13  C   UNL     1       0.675  -0.116 -11.450  0.00  0.00    +0.119 A 
ATOM     14  C   UNL     1       1.071  -0.247 -10.128  0.00  0.00    +0.068 A 
BRANCH  13  15
ATOM     15  O   UNL     1       0.040   1.013 -11.861  0.00  0.00    -0.507 OA
ATOM     16  H   UNL     1      -0.923   0.974 -11.779  0.00  0.00    +0.292 HD
ENDBRANCH  13  15
ENDBRANCH   7   9
ENDBRANCH   2   5
BRANCH   1  17
ATOM     17  C   UNL     1       1.371  -0.953  -3.578  0.00  0.00    +0.109 C 
BRANCH  17  18
ATOM     18  C   UNL     1       0.358  -0.262  -2.663  0.00  0.00    +0.052 C 
BRANCH  18  21
ATOM     19  C   UNL     1      -0.019   1.539   0.006  0.00  0.00    +0.035 C 
ATOM     20  C   UNL     1       0.012   0.009   0.002  0.00  0.00    +0.103 C 
ATOM     21  C   UNL     1       0.739  -0.495  -1.224  0.00  0.00    -0.037 C 
ATOM     22  C   UNL     1       1.801  -1.197  -0.768  0.00  0.00    +0.002 A 
ATOM     23  C   UNL     1       2.878  -1.926  -1.450  0.00  0.00    +0.048 A 
ATOM     24  C   UNL     1       3.824  -2.547  -0.706  0.00  0.00    +0.124 A 
ATOM     25  C   UNL     1       3.800  -2.510   0.697  0.00  0.00    +0.040 A 
ATOM     26  C   UNL     1       2.843  -1.861   1.393  0.00  0.00    +0.029 A 
ATOM     27  C   UNL     1       1.799  -1.174   0.712  0.00  0.00    +0.043 A 
ATOM     28  N   UNL     1       0.774  -0.484   1.155  0.00  0.00    -0.378 N 
ATOM     29  F   UNL     1       4.816  -3.219  -1.330  0.00  0.00    -0.205 F 
ATOM     30  H   UNL     1       0.557  -0.326   2.087  0.00  0.00    +0.160 HD
ENDBRANCH  18  21
ENDBRANCH  17  18
ENDBRANCH   1  17
TORSDOF 6
