REMARK  Name = ZINC37370614
REMARK  5 active torsions:
REMARK  status: ('A' for Active; 'I' for Inactive)
REMARK    1  A    between atoms: C_3  and  S_18
REMARK    2  A    between atoms: C_6  and  O_7
REMARK    3  A    between atoms: O_7  and  C_8
REMARK    4  A    between atoms: C_13  and  N_14
REMARK    5  A    between atoms: S_18  and  N_21
REMARK                            x       y       z     vdW  Elec       q    Type
REMARK                         _______ _______ _______ _____ _____    ______ ____
ROOT
ATOM      1  C   UNL     1      -0.051   1.400   0.094  0.00  0.00    +0.048 A 
ATOM      2  C   UNL     1       1.125   2.126   0.097  0.00  0.00    +0.032 A 
ATOM      3  C   UNL     1       2.341   1.474   0.020  0.00  0.00    +0.105 A 
ATOM      4  C   UNL     1       2.385   0.094  -0.060  0.00  0.00    +0.032 A 
ATOM      5  C   UNL     1       1.213  -0.636  -0.064  0.00  0.00    +0.048 A 
ATOM      6  C   UNL     1      -0.010   0.015   0.013  0.00  0.00    +0.129 A 
ENDROOT
BRANCH   3   7
ATOM      7  S   UNL     1       3.839   2.402   0.024  0.00  0.00    +0.056 S 
ATOM      8  O   UNL     1       4.821   1.592  -0.607  0.00  0.00    -0.153 OA
ATOM      9  O   UNL     1       3.511   3.704  -0.443  0.00  0.00    -0.153 OA
BRANCH   7  10
ATOM     10  N   UNL     1       4.307   2.570   1.603  0.00  0.00    -0.204 NA
ATOM     11  H   UNL     1       5.248   2.642   1.825  0.00  0.00    +0.144 HD
ATOM     12  H   UNL     1       3.639   2.597   2.307  0.00  0.00    +0.144 HD
ENDBRANCH   7  10
ENDBRANCH   3   7
BRANCH   6  13
ATOM     13  O   UNL     1      -1.165  -0.701   0.010  0.00  0.00    -0.454 OA
BRANCH  13  14
ATOM     14  C   UNL     1      -1.983  -0.586  -1.069  0.00  0.00    +0.159 A 
ATOM     15  C   UNL     1      -1.573   0.139  -2.179  0.00  0.00    +0.050 A 
ATOM     16  C   UNL     1      -2.406   0.254  -3.274  0.00  0.00    +0.024 A 
ATOM     17  C   UNL     1      -3.650  -0.353  -3.265  0.00  0.00    +0.043 A 
ATOM     18  C   UNL     1      -4.061  -1.077  -2.160  0.00  0.00    +0.056 A 
ATOM     19  C   UNL     1      -3.228  -1.200  -1.065  0.00  0.00    +0.170 A 
ATOM     20 CL   UNL     1      -4.696  -0.207  -4.643  0.00  0.00    -0.083 Cl
BRANCH  19  21
ATOM     21  N   UNL     1      -3.665  -1.979   0.115  0.00  0.00    +0.060 N 
ATOM     22  O   UNL     1      -4.750  -2.514   0.118  0.00  0.00    -0.126 OA
ATOM     23  O   UNL     1      -2.938  -2.082   1.075  0.00  0.00    -0.126 OA
ENDBRANCH  19  21
ENDBRANCH  13  14
ENDBRANCH   6  13
TORSDOF 5
