REMARK  Name = ZINC04167883
REMARK  8 active torsions:
REMARK  status: ('A' for Active; 'I' for Inactive)
REMARK    1  A    between atoms: C_1  and  C_2
REMARK    2  A    between atoms: C_2  and  C_3
REMARK    3  A    between atoms: C_3  and  O_4
REMARK    4  A    between atoms: O_4  and  C_5
REMARK    5  A    between atoms: C_10  and  C_11
REMARK    6  A    between atoms: C_14  and  C_25
REMARK    7  A    between atoms: C_20  and  N_24
REMARK    8  A    between atoms: C_21  and  C_22
REMARK                            x       y       z     vdW  Elec       q    Type
REMARK                         _______ _______ _______ _____ _____    ______ ____
ROOT
ATOM      1  C   UNL     1      -1.990  -4.722  -0.038  0.00  0.00    +0.105 C 
ATOM      2  C   UNL     1      -1.686  -5.560   1.177  0.00  0.00    +0.054 A 
ATOM      3  C   UNL     1      -1.280  -5.155   2.452  0.00  0.00    +0.100 A 
ATOM      4  N   UNL     1      -1.135  -6.237   3.195  0.00  0.00    -0.171 NA
ATOM      5  N   UNL     1      -1.447  -7.357   2.409  0.00  0.00    -0.246 N 
ATOM      6  H   UNL     1      -1.426  -8.282   2.701  0.00  0.00    +0.192 HD
ATOM      7  C   UNL     1      -1.781  -6.922   1.176  0.00  0.00    +0.223 A 
ATOM      8  O   UNL     1      -2.153  -7.630   0.080  0.00  0.00    -0.423 OA
ATOM      9  C   UNL     1      -2.168  -6.985  -1.104  0.00  0.00    +0.200 C 
ATOM     10  C   UNL     1      -2.094  -5.640  -1.230  0.00  0.00    +0.098 C 
ENDROOT
BRANCH   3  11
ATOM     11  C   UNL     1      -1.051  -3.757   2.892  0.00  0.00    +0.006 A 
ATOM     12  C   UNL     1      -0.381  -2.864   2.058  0.00  0.00    +0.014 A 
ATOM     13  C   UNL     1      -0.169  -1.563   2.468  0.00  0.00    +0.050 A 
ATOM     14  C   UNL     1      -0.620  -1.141   3.710  0.00  0.00    +0.166 A 
ATOM     15  C   UNL     1      -1.290  -2.030   4.548  0.00  0.00    +0.167 A 
ATOM     16  C   UNL     1      -1.509  -3.333   4.138  0.00  0.00    +0.059 A 
ATOM     17  O   UNL     1      -1.627  -1.377   5.698  0.00  0.00    -0.453 OA
ATOM     18  C   UNL     1      -0.800  -0.198   5.726  0.00  0.00    +0.466 C 
ATOM     19  O   UNL     1      -0.538   0.070   4.336  0.00  0.00    -0.453 OA
ENDBRANCH   3  11
BRANCH   1  25
ATOM     20  C   UNL     1      -3.356  -2.619  -0.011  0.00  0.00    +0.125 A 
ATOM     21  C   UNL     1      -4.560  -1.953   0.166  0.00  0.00    +0.046 A 
ATOM     22  C   UNL     1      -5.694  -2.660   0.517  0.00  0.00    +0.004 A 
ATOM     23  C   UNL     1      -5.629  -4.030   0.691  0.00  0.00    +0.001 A 
ATOM     24  C   UNL     1      -4.431  -4.696   0.516  0.00  0.00    +0.008 A 
ATOM     25  C   UNL     1      -3.295  -3.995   0.159  0.00  0.00    +0.007 A 
BRANCH  20  26
ATOM     26  O   UNL     1      -2.239  -1.927  -0.357  0.00  0.00    -0.492 OA
BRANCH  26  27
ATOM     27  C   UNL     1      -2.360  -0.506  -0.453  0.00  0.00    +0.229 C 
BRANCH  27  29
ATOM     28  C   UNL     1      -1.161   1.604  -1.044  0.00  0.00    +0.007 C 
ATOM     29  C   UNL     1      -1.005   0.098  -0.826  0.00  0.00    +0.038 C 
ENDBRANCH  27  29
ENDBRANCH  26  27
ENDBRANCH  20  26
ENDBRANCH   1  25
BRANCH   9  30
ATOM     30  N   UNL     1      -2.264  -7.737  -2.248  0.00  0.00    -0.328 N 
ATOM     31  H   UNL     1      -2.319  -8.703  -2.190  0.00  0.00    +0.145 HD
ATOM     32  H   UNL     1      -2.277  -7.301  -3.115  0.00  0.00    +0.145 HD
ENDBRANCH   9  30
BRANCH  10  33
ATOM     33  C   UNL     1      -2.115  -5.067  -2.542  0.00  0.00    +0.101 C 
ATOM     34  N   UNL     1      -2.132  -4.612  -3.583  0.00  0.00    -0.191 NA
ENDBRANCH  10  33
TORSDOF 7
