REMARK  Name = ZINC09336554
REMARK  6 active torsions:
REMARK  status: ('A' for Active; 'I' for Inactive)
REMARK    1  A    between atoms: C_1  and  C_2
REMARK    2  A    between atoms: C_9  and  C_13
REMARK    3  A    between atoms: C_13  and  N_14
REMARK    4  A    between atoms: C_17  and  C_21
REMARK    5  A    between atoms: C_17  and  C_28
REMARK    6  A    between atoms: C_21  and  C_22
REMARK                            x       y       z     vdW  Elec       q    Type
REMARK                         _______ _______ _______ _____ _____    ______ ____
ROOT
ATOM      1  N   UNL     1       4.187  -2.431   1.383  0.00  0.00    -0.218 N 
ATOM      2  C   UNL     1       4.129  -1.085   1.369  0.00  0.00    +0.252 C 
ATOM      3  O   UNL     1       4.362  -0.332   2.291  0.00  0.00    -0.272 OA
ATOM      4  C   UNL     1       3.711  -0.707  -0.038  0.00  0.00    +0.142 C 
ATOM      5  N   UNL     1       3.570  -2.006  -0.718  0.00  0.00    -0.281 N 
ATOM      6  C   UNL     1       3.868  -2.951   0.192  0.00  0.00    +0.310 C 
ATOM      7  O   UNL     1       3.850  -4.144  -0.041  0.00  0.00    -0.252 OA
ATOM      8  H   UNL     1       3.311  -2.152  -1.641  0.00  0.00    +0.152 HD
ENDROOT
BRANCH   4   9
ATOM      9  C   UNL     1       2.396   0.029  -0.022  0.00  0.00    -0.015 A 
ATOM     10  C   UNL     1       1.208  -0.679  -0.013  0.00  0.00    +0.006 A 
ATOM     11  C   UNL     1       0.002  -0.004   0.002  0.00  0.00    +0.000 A 
ATOM     12  C   UNL     1      -0.017   1.378   0.010  0.00  0.00    +0.000 A 
ATOM     13  C   UNL     1       1.171   2.086   0.002  0.00  0.00    +0.000 A 
ATOM     14  C   UNL     1       2.377   1.411  -0.015  0.00  0.00    +0.006 A 
ENDBRANCH   4   9
BRANCH   1  15
ATOM     15  C   UNL     1       4.556  -3.227   2.557  0.00  0.00    +0.173 C 
BRANCH  15  24
ATOM     16  C   UNL     1      10.475  -6.157  -0.560  0.00  0.00    +0.044 C 
ATOM     17  C   UNL     1       9.848  -5.341   0.542  0.00  0.00    -0.046 A 
ATOM     18  C   UNL     1      10.646  -4.797   1.558  0.00  0.00    +0.021 A 
ATOM     19  C   UNL     1      10.083  -4.067   2.546  0.00  0.00    +0.096 A 
ATOM     20  N   UNL     1       8.739  -3.848   2.571  0.00  0.00    -0.268 N 
ATOM     21  C   UNL     1       7.934  -4.365   1.593  0.00  0.00    +0.141 A 
ATOM     22  C   UNL     1       8.502  -5.129   0.557  0.00  0.00    +0.050 A 
ATOM     23  N   UNL     1       6.619  -4.156   1.610  0.00  0.00    -0.232 NA
ATOM     24  C   UNL     1       6.047  -3.444   2.568  0.00  0.00    +0.067 A 
ATOM     25  C   UNL     1       6.817  -2.895   3.575  0.00  0.00    +0.095 A 
ATOM     26  C   UNL     1       8.199  -3.115   3.568  0.00  0.00    +0.259 A 
ATOM     27  O   UNL     1       8.906  -2.648   4.446  0.00  0.00    -0.267 OA
ENDBRANCH  15  24
ENDBRANCH   1  15
BRANCH   4  28
ATOM     28  C   UNL     1       4.791   0.139  -0.715  0.00  0.00    +0.075 C 
BRANCH  28  29
ATOM     29  C   UNL     1       6.061  -0.664  -0.829  0.00  0.00    -0.045 A 
ATOM     30  C   UNL     1       6.999  -0.622   0.187  0.00  0.00    +0.004 A 
ATOM     31  C   UNL     1       8.162  -1.362   0.084  0.00  0.00    +0.000 A 
ATOM     32  C   UNL     1       8.391  -2.137  -1.037  0.00  0.00    +0.000 A 
ATOM     33  C   UNL     1       7.456  -2.175  -2.055  0.00  0.00    +0.000 A 
ATOM     34  C   UNL     1       6.291  -1.438  -1.950  0.00  0.00    +0.004 A 
ENDBRANCH  28  29
ENDBRANCH   4  28
TORSDOF 5
