REMARK  Name = ZINC50224154
REMARK  3 active torsions:
REMARK  status: ('A' for Active; 'I' for Inactive)
REMARK    1  A    between atoms: C_3  and  N_9
REMARK    2  A    between atoms: C_11  and  C_14
REMARK    3  A    between atoms: C_14  and  N_15
REMARK                            x       y       z     vdW  Elec       q    Type
REMARK                         _______ _______ _______ _____ _____    ______ ____
ROOT
ATOM      1  N   UNL     1       3.586   2.128  -0.021  0.00  0.00    -0.218 N 
ATOM      2  C   UNL     1       4.835   1.593   0.055  0.00  0.00    +0.137 A 
ATOM      3  C   UNL     1       5.694   2.639   0.013  0.00  0.00    +0.066 A 
ATOM      4  N   UNL     1       4.945   3.743  -0.085  0.00  0.00    -0.136 NA
ATOM      5  N   UNL     1       3.704   3.408  -0.107  0.00  0.00    -0.061 NA
ENDROOT
BRANCH   1   8
ATOM      6  C   UNL     1       0.980  -0.285   0.941  0.00  0.00    +0.017 A 
ATOM      7  C   UNL     1       2.168   0.420   0.934  0.00  0.00    +0.030 A 
ATOM      8  C   UNL     1       2.381   1.411  -0.013  0.00  0.00    +0.085 A 
ATOM      9  C   UNL     1       1.397   1.692  -0.953  0.00  0.00    +0.067 A 
ATOM     10  C   UNL     1       0.210   0.984  -0.942  0.00  0.00    +0.037 A 
ATOM     11  C   UNL     1       0.002  -0.004   0.004  0.00  0.00    +0.019 A 
ATOM     12 BR   UNL     1      -1.623  -0.971   0.016  0.00  0.00    -0.050 Br
ATOM     13 CL   UNL     1       1.658   2.932  -2.140  0.00  0.00    -0.081 Cl
ENDBRANCH   1   8
BRANCH   3  14
ATOM     14  C   UNL     1       7.199   2.572   0.066  0.00  0.00    -0.027 C 
BRANCH  14  15
ATOM     15  N   UNL     1       7.738   2.579  -1.300  0.00  0.00    +0.382 N 
ATOM     16  H   UNL     1       7.383   1.780  -1.806  0.00  0.00    -0.090 HD
ATOM     17  H   UNL     1       7.455   3.426  -1.769  0.00  0.00    -0.090 HD
ATOM     18  H   UNL     1       8.745   2.534  -1.265  0.00  0.00    -0.090 HD
ENDBRANCH  14  15
ENDBRANCH   3  14
TORSDOF 3
