REMARK  Name = ZINC21237947
REMARK  10 active torsions:
REMARK  status: ('A' for Active; 'I' for Inactive)
REMARK    1  A    between atoms: C_1  and  C_2
REMARK    2  A    between atoms: C_2  and  C_4
REMARK    3  A    between atoms: C_2  and  N_12
REMARK    4  A    between atoms: C_13  and  C_15
REMARK    5  A    between atoms: C_15  and  O_16
REMARK    6  A    between atoms: O_16  and  C_17
REMARK    7  A    between atoms: C_17  and  C_19
REMARK    8  A    between atoms: C_19  and  C_20
REMARK    9  A    between atoms: C_20  and  C_22
REMARK   10  A    between atoms: C_20  and  N_29
REMARK                            x       y       z     vdW  Elec       q    Type
REMARK                         _______ _______ _______ _____ _____    ______ ____
ROOT
ATOM      1  C   UNL     1      -0.273   2.508   2.051  0.00  0.00    +0.310 C 
ATOM      2  O   UNL     1      -0.117   1.319   2.203  0.00  0.00    -0.251 OA
ENDROOT
BRANCH   1   3
ATOM      3  O   UNL     1      -0.564   3.287   3.104  0.00  0.00    -0.455 OA
BRANCH   3   4
ATOM      4  C   UNL     1      -0.676   2.634   4.396  0.00  0.00    +0.327 C 
BRANCH   4   6
ATOM      5  N   UNL     1      -1.158   3.280   6.735  0.00  0.00    -0.306 N 
ATOM      6  C   UNL     1      -1.005   3.659   5.451  0.00  0.00    +0.251 C 
ATOM      7  O   UNL     1      -1.132   4.825   5.144  0.00  0.00    -0.272 OA
ATOM      8  H   UNL     1      -1.044   2.222   7.013  0.00  0.00    +0.149 HD
BRANCH   5  10
ATOM      9  C   UNL     1      -2.986   4.538   7.765  0.00  0.00    +0.033 C 
ATOM     10  C   UNL     1      -1.478   4.277   7.760  0.00  0.00    +0.102 C 
BRANCH  10  11
ATOM     11  C   UNL     1      -1.052   3.762   9.111  0.00  0.00    -0.009 A 
ATOM     12  C   UNL     1      -0.999   2.401   9.346  0.00  0.00    +0.008 A 
ATOM     13  C   UNL     1      -0.609   1.928  10.585  0.00  0.00    +0.020 A 
ATOM     14  C   UNL     1      -0.272   2.817  11.591  0.00  0.00    +0.042 A 
ATOM     15  C   UNL     1      -0.326   4.179  11.356  0.00  0.00    +0.040 A 
ATOM     16  C   UNL     1      -0.711   4.652  10.114  0.00  0.00    +0.047 A 
ATOM     17 CL   UNL     1      -0.771   6.361   9.815  0.00  0.00    -0.083 Cl
ATOM     18 CL   UNL     1       0.218   2.223  13.146  0.00  0.00    -0.083 Cl
ENDBRANCH  10  11
ENDBRANCH   5  10
ENDBRANCH   4   6
ENDBRANCH   3   4
ENDBRANCH   1   3
BRANCH   1  19
ATOM     19  C   UNL     1      -0.139   3.115   0.678  0.00  0.00    +0.147 C 
BRANCH  19  20
ATOM     20  C   UNL     1       0.193   2.018  -0.335  0.00  0.00    +0.115 C 
BRANCH  20  21
ATOM     21  C   UNL     1       0.206   2.604  -1.723  0.00  0.00    -0.027 A 
ATOM     22  C   UNL     1       1.323   3.277  -2.179  0.00  0.00    +0.007 A 
ATOM     23  C   UNL     1       1.337   3.810  -3.455  0.00  0.00    +0.020 A 
ATOM     24  C   UNL     1       0.228   3.678  -4.271  0.00  0.00    +0.041 A 
ATOM     25  C   UNL     1      -0.893   3.009  -3.812  0.00  0.00    +0.020 A 
ATOM     26  C   UNL     1      -0.903   2.472  -2.539  0.00  0.00    +0.007 A 
ATOM     27 CL   UNL     1       0.242   4.354  -5.870  0.00  0.00    -0.084 Cl
ENDBRANCH  20  21
BRANCH  20  28
ATOM     28  N   UNL     1       1.512   1.456  -0.030  0.00  0.00    -0.292 N 
ATOM     29  C   UNL     1       1.833   0.220  -0.462  0.00  0.00    +0.298 C 
ATOM     30  O   UNL     1       1.004  -0.456  -1.040  0.00  0.00    -0.253 OA
ATOM     31  N   UNL     1       3.073  -0.265  -0.253  0.00  0.00    -0.313 N 
ATOM     32  H   UNL     1       2.239   2.042   0.550  0.00  0.00    +0.151 HD
ATOM     33  H   UNL     1       3.335  -1.274  -0.605  0.00  0.00    +0.146 HD
ATOM     34  H   UNL     1       3.822   0.347   0.270  0.00  0.00    +0.146 HD
ENDBRANCH  20  28
ENDBRANCH  19  20
ENDBRANCH   1  19
TORSDOF 9
