REMARK  Name = ZINC04226216
REMARK  4 active torsions:
REMARK  status: ('A' for Active; 'I' for Inactive)
REMARK    1  A    between atoms: C_7  and  N_15
REMARK    2  A    between atoms: C_9  and  C_11
REMARK    3  A    between atoms: N_15  and  C_16
REMARK    4  A    between atoms: C_19  and  O_22
REMARK                            x       y       z     vdW  Elec       q    Type
REMARK                         _______ _______ _______ _____ _____    ______ ____
ROOT
ATOM      1  C   UNL     1       0.011   1.116   0.023  0.00  0.00    +0.001 A 
ATOM      2  C   UNL     1       1.198   1.823  -0.151  0.00  0.00    +0.002 A 
ATOM      3  C   UNL     1       1.193   3.176  -0.312  0.00  0.00    +0.028 A 
ATOM      4  C   UNL     1      -0.025   3.870  -0.301  0.00  0.00    +0.077 A 
ATOM      5  C   UNL     1      -1.231   3.149  -0.123  0.00  0.00    +0.040 A 
ATOM      6  C   UNL     1      -1.192   1.759   0.034  0.00  0.00    +0.013 A 
ATOM      7  C   UNL     1      -2.448   3.873  -0.117  0.00  0.00    +0.135 A 
ATOM      8  N   UNL     1      -2.395   5.189  -0.278  0.00  0.00    -0.208 NA
ATOM      9  C   UNL     1      -1.243   5.819  -0.441  0.00  0.00    +0.236 A 
ATOM     10  N   UNL     1      -0.086   5.200  -0.455  0.00  0.00    -0.224 NA
ENDROOT
BRANCH   9  11
ATOM     11  C   UNL     1      -1.261   7.316  -0.618  0.00  0.00    +0.452 C 
ATOM     12  F   UNL     1      -0.830   7.930   0.563  0.00  0.00    -0.163 F 
ATOM     13  F   UNL     1      -0.407   7.671  -1.667  0.00  0.00    -0.163 F 
ATOM     14  F   UNL     1      -2.563   7.735  -0.913  0.00  0.00    -0.163 F 
ENDBRANCH   9  11
BRANCH   7  15
ATOM     15  N   UNL     1      -3.656   3.228   0.052  0.00  0.00    -0.299 N 
ATOM     16  H   UNL     1      -3.687   2.259   0.087  0.00  0.00    +0.154 HD
BRANCH  15  17
ATOM     17  C   UNL     1      -4.836   3.972   0.172  0.00  0.00    +0.033 A 
ATOM     18  C   UNL     1      -4.814   5.215   0.789  0.00  0.00    +0.027 A 
ATOM     19  C   UNL     1      -5.977   5.950   0.904  0.00  0.00    +0.047 A 
ATOM     20  C   UNL     1      -7.170   5.442   0.410  0.00  0.00    +0.117 A 
ATOM     21  C   UNL     1      -7.194   4.197  -0.202  0.00  0.00    +0.047 A 
ATOM     22  C   UNL     1      -6.030   3.463  -0.321  0.00  0.00    +0.027 A 
BRANCH  20  23
ATOM     23  O   UNL     1      -8.316   6.164   0.528  0.00  0.00    -0.507 OA
ATOM     24  H   UNL     1      -8.808   5.991   1.343  0.00  0.00    +0.292 HD
ENDBRANCH  20  23
ENDBRANCH  15  17
ENDBRANCH   7  15
TORSDOF 4
