REMARK  Name = ZINC02757634
REMARK  6 active torsions:
REMARK  status: ('A' for Active; 'I' for Inactive)
REMARK    1  A    between atoms: C_1  and  C_2
REMARK    2  A    between atoms: C_3  and  C_29
REMARK    3  A    between atoms: C_4  and  C_22
REMARK    4  A    between atoms: C_10  and  C_15
REMARK    5  A    between atoms: C_29  and  O_31
REMARK    6  A    between atoms: O_31  and  C_32
REMARK                            x       y       z     vdW  Elec       q    Type
REMARK                         _______ _______ _______ _____ _____    ______ ____
ROOT
ATOM      1  C   UNL     1       2.433   0.978  -0.453  0.00  0.00    +0.061 C 
ATOM      2  C   UNL     1       1.167   1.659  -0.000  0.00  0.00    +0.016 C 
ATOM      3  C   UNL     1       1.204   2.943   0.394  0.00  0.00    +0.065 C 
ATOM      4  C   UNL     1      -0.035   3.652   0.857  0.00  0.00    +0.092 C 
ATOM      5  C   UNL     1      -1.275   2.918   0.414  0.00  0.00    +0.024 C 
ATOM      6  C   UNL     1      -1.210   1.627   0.017  0.00  0.00    +0.016 C 
ATOM      7  N   UNL     1      -0.011   0.966   0.007  0.00  0.00    -0.321 N 
ATOM      8  C   UNL     1      -2.449   0.882  -0.406  0.00  0.00    +0.059 C 
ATOM      9  C   UNL     1      -3.442   1.857  -1.043  0.00  0.00    +0.032 C 
ATOM     10  C   UNL     1      -3.773   2.950  -0.021  0.00  0.00    +0.088 C 
ATOM     11  C   UNL     1      -2.497   3.613   0.419  0.00  0.00    +0.162 C 
ATOM     12  O   UNL     1      -2.522   4.772   0.784  0.00  0.00    -0.292 OA
ATOM     13  H   UNL     1      -0.002  -0.134   0.006  0.00  0.00    +0.152 HD
ENDROOT
BRANCH   9  14
ATOM     14  C   UNL     1      -4.700   1.122  -1.425  0.00  0.00    -0.043 A 
ATOM     15  C   UNL     1      -5.431   0.455  -0.459  0.00  0.00    +0.005 A 
ATOM     16  C   UNL     1      -6.589  -0.214  -0.808  0.00  0.00    +0.020 A 
ATOM     17  C   UNL     1      -7.010  -0.227  -2.125  0.00  0.00    +0.041 A 
ATOM     18  C   UNL     1      -6.275   0.436  -3.092  0.00  0.00    +0.020 A 
ATOM     19  C   UNL     1      -5.121   1.110  -2.741  0.00  0.00    +0.005 A 
ATOM     20 CL   UNL     1      -8.460  -1.074  -2.565  0.00  0.00    -0.084 Cl
ENDBRANCH   9  14
BRANCH   4  21
ATOM     21  C   UNL     1      -0.022   3.736   2.362  0.00  0.00    -0.035 A 
ATOM     22  C   UNL     1       0.004   2.580   3.119  0.00  0.00    +0.007 A 
ATOM     23  C   UNL     1       0.021   2.656   4.498  0.00  0.00    +0.038 A 
ATOM     24  C   UNL     1      -0.001   3.892   5.123  0.00  0.00    +0.123 A 
ATOM     25  C   UNL     1      -0.033   5.049   4.364  0.00  0.00    +0.038 A 
ATOM     26  C   UNL     1      -0.044   4.970   2.984  0.00  0.00    +0.007 A 
ATOM     27  F   UNL     1       0.010   3.967   6.472  0.00  0.00    -0.205 F 
ENDBRANCH   4  21
BRANCH   3  28
ATOM     28  C   UNL     1       2.435   3.641   0.371  0.00  0.00    +0.338 C 
ATOM     29  O   UNL     1       3.446   3.078  -0.003  0.00  0.00    -0.245 OA
BRANCH  28  30
ATOM     30  O   UNL     1       2.486   4.931   0.763  0.00  0.00    -0.458 OA
BRANCH  30  31
ATOM     31  C   UNL     1       3.762   5.573   0.715  0.00  0.00    +0.177 C 
ATOM     32  C   UNL     1       4.482   5.380   2.051  0.00  0.00    +0.044 C 
ATOM     33  C   UNL     1       5.848   6.068   1.998  0.00  0.00    +0.004 C 
ATOM     34  C   UNL     1       5.656   7.563   1.734  0.00  0.00    +0.000 C 
ATOM     35  C   UNL     1       4.936   7.756   0.398  0.00  0.00    +0.004 C 
ATOM     36  C   UNL     1       3.571   7.068   0.450  0.00  0.00    +0.044 C 
ENDBRANCH  30  31
ENDBRANCH  28  30
ENDBRANCH   3  28
TORSDOF 5
