REMARK  Name = ZINC00203125
REMARK  3 active torsions:
REMARK  status: ('A' for Active; 'I' for Inactive)
REMARK    1  A    between atoms: C_1  and  C_2
REMARK    2  A    between atoms: C_7  and  C_11
REMARK    3  A    between atoms: C_7  and  C_15
REMARK                            x       y       z     vdW  Elec       q    Type
REMARK                         _______ _______ _______ _____ _____    ______ ____
ROOT
ATOM      1  C   UNL     1      -0.018   1.503   0.010  0.00  0.00    +0.045 C 
ATOM      2  C   UNL     1       0.002  -0.004   0.002  0.00  0.00    -0.036 C 
ATOM      3  C   UNL     1      -1.157  -0.687   0.004  0.00  0.00    +0.089 C 
ATOM      4  N   UNL     1      -1.169  -2.062  -0.003  0.00  0.00    -0.215 N 
ATOM      5  C   UNL     1       0.021  -2.754  -0.012  0.00  0.00    +0.131 C 
ATOM      6  N   UNL     1       0.055  -4.070  -0.018  0.00  0.00    -0.226 NA
ATOM      7  C   UNL     1      -1.211  -4.816  -0.017  0.00  0.00    +0.321 C 
ATOM      8  N   UNL     1      -2.456  -4.032  -0.007  0.00  0.00    -0.260 N 
ATOM      9  C   UNL     1      -2.361  -2.688  -0.000  0.00  0.00    +0.314 C 
ATOM     10  O   UNL     1      -3.379  -2.023   0.009  0.00  0.00    -0.252 OA
ATOM     11  C   UNL     1       1.248  -2.042  -0.014  0.00  0.00    +0.044 C 
ATOM     12  C   UNL     1       1.233  -0.686  -0.013  0.00  0.00    +0.008 C 
ATOM     13  H   UNL     1      -3.321  -4.470  -0.005  0.00  0.00    +0.153 HD
ENDROOT
BRANCH   7  14
ATOM     14  C   UNL     1      -1.219  -5.725   1.214  0.00  0.00    +0.440 C 
ATOM     15  F   UNL     1      -1.115  -4.944   2.371  0.00  0.00    -0.166 F 
ATOM     16  F   UNL     1      -2.413  -6.453   1.249  0.00  0.00    -0.166 F 
ATOM     17  F   UNL     1      -0.136  -6.608   1.149  0.00  0.00    -0.166 F 
ENDBRANCH   7  14
BRANCH   7  18
ATOM     18  C   UNL     1      -1.230  -5.713  -1.256  0.00  0.00    +0.440 C 
ATOM     19  F   UNL     1      -0.146  -6.597  -1.209  0.00  0.00    -0.166 F 
ATOM     20  F   UNL     1      -2.424  -6.441  -1.287  0.00  0.00    -0.166 F 
ATOM     21  F   UNL     1      -1.136  -4.922  -2.406  0.00  0.00    -0.166 F 
ENDBRANCH   7  18
TORSDOF 2
