REMARK  Name = ZINC03262532
REMARK  3 active torsions:
REMARK  status: ('A' for Active; 'I' for Inactive)
REMARK    1  A    between atoms: C_6  and  C_7
REMARK    2  A    between atoms: C_13  and  S_20
REMARK    3  A    between atoms: S_20  and  N_23
REMARK                            x       y       z     vdW  Elec       q    Type
REMARK                         _______ _______ _______ _____ _____    ______ ____
ROOT
ATOM      1  C   UNL     1       3.826  -2.011  -0.424  0.00  0.00    +0.191 C 
ATOM      2  N   UNL     1       3.639  -0.630   0.012  0.00  0.00    -0.322 N 
ATOM      3  C   UNL     1       2.406   0.018  -0.005  0.00  0.00    +0.057 A 
ATOM      4  C   UNL     1       2.380   1.412  -0.006  0.00  0.00    +0.047 A 
ATOM      5  C   UNL     1       1.175   2.084   0.002  0.00  0.00    +0.069 A 
ATOM      6  C   UNL     1      -0.017   1.379   0.010  0.00  0.00    +0.125 A 
ATOM      7  C   UNL     1       0.002  -0.004   0.002  0.00  0.00    +0.060 A 
ATOM      8  C   UNL     1       1.205  -0.678  -0.007  0.00  0.00    +0.128 A 
ATOM      9  S   UNL     1       1.223  -2.446  -0.035  0.00  0.00    +0.062 S 
ATOM     10  O   UNL     1       0.478  -2.886   1.093  0.00  0.00    -0.153 OA
ATOM     11  O   UNL     1       0.916  -2.844  -1.364  0.00  0.00    -0.153 OA
ATOM     12  N   UNL     1       2.816  -2.858   0.242  0.00  0.00    -0.166 NA
ATOM     13 CL   UNL     1       1.152   3.820   0.003  0.00  0.00    -0.081 Cl
ATOM     14  H   UNL     1       4.412  -0.138   0.330  0.00  0.00    +0.148 HD
ATOM     15  H   UNL     1       3.063  -3.609   0.804  0.00  0.00    +0.150 HD
ENDROOT
BRANCH   1  21
ATOM     16  C   UNL     1       3.166  -3.260  -2.490  0.00  0.00    +0.008 A 
ATOM     17  C   UNL     1       3.004  -3.341  -3.860  0.00  0.00    +0.020 A 
ATOM     18  C   UNL     1       3.342  -2.264  -4.661  0.00  0.00    +0.041 A 
ATOM     19  C   UNL     1       3.837  -1.106  -4.089  0.00  0.00    +0.020 A 
ATOM     20  C   UNL     1       3.993  -1.025  -2.718  0.00  0.00    +0.008 A 
ATOM     21  C   UNL     1       3.655  -2.100  -1.919  0.00  0.00    -0.011 A 
ATOM     22 CL   UNL     1       3.145  -2.367  -6.383  0.00  0.00    -0.084 Cl
ENDBRANCH   1  21
BRANCH   6  23
ATOM     23  S   UNL     1      -1.553   2.241   0.022  0.00  0.00    +0.057 S 
ATOM     24  O   UNL     1      -1.474   3.227  -0.999  0.00  0.00    -0.153 OA
ATOM     25  O   UNL     1      -2.574   1.252   0.048  0.00  0.00    -0.153 OA
BRANCH  23  26
ATOM     26  N   UNL     1      -1.646   3.056   1.460  0.00  0.00    -0.203 NA
ATOM     27  H   UNL     1      -2.139   3.889   1.514  0.00  0.00    +0.144 HD
ATOM     28  H   UNL     1      -1.207   2.700   2.249  0.00  0.00    +0.144 HD
ENDBRANCH  23  26
ENDBRANCH   6  23
TORSDOF 3
