REMARK  Name = ZINC09383336
REMARK  8 active torsions:
REMARK  status: ('A' for Active; 'I' for Inactive)
REMARK    1  A    between atoms: C_1  and  C_2
REMARK    2  A    between atoms: C_2  and  N_53
REMARK    3  A    between atoms: C_8  and  N_14
REMARK    4  A    between atoms: C_9  and  C_10
REMARK    5  A    between atoms: C_10  and  O_12
REMARK    6  A    between atoms: O_12  and  C_13
REMARK    7  A    between atoms: C_15  and  C_17
REMARK    8  A    between atoms: C_20  and  C_22
REMARK                            x       y       z     vdW  Elec       q    Type
REMARK                         _______ _______ _______ _____ _____    ______ ____
ROOT
ATOM      1  N   UNL     1       0.002  -0.004   0.002  0.00  0.00    -0.275 N 
ATOM      2  C   UNL     1      -1.156  -0.694   0.009  0.00  0.00    +0.255 C 
ATOM      3  O   UNL     1      -2.218  -0.100   0.023  0.00  0.00    -0.269 OA
ATOM      4  H   UNL     1       0.849  -0.478  -0.009  0.00  0.00    +0.156 HD
ENDROOT
BRANCH   1  10
ATOM      5  C   UNL     1       1.136   6.087  -0.419  0.00  0.00    -0.074 C 
ATOM      6  C   UNL     1       1.816   4.782   0.007  0.00  0.00    +0.018 C 
ATOM      7  C   UNL     1       0.764   3.679   0.014  0.00  0.00    -0.025 A 
ATOM      8  C   UNL     1      -0.550   3.995   0.029  0.00  0.00    -0.021 A 
ATOM      9  S   UNL     1      -1.389   2.438   0.021  0.00  0.00    -0.079 S 
ATOM     10  C   UNL     1      -0.017   1.380   0.010  0.00  0.00    +0.086 A 
ATOM     11  C   UNL     1       1.061   2.259   0.004  0.00  0.00    +0.091 A 
ATOM     12  C   UNL     1      -1.132   5.374   0.045  0.00  0.00    -0.035 C 
ATOM     13  N   UNL     1      -0.053   6.318   0.426  0.00  0.00    +0.383 N 
ATOM     14  H   UNL     1       0.198   6.158   1.409  0.00  0.00    -0.081 HD
BRANCH  13  16
ATOM     15  C   UNL     1      -0.806   8.018  -1.202  0.00  0.00    -0.017 C 
ATOM     16  C   UNL     1      -0.522   7.712   0.270  0.00  0.00    -0.082 C 
ENDBRANCH  13  16
BRANCH  11  17
ATOM     17  C   UNL     1       2.441   1.770  -0.012  0.00  0.00    +0.342 C 
ATOM     18  O   UNL     1       3.004   1.572  -1.072  0.00  0.00    -0.245 OA
BRANCH  17  19
ATOM     19  O   UNL     1       3.088   1.538   1.149  0.00  0.00    -0.464 OA
ATOM     20  C   UNL     1       4.454   1.054   1.057  0.00  0.00    +0.280 C 
ENDBRANCH  17  19
ENDBRANCH  11  17
ENDBRANCH   1  10
BRANCH   2  21
ATOM     21  C   UNL     1      -1.136  -2.160   0.001  0.00  0.00    +0.075 A 
ATOM     22  C   UNL     1      -2.204  -3.046   0.012  0.00  0.00    +0.021 A 
ATOM     23  C   UNL     1      -1.944  -4.387  -0.003  0.00  0.00    +0.019 A 
ATOM     24  C   UNL     1      -0.622  -4.810  -0.018  0.00  0.00    +0.045 A 
ATOM     25  S   UNL     1       0.268  -3.262  -0.017  0.00  0.00    -0.082 S 
BRANCH  24  26
ATOM     26  C   UNL     1      -0.090  -6.182  -0.029  0.00  0.00    +0.116 A 
ATOM     27  N   UNL     1       1.164  -6.583  -0.043  0.00  0.00    -0.239 NA
ATOM     28  C   UNL     1       1.509  -7.878  -0.053  0.00  0.00    +0.079 A 
ATOM     29  C   UNL     1       2.811  -8.437  -0.067  0.00  0.00    +0.029 A 
ATOM     30  C   UNL     1       2.991  -9.784  -0.076  0.00  0.00    +0.002 A 
ATOM     31  C   UNL     1       1.917 -10.664  -0.071  0.00  0.00    +0.001 A 
ATOM     32  C   UNL     1       0.630 -10.161  -0.056  0.00  0.00    +0.017 A 
ATOM     33  C   UNL     1       0.435  -8.802  -0.048  0.00  0.00    +0.040 A 
ATOM     34  S   UNL     1      -0.982  -7.731  -0.021  0.00  0.00    -0.067 S 
ENDBRANCH  24  26
ENDBRANCH   2  21
TORSDOF 6
