REMARK  Name = ZINC55843543
REMARK  9 active torsions:
REMARK  status: ('A' for Active; 'I' for Inactive)
REMARK    1  A    between atoms: C_1  and  C_2
REMARK    2  A    between atoms: C_2  and  C_3
REMARK    3  A    between atoms: C_2  and  O_4
REMARK    4  A    between atoms: O_4  and  C_5
REMARK    5  A    between atoms: C_10  and  N_11
REMARK    6  A    between atoms: N_11  and  C_12
REMARK    7  A    between atoms: C_12  and  C_13
REMARK    8  A    between atoms: N_18  and  C_19
REMARK    9  A    between atoms: C_19  and  C_20
REMARK                            x       y       z     vdW  Elec       q    Type
REMARK                         _______ _______ _______ _____ _____    ______ ____
ROOT
ATOM      1  C   UNL     1      -5.311  -1.943  -0.337  0.00  0.00    +0.198 C 
ENDROOT
BRANCH   1   2
ATOM      2  C   UNL     1      -6.259  -1.026   0.392  0.00  0.00    +0.237 C 
ATOM      3  O   UNL     1      -5.834  -0.044   0.962  0.00  0.00    -0.274 OA
ATOM      4  N   UNL     1      -7.579  -1.297   0.410  0.00  0.00    -0.239 N 
ATOM      5  C   UNL     1      -8.427  -0.477   1.062  0.00  0.00    +0.306 C 
ATOM      6  O   UNL     1      -8.001   0.507   1.633  0.00  0.00    -0.252 OA
ATOM      7  N   UNL     1      -9.747  -0.748   1.080  0.00  0.00    -0.291 N 
ATOM      8  H   UNL     1      -7.919  -2.083  -0.046  0.00  0.00    +0.159 HD
ATOM      9  H   UNL     1     -10.087  -1.534   0.624  0.00  0.00    +0.151 HD
BRANCH   7  10
ATOM     10  C   UNL     1     -10.668   0.144   1.789  0.00  0.00    +0.219 C 
BRANCH  10  11
ATOM     11  C   UNL     1     -12.097  -0.388   1.655  0.00  0.00    +0.405 C 
ATOM     12  F   UNL     1     -12.171  -1.671   2.208  0.00  0.00    -0.169 F 
ATOM     13  F   UNL     1     -12.976   0.464   2.332  0.00  0.00    -0.169 F 
ATOM     14  F   UNL     1     -12.449  -0.443   0.302  0.00  0.00    -0.169 F 
ENDBRANCH  10  11
ENDBRANCH   7  10
ENDBRANCH   1   2
BRANCH   1  15
ATOM     15  N   UNL     1      -3.944  -1.434  -0.209  0.00  0.00    -0.333 N 
ATOM     16  H   UNL     1      -3.774  -0.620   0.290  0.00  0.00    +0.147 HD
BRANCH  15  22
ATOM     17  C   UNL     1      -1.580  -1.640  -0.687  0.00  0.00    +0.142 A 
ATOM     18  C   UNL     1      -0.533  -2.329  -1.276  0.00  0.00    +0.047 A 
ATOM     19  C   UNL     1      -0.780  -3.489  -1.987  0.00  0.00    +0.004 A 
ATOM     20  C   UNL     1      -2.072  -3.965  -2.112  0.00  0.00    +0.002 A 
ATOM     21  C   UNL     1      -3.123  -3.284  -1.527  0.00  0.00    +0.026 A 
ATOM     22  C   UNL     1      -2.882  -2.122  -0.808  0.00  0.00    +0.070 A 
BRANCH  17  23
ATOM     23  O   UNL     1      -1.339  -0.499   0.012  0.00  0.00    -0.488 OA
BRANCH  23  25
ATOM     24  C   UNL     1      -0.011   1.505   0.263  0.00  0.00    +0.051 C 
ATOM     25  C   UNL     1       0.001  -0.002  -0.000  0.00  0.00    +0.167 C 
ATOM     26  C   UNL     1       0.815  -0.703   1.089  0.00  0.00    +0.051 C 
ENDBRANCH  23  25
ENDBRANCH  17  23
ENDBRANCH  15  22
ENDBRANCH   1  15
TORSDOF 7
