REMARK  Name = ZINC08980453
REMARK  11 active torsions:
REMARK  status: ('A' for Active; 'I' for Inactive)
REMARK    1  A    between atoms: C_1  and  C_2
REMARK    2  A    between atoms: C_2  and  C_4
REMARK    3  A    between atoms: C_2  and  N_13
REMARK    4  A    between atoms: C_14  and  C_16
REMARK    5  A    between atoms: C_16  and  N_17
REMARK    6  A    between atoms: C_20  and  C_24
REMARK    7  A    between atoms: C_20  and  C_25
REMARK    8  A    between atoms: C_28  and  C_31
REMARK    9  A    between atoms: C_31  and  C_32
REMARK   10  A    between atoms: C_31  and  C_33
REMARK   11  A    between atoms: C_31  and  C_34
REMARK                            x       y       z     vdW  Elec       q    Type
REMARK                         _______ _______ _______ _____ _____    ______ ____
ROOT
ATOM      1  N   UNL     1       1.304  -0.351  -0.012  0.00  0.00    -0.215 N 
ATOM      2  C   UNL     1       0.002  -0.004   0.002  0.00  0.00    +0.251 C 
ATOM      3  O   UNL     1      -0.954  -0.749   0.008  0.00  0.00    -0.272 OA
ATOM      4  C   UNL     1      -0.018   1.512   0.010  0.00  0.00    +0.135 C 
ATOM      5  N   UNL     1       1.409   1.877  -0.001  0.00  0.00    -0.281 N 
ATOM      6  C   UNL     1       2.101   0.724  -0.014  0.00  0.00    +0.310 C 
ATOM      7  O   UNL     1       3.315   0.665  -0.026  0.00  0.00    -0.252 OA
ATOM      8  C   UNL     1      -0.698   2.034   1.278  0.00  0.00    +0.047 C 
ATOM      9  H   UNL     1       1.777   2.775  -0.000  0.00  0.00    +0.152 HD
ENDROOT
BRANCH   4  10
ATOM     10  C   UNL     1      -0.711   2.039  -1.220  0.00  0.00    -0.015 A 
ATOM     11  C   UNL     1      -1.712   1.299  -1.820  0.00  0.00    +0.006 A 
ATOM     12  C   UNL     1      -2.351   1.785  -2.946  0.00  0.00    +0.004 A 
ATOM     13  C   UNL     1      -1.981   3.007  -3.477  0.00  0.00    -0.042 A 
ATOM     14  C   UNL     1      -0.977   3.745  -2.879  0.00  0.00    +0.004 A 
ATOM     15  C   UNL     1      -0.342   3.261  -1.750  0.00  0.00    +0.006 A 
BRANCH  13  16
ATOM     16  C   UNL     1      -2.673   3.534  -4.707  0.00  0.00    -0.013 C 
ATOM     17  C   UNL     1      -1.646   3.733  -5.824  0.00  0.00    +0.015 C 
ATOM     18  C   UNL     1      -3.735   2.532  -5.164  0.00  0.00    +0.015 C 
ATOM     19  C   UNL     1      -3.340   4.872  -4.383  0.00  0.00    +0.015 C 
ENDBRANCH  13  16
ENDBRANCH   4  10
BRANCH   1  20
ATOM     20  C   UNL     1       1.788  -1.734  -0.025  0.00  0.00    +0.213 C 
BRANCH  20  22
ATOM     21  N   UNL     1       2.375  -3.449  -1.708  0.00  0.00    -0.307 N 
ATOM     22  C   UNL     1       1.940  -2.199  -1.450  0.00  0.00    +0.231 C 
ATOM     23  O   UNL     1       1.671  -1.450  -2.365  0.00  0.00    -0.274 OA
ATOM     24  H   UNL     1       2.590  -4.048  -0.976  0.00  0.00    +0.149 HD
BRANCH  21  26
ATOM     25  C   UNL     1       3.892  -3.473  -3.627  0.00  0.00    +0.033 C 
ATOM     26  C   UNL     1       2.523  -3.901  -3.093  0.00  0.00    +0.100 C 
BRANCH  26  27
ATOM     27  C   UNL     1       2.412  -5.403  -3.146  0.00  0.00    -0.024 A 
ATOM     28  C   UNL     1       3.000  -6.173  -2.159  0.00  0.00    +0.009 A 
ATOM     29  C   UNL     1       2.900  -7.551  -2.203  0.00  0.00    +0.050 A 
ATOM     30  C   UNL     1       2.210  -8.164  -3.236  0.00  0.00    +0.166 A 
ATOM     31  C   UNL     1       1.618  -7.389  -4.230  0.00  0.00    +0.167 A 
ATOM     32  C   UNL     1       1.718  -6.008  -4.177  0.00  0.00    +0.055 A 
ATOM     33  O   UNL     1       1.006  -8.219  -5.124  0.00  0.00    -0.453 OA
ATOM     34  C   UNL     1       0.880  -9.485  -4.450  0.00  0.00    +0.466 C 
ATOM     35  O   UNL     1       1.969  -9.480  -3.508  0.00  0.00    -0.453 OA
ENDBRANCH  26  27
ENDBRANCH  21  26
ENDBRANCH  20  22
ENDBRANCH   1  20
TORSDOF 6
