REMARK  Name = ZINC20891454
REMARK  7 active torsions:
REMARK  status: ('A' for Active; 'I' for Inactive)
REMARK    1  A    between atoms: C_1  and  C_2
REMARK    2  A    between atoms: C_4  and  C_37
REMARK    3  A    between atoms: C_11  and  C_13
REMARK    4  A    between atoms: C_19  and  C_26
REMARK    5  A    between atoms: C_29  and  O_32
REMARK    6  A    between atoms: O_32  and  C_33
REMARK    7  A    between atoms: C_33  and  C_34
REMARK                            x       y       z     vdW  Elec       q    Type
REMARK                         _______ _______ _______ _____ _____    ______ ____
ROOT
ATOM      1  C   UNL     1       9.351   2.895   7.349  0.00  0.00    +0.066 C 
ATOM      2  C   UNL     1       8.398   1.748   7.568  0.00  0.00    +0.044 A 
ATOM      3  C   UNL     1       8.771   0.663   8.346  0.00  0.00    +0.046 A 
ATOM      4  C   UNL     1       7.864  -0.370   8.521  0.00  0.00    +0.044 A 
ATOM      5  N   UNL     1       6.676  -0.289   7.944  0.00  0.00    -0.216 NA
ATOM      6  C   UNL     1       6.351   0.761   7.207  0.00  0.00    +0.253 A 
ATOM      7  N   UNL     1       7.196   1.762   7.016  0.00  0.00    -0.216 NA
ATOM      8  N   UNL     1       5.091   0.812   6.615  0.00  0.00    -0.183 N 
ATOM      9  C   UNL     1       4.067  -0.091   6.816  0.00  0.00    +0.137 A 
ATOM     10  C   UNL     1       3.027   0.311   6.058  0.00  0.00    +0.038 A 
ATOM     11  C   UNL     1       3.419   1.496   5.378  0.00  0.00    +0.100 A 
ATOM     12  N   UNL     1       4.650   1.785   5.717  0.00  0.00    -0.162 NA
ATOM     13  C   UNL     1       1.668  -0.291   5.882  0.00  0.00    +0.112 C 
ATOM     14  S   UNL     1       1.669  -2.084   5.967  0.00  0.00    -0.138 S 
ATOM     15  C   UNL     1       2.087  -2.499   7.666  0.00  0.00    +0.166 C 
ATOM     16  C   UNL     1       3.486  -2.172   8.012  0.00  0.00    +0.228 C 
ATOM     17  O   UNL     1       4.035  -2.978   8.734  0.00  0.00    -0.275 OA
ATOM     18  N   UNL     1       4.221  -1.159   7.667  0.00  0.00    -0.269 N 
ATOM     19  C   UNL     1       8.225  -1.569   9.358  0.00  0.00    +0.066 C 
ATOM     20  H   UNL     1       5.154  -1.275   8.239  0.00  0.00    +0.156 HD
ENDROOT
BRANCH  11  21
ATOM     21  C   UNL     1       2.574   2.277   4.440  0.00  0.00    +0.002 A 
ATOM     22  C   UNL     1       3.027   2.549   3.151  0.00  0.00    +0.010 A 
ATOM     23  C   UNL     1       2.235   3.271   2.282  0.00  0.00    +0.001 A 
ATOM     24  C   UNL     1       0.997   3.733   2.691  0.00  0.00    +0.000 A 
ATOM     25  C   UNL     1       0.544   3.470   3.972  0.00  0.00    +0.001 A 
ATOM     26  C   UNL     1       1.326   2.745   4.848  0.00  0.00    +0.010 A 
ENDBRANCH  11  21
BRANCH  13  27
ATOM     27  C   UNL     1       1.123   0.129   4.542  0.00  0.00    -0.030 A 
ATOM     28  C   UNL     1      -0.133   0.702   4.456  0.00  0.00    +0.008 A 
ATOM     29  C   UNL     1      -0.635   1.088   3.228  0.00  0.00    +0.046 A 
ATOM     30  C   UNL     1       0.122   0.900   2.081  0.00  0.00    +0.121 A 
ATOM     31  C   UNL     1       1.379   0.320   2.169  0.00  0.00    +0.046 A 
ATOM     32  C   UNL     1       1.879  -0.059   3.400  0.00  0.00    +0.008 A 
BRANCH  30  33
ATOM     33  O   UNL     1      -0.369   1.279   0.872  0.00  0.00    -0.483 OA
BRANCH  33  34
ATOM     34  C   UNL     1       0.465   1.056  -0.267  0.00  0.00    +0.324 C 
BRANCH  34  35
ATOM     35  C   UNL     1      -0.241   1.535  -1.509  0.00  0.00    +0.248 C 
ATOM     36  O   UNL     1      -1.350   2.020  -1.427  0.00  0.00    -0.272 OA
ATOM     37  N   UNL     1       0.359   1.425  -2.711  0.00  0.00    -0.327 N 
ATOM     38  H   UNL     1      -0.156   1.775  -3.617  0.00  0.00    +0.145 HD
ATOM     39  H   UNL     1       1.365   0.985  -2.785  0.00  0.00    +0.145 HD
ENDBRANCH  34  35
ENDBRANCH  33  34
ENDBRANCH  30  33
ENDBRANCH  13  27
TORSDOF 5
