REMARK  Name = ZINC61601649
REMARK  9 active torsions:
REMARK  status: ('A' for Active; 'I' for Inactive)
REMARK    1  A    between atoms: C_1  and  C_2
REMARK    2  A    between atoms: C_4  and  C_28
REMARK    3  A    between atoms: N_6  and  C_8
REMARK    4  A    between atoms: C_8  and  C_9
REMARK    5  A    between atoms: C_9  and  C_10
REMARK    6  A    between atoms: C_10  and  N_11
REMARK    7  A    between atoms: C_12  and  C_14
REMARK    8  A    between atoms: C_21  and  N_24
REMARK    9  A    between atoms: C_25  and  C_27
REMARK                            x       y       z     vdW  Elec       q    Type
REMARK                         _______ _______ _______ _____ _____    ______ ____
ROOT
ATOM      1  N   UNL     1       0.411  -2.195   6.111  0.00  0.00    -0.315 N 
ATOM      2  C   UNL     1       0.808  -2.535   7.354  0.00  0.00    +0.219 C 
ATOM      3  O   UNL     1       1.838  -3.154   7.513  0.00  0.00    -0.275 OA
ATOM      4  H   UNL     1      -0.413  -1.700   5.983  0.00  0.00    +0.149 HD
ENDROOT
BRANCH   2   5
ATOM      5  C   UNL     1      -0.030  -2.147   8.544  0.00  0.00    +0.049 C 
ATOM      6  C   UNL     1      -1.421  -2.772   8.415  0.00  0.00    +0.020 C 
ATOM      7  C   UNL     1      -2.272  -2.378   9.624  0.00  0.00    -0.008 C 
ATOM      8  C   UNL     1      -2.401  -0.855   9.682  0.00  0.00    +0.007 C 
ATOM      9  C   UNL     1      -1.010  -0.229   9.811  0.00  0.00    -0.008 C 
ATOM     10  C   UNL     1      -0.160  -0.624   8.602  0.00  0.00    +0.020 C 
ATOM     11  C   UNL     1      -0.341  -0.733  11.091  0.00  0.00    +0.029 C 
ATOM     12  C   UNL     1      -0.212  -2.256  11.034  0.00  0.00    +0.036 C 
ATOM     13  C   UNL     1      -1.603  -2.882  10.905  0.00  0.00    +0.029 C 
ATOM     14  C   UNL     1       0.639  -2.651   9.825  0.00  0.00    +0.042 C 
BRANCH  12  15
ATOM     15  N   UNL     1       0.428  -2.739  12.260  0.00  0.00    -0.310 N 
ATOM     16  C   UNL     1      -0.146  -2.506  13.457  0.00  0.00    +0.210 C 
ATOM     17  O   UNL     1      -1.193  -1.897  13.519  0.00  0.00    -0.276 OA
ATOM     18  C   UNL     1       0.513  -3.002  14.718  0.00  0.00    +0.109 C 
ATOM     19  H   UNL     1       1.266  -3.226  12.210  0.00  0.00    +0.149 HD
ENDBRANCH  12  15
ENDBRANCH   2   5
BRANCH   1  20
ATOM     20  C   UNL     1       1.226  -2.573   4.954  0.00  0.00    +0.102 C 
BRANCH  20  21
ATOM     21  C   UNL     1       0.557  -2.069   3.673  0.00  0.00    +0.000 C 
BRANCH  21  22
ATOM     22  C   UNL     1       1.408  -2.463   2.464  0.00  0.00    -0.077 C 
BRANCH  22  28
ATOM     23  C   UNL     1      -0.019   1.526   0.010  0.00  0.00    +0.005 C 
ATOM     24  C   UNL     1       0.002  -0.004   0.002  0.00  0.00    -0.031 C 
ATOM     25  C   UNL     1       0.724  -0.499  -1.255  0.00  0.00    +0.003 C 
ATOM     26  C   UNL     1       0.808  -2.027  -1.215  0.00  0.00    -0.031 C 
ATOM     27  C   UNL     1       1.518  -2.460   0.070  0.00  0.00    -0.076 C 
ATOM     28  N   UNL     1       0.765  -1.980   1.235  0.00  0.00    +0.380 N 
ATOM     29  C   UNL     1       0.742  -0.512   1.241  0.00  0.00    -0.076 C 
ATOM     30  C   UNL     1       1.595  -2.527  -2.428  0.00  0.00    +0.005 C 
ATOM     31  H   UNL     1      -0.180  -2.330   1.191  0.00  0.00    -0.082 HD
ENDBRANCH  22  28
ENDBRANCH  21  22
ENDBRANCH  20  21
ENDBRANCH   1  20
TORSDOF 6
