REMARK  Name = ZINC06321262
REMARK  6 active torsions:
REMARK  status: ('A' for Active; 'I' for Inactive)
REMARK    1  A    between atoms: C_1  and  C_2
REMARK    2  A    between atoms: C_6  and  C_15
REMARK    3  A    between atoms: C_13  and  C_14
REMARK    4  A    between atoms: C_15  and  C_17
REMARK    5  A    between atoms: C_15  and  N_66
REMARK    6  A    between atoms: N_21  and  C_22
REMARK                            x       y       z     vdW  Elec       q    Type
REMARK                         _______ _______ _______ _____ _____    ______ ____
ROOT
ATOM      1  C   UNL     1      -4.986   3.843   0.045  0.00  0.00    +0.039 C 
ENDROOT
BRANCH   1   7
ATOM      2  C   UNL     1       2.471   3.924  -0.002  0.00  0.00    +0.044 C 
ATOM      3  C   UNL     1       1.165   3.172   0.007  0.00  0.00    -0.047 A 
ATOM      4  C   UNL     1      -0.014   3.863   0.021  0.00  0.00    +0.013 A 
ATOM      5  C   UNL     1      -1.226   3.165   0.030  0.00  0.00    -0.001 A 
ATOM      6  C   UNL     1      -2.507   3.874   0.045  0.00  0.00    +0.017 A 
ATOM      7  C   UNL     1      -3.650   3.145   0.035  0.00  0.00    +0.011 A 
ATOM      8  C   UNL     1      -3.594   1.735   0.028  0.00  0.00    +0.251 A 
ATOM      9  O   UNL     1      -4.634   1.099   0.030  0.00  0.00    -0.268 OA
ATOM     10  N   UNL     1      -2.423   1.075   0.019  0.00  0.00    -0.322 N 
ATOM     11  H   UNL     1      -2.420   0.105   0.014  0.00  0.00    +0.169 HD
ATOM     12  C   UNL     1      -1.225   1.757   0.017  0.00  0.00    +0.049 A 
ATOM     13  C   UNL     1      -0.013   1.076   0.008  0.00  0.00    +0.030 A 
ATOM     14  C   UNL     1       1.170   1.784   0.001  0.00  0.00    -0.046 A 
ATOM     15  C   UNL     1       2.482   1.043  -0.015  0.00  0.00    +0.044 C 
ENDBRANCH   1   7
BRANCH   1  22
ATOM     16  C   UNL     1      -5.035   3.464  -2.355  0.00  0.00    -0.077 C 
ATOM     17  C   UNL     1      -5.898   3.253  -3.568  0.00  0.00    -0.019 C 
ATOM     18  C   UNL     1      -6.373   4.631  -4.077  0.00  0.00    -0.002 C 
ATOM     19  C   UNL     1      -7.478   5.159  -3.284  0.00  0.00    -0.002 C 
ATOM     20  C   UNL     1      -7.086   5.370  -1.806  0.00  0.00    -0.019 C 
ATOM     21  C   UNL     1      -7.115   4.037  -1.110  0.00  0.00    -0.077 C 
ATOM     22  N   UNL     1      -5.795   3.320  -1.066  0.00  0.00    +0.389 N 
ATOM     23  H   UNL     1      -5.974   2.322  -0.906  0.00  0.00    -0.080 HD
ENDBRANCH   1  22
BRANCH   1  24
ATOM     24  C   UNL     1      -5.703   3.538   1.335  0.00  0.00    +0.143 A 
ATOM     25  N   UNL     1      -6.298   2.414   1.653  0.00  0.00    -0.115 NA
ATOM     26  N   UNL     1      -6.790   2.544   2.837  0.00  0.00    -0.023 NA
ATOM     27  N   UNL     1      -6.529   3.724   3.280  0.00  0.00    -0.044 NA
ATOM     28  N   UNL     1      -5.861   4.368   2.383  0.00  0.00    -0.227 N 
BRANCH  28  29
ATOM     29  C   UNL     1      -5.365   5.742   2.486  0.00  0.00    +0.111 C 
ATOM     30  C   UNL     1      -4.411   5.853   3.677  0.00  0.00    +0.027 C 
ATOM     31  C   UNL     1      -3.894   7.289   3.785  0.00  0.00    +0.002 C 
ATOM     32  C   UNL     1      -5.074   8.242   3.987  0.00  0.00    +0.000 C 
ATOM     33  C   UNL     1      -6.028   8.132   2.796  0.00  0.00    +0.002 C 
ATOM     34  C   UNL     1      -6.545   6.696   2.688  0.00  0.00    +0.027 C 
ENDBRANCH  28  29
ENDBRANCH   1  24
TORSDOF 4
