REMARK  Name = ZINC36500597
REMARK  16 active torsions:
REMARK  status: ('A' for Active; 'I' for Inactive)
REMARK    1  A    between atoms: C_1  and  C_2
REMARK    2  A    between atoms: C_2  and  C_3
REMARK    3  A    between atoms: C_2  and  C_4
REMARK    4  A    between atoms: C_2  and  N_5
REMARK    5  A    between atoms: C_6  and  C_8
REMARK    6  A    between atoms: C_8  and  C_10
REMARK    7  A    between atoms: C_8  and  N_20
REMARK    8  A    between atoms: C_13  and  O_18
REMARK    9  A    between atoms: C_14  and  O_16
REMARK   10  A    between atoms: O_16  and  C_17
REMARK   11  A    between atoms: O_18  and  C_19
REMARK   12  A    between atoms: N_20  and  C_21
REMARK   13  A    between atoms: C_21  and  C_22
REMARK   14  A    between atoms: C_27  and  C_29
REMARK   15  A    between atoms: C_30  and  O_36
REMARK   16  A    between atoms: C_34  and  O_35
REMARK                            x       y       z     vdW  Elec       q    Type
REMARK                         _______ _______ _______ _____ _____    ______ ____
ROOT
ATOM      1  C   UNL     1       2.493  -0.385  -2.640  0.00  0.00    +0.193 C 
ENDROOT
BRANCH   1   2
ATOM      2  C   UNL     1       2.319  -1.882  -2.641  0.00  0.00    -0.015 A 
ATOM      3  C   UNL     1       3.112  -2.670  -1.828  0.00  0.00    +0.010 A 
ATOM      4  C   UNL     1       2.956  -4.043  -1.826  0.00  0.00    +0.050 A 
ATOM      5  C   UNL     1       2.002  -4.634  -2.640  0.00  0.00    +0.162 A 
ATOM      6  C   UNL     1       1.203  -3.841  -3.458  0.00  0.00    +0.162 A 
ATOM      7  C   UNL     1       1.362  -2.464  -3.452  0.00  0.00    +0.055 A 
BRANCH   6   8
ATOM      8  O   UNL     1       0.266  -4.415  -4.259  0.00  0.00    -0.491 OA
ATOM      9  C   UNL     1      -0.517  -3.539  -5.072  0.00  0.00    +0.277 C 
ENDBRANCH   6   8
BRANCH   5  10
ATOM     10  O   UNL     1       1.848  -5.985  -2.639  0.00  0.00    -0.491 OA
ATOM     11  C   UNL     1       2.703  -6.735  -1.774  0.00  0.00    +0.277 C 
ENDBRANCH   5  10
ENDBRANCH   1   2
BRANCH   1  13
ATOM     12  N   UNL     1       0.584   1.034  -1.962  0.00  0.00    -0.309 N 
ATOM     13  C   UNL     1       1.596   0.224  -1.593  0.00  0.00    +0.239 C 
ATOM     14  O   UNL     1       1.785  -0.015  -0.419  0.00  0.00    -0.273 OA
ATOM     15  H   UNL     1       0.433   1.224  -2.901  0.00  0.00    +0.149 HD
BRANCH  12  17
ATOM     16  C   UNL     1       0.547   2.487   0.004  0.00  0.00    +0.031 C 
ATOM     17  C   UNL     1      -0.289   1.626  -0.945  0.00  0.00    +0.026 C 
ATOM     18  C   UNL     1      -0.976   0.513  -0.152  0.00  0.00    +0.031 C 
ATOM     19  C   UNL     1      -1.347   2.496  -1.625  0.00  0.00    +0.031 C 
ENDBRANCH  12  17
ENDBRANCH   1  13
BRANCH   1  20
ATOM     20  N   UNL     1       3.888  -0.057  -2.338  0.00  0.00    -0.274 N 
ATOM     21  C   UNL     1       4.871  -0.464  -3.166  0.00  0.00    +0.255 C 
ATOM     22  O   UNL     1       4.599  -1.103  -4.164  0.00  0.00    -0.270 OA
BRANCH  21  23
ATOM     23  C   UNL     1       6.273  -0.133  -2.862  0.00  0.00    +0.119 A 
ATOM     24  C   UNL     1       7.053  -1.006  -2.091  0.00  0.00    +0.133 A 
ATOM     25  C   UNL     1       8.372  -0.686  -1.812  0.00  0.00    +0.046 A 
ATOM     26  C   UNL     1       8.919   0.490  -2.291  0.00  0.00    +0.007 A 
ATOM     27  C   UNL     1       8.159   1.358  -3.052  0.00  0.00    +0.046 A 
ATOM     28  C   UNL     1       6.840   1.054  -3.348  0.00  0.00    +0.133 A 
BRANCH  28  29
ATOM     29  O   UNL     1       6.098   1.905  -4.100  0.00  0.00    -0.506 OA
ATOM     30  H   UNL     1       5.625   2.574  -3.587  0.00  0.00    +0.292 HD
ENDBRANCH  28  29
BRANCH  24  31
ATOM     31  O   UNL     1       6.519  -2.160  -1.619  0.00  0.00    -0.506 OA
ATOM     32  H   UNL     1       6.621  -2.914  -2.216  0.00  0.00    +0.292 HD
ENDBRANCH  24  31
ENDBRANCH  21  23
BRANCH  20  33
ATOM     33  C   UNL     1       4.216   0.714  -1.136  0.00  0.00    +0.183 C 
BRANCH  33  34
ATOM     34  C   UNL     1       4.561  -0.229  -0.012  0.00  0.00    +0.122 A 
ATOM     35  C   UNL     1       5.803  -0.563   0.381  0.00  0.00    +0.046 A 
ATOM     36  C   UNL     1       5.662  -1.467   1.459  0.00  0.00    +0.041 A 
ATOM     37  C   UNL     1       4.342  -1.631   1.660  0.00  0.00    +0.195 A 
ATOM     38  O   UNL     1       3.680  -0.874   0.770  0.00  0.00    -0.466 OA
ENDBRANCH  33  34
ENDBRANCH  20  33
ENDBRANCH   1  20
TORSDOF 11
