REMARK  Name = ZINC38681055
REMARK  15 active torsions:
REMARK  status: ('A' for Active; 'I' for Inactive)
REMARK    1  A    between atoms: C_1  and  C_2
REMARK    2  A    between atoms: C_2  and  C_3
REMARK    3  A    between atoms: C_3  and  O_4
REMARK    4  A    between atoms: O_4  and  C_5
REMARK    5  A    between atoms: C_8  and  C_11
REMARK    6  A    between atoms: C_11  and  O_13
REMARK    7  A    between atoms: O_13  and  C_14
REMARK    8  A    between atoms: C_21  and  N_39
REMARK    9  A    between atoms: C_22  and  C_37
REMARK   10  A    between atoms: C_23  and  C_25
REMARK   11  A    between atoms: C_28  and  O_33
REMARK   12  A    between atoms: C_29  and  O_31
REMARK   13  A    between atoms: O_31  and  C_32
REMARK   14  A    between atoms: O_33  and  C_34
REMARK   15  A    between atoms: C_34  and  C_35
REMARK                            x       y       z     vdW  Elec       q    Type
REMARK                         _______ _______ _______ _____ _____    ______ ____
ROOT
ATOM      1  C   UNL     1       4.015  -6.298   6.677  0.00  0.00    +0.135 A 
ATOM      2  C   UNL     1       4.477  -5.423   7.650  0.00  0.00    +0.047 A 
ATOM      3  C   UNL     1       5.109  -5.913   8.775  0.00  0.00    +0.012 A 
ATOM      4  C   UNL     1       5.284  -7.275   8.939  0.00  0.00    +0.008 A 
ATOM      5  C   UNL     1       4.824  -8.155   7.972  0.00  0.00    +0.138 A 
ATOM      6  C   UNL     1       4.184  -7.663   6.841  0.00  0.00    +0.093 A 
ATOM      7  O   UNL     1       4.986  -9.493   8.114  0.00  0.00    -0.441 OA
ATOM      8  C   UNL     1       5.233 -10.013   9.328  0.00  0.00    +0.199 C 
ATOM      9  C   UNL     1       5.703  -9.258  10.349  0.00  0.00    +0.098 C 
ATOM     10  C   UNL     1       5.976  -7.790  10.174  0.00  0.00    +0.098 C 
ENDROOT
BRANCH  10  11
ATOM     11  C   UNL     1       7.461  -7.570  10.042  0.00  0.00    -0.031 A 
ATOM     12  C   UNL     1       8.153  -8.150   8.996  0.00  0.00    +0.008 A 
ATOM     13  C   UNL     1       9.516  -7.952   8.871  0.00  0.00    +0.050 A 
ATOM     14  C   UNL     1      10.190  -7.170   9.795  0.00  0.00    +0.162 A 
ATOM     15  C   UNL     1       9.492  -6.585  10.848  0.00  0.00    +0.162 A 
ATOM     16  C   UNL     1       8.126  -6.785  10.965  0.00  0.00    +0.054 A 
BRANCH  15  17
ATOM     17  O   UNL     1      10.150  -5.817  11.757  0.00  0.00    -0.491 OA
ATOM     18  C   UNL     1       9.369  -5.250  12.811  0.00  0.00    +0.277 C 
ENDBRANCH  15  17
BRANCH  14  19
ATOM     19  O   UNL     1      11.530  -6.974   9.673  0.00  0.00    -0.484 OA
BRANCH  19  20
ATOM     20  C   UNL     1      12.181  -7.604   8.568  0.00  0.00    +0.256 C 
BRANCH  20  21
ATOM     21  C   UNL     1      13.651  -7.277   8.597  0.00  0.00    +0.006 C 
ATOM     22  C   UNL     1      14.537  -8.221   8.397  0.00  0.00    +0.007 C 
ENDBRANCH  20  21
ENDBRANCH  19  20
ENDBRANCH  14  19
ENDBRANCH  10  11
BRANCH   8  23
ATOM     23  N   UNL     1       5.001 -11.349   9.540  0.00  0.00    -0.328 N 
ATOM     24  H   UNL     1       4.665 -11.903   8.819  0.00  0.00    +0.145 HD
ATOM     25  H   UNL     1       5.175 -11.739  10.411  0.00  0.00    +0.145 HD
ENDBRANCH   8  23
BRANCH   9  26
ATOM     26  C   UNL     1       5.947  -9.870  11.620  0.00  0.00    +0.101 C 
ATOM     27  N   UNL     1       6.140 -10.355  12.629  0.00  0.00    -0.191 NA
ENDBRANCH   9  26
BRANCH   1  28
ATOM     28  O   UNL     1       3.392  -5.817   5.569  0.00  0.00    -0.422 OA
BRANCH  28  29
ATOM     29  C   UNL     1       2.049  -5.906   5.510  0.00  0.00    +0.344 C 
ATOM     30  O   UNL     1       1.438  -6.483   6.388  0.00  0.00    -0.245 OA
BRANCH  29  34
ATOM     31  C   UNL     1      -0.051  -4.166   2.256  0.00  0.00    +0.121 A 
ATOM     32  C   UNL     1      -0.751  -4.826   3.259  0.00  0.00    +0.046 A 
ATOM     33  C   UNL     1      -0.074  -5.392   4.316  0.00  0.00    +0.018 A 
ATOM     34  C   UNL     1       1.319  -5.301   4.380  0.00  0.00    +0.060 A 
ATOM     35  C   UNL     1       2.019  -4.637   3.369  0.00  0.00    +0.018 A 
ATOM     36  C   UNL     1       1.335  -4.079   2.312  0.00  0.00    +0.046 A 
BRANCH  31  37
ATOM     37  O   UNL     1      -0.722  -3.609   1.216  0.00  0.00    -0.492 OA
BRANCH  37  38
ATOM     38  C   UNL     1      -2.146  -3.736   1.221  0.00  0.00    +0.229 C 
BRANCH  38  40
ATOM     39  C   UNL     1      -4.246  -3.187  -0.016  0.00  0.00    +0.007 C 
ATOM     40  C   UNL     1      -2.722  -3.052  -0.021  0.00  0.00    +0.038 C 
ENDBRANCH  38  40
ENDBRANCH  37  38
ENDBRANCH  31  37
ENDBRANCH  29  34
ENDBRANCH  28  29
ENDBRANCH   1  28
TORSDOF 13
