REMARK  Name = ZINC36007229
REMARK  3 active torsions:
REMARK  status: ('A' for Active; 'I' for Inactive)
REMARK    1  A    between atoms: C_4  and  N_7
REMARK    2  A    between atoms: C_8  and  C_10
REMARK    3  A    between atoms: C_14  and  N_15
REMARK                            x       y       z     vdW  Elec       q    Type
REMARK                         _______ _______ _______ _____ _____    ______ ____
ROOT
ATOM      1  C   UNL     1       4.290  -2.042  -3.617  0.00  0.00    +0.069 A 
ATOM      2  C   UNL     1       5.714  -1.773  -3.716  0.00  0.00    -0.023 A 
ATOM      3  C   UNL     1       6.280  -2.208  -4.863  0.00  0.00    -0.004 A 
ATOM      4  S   UNL     1       4.951  -2.948  -5.766  0.00  0.00    -0.077 S 
ATOM      5  C   UNL     1       3.695  -2.702  -4.679  0.00  0.00    +0.094 A 
ATOM      6  C   UNL     1       7.718  -2.080  -5.262  0.00  0.00    +0.043 C 
ATOM      7  C   UNL     1       8.383  -1.047  -4.341  0.00  0.00    +0.005 C 
ATOM      8  C   UNL     1       8.016  -1.368  -2.889  0.00  0.00    +0.005 C 
ATOM      9  C   UNL     1       6.535  -1.067  -2.647  0.00  0.00    +0.037 C 
ENDROOT
BRANCH   5  10
ATOM     10  N   UNL     1       2.361  -3.074  -4.815  0.00  0.00    -0.203 N 
ATOM     11  C   UNL     1       1.909  -4.284  -4.469  0.00  0.00    +0.233 C 
ATOM     12  O   UNL     1       2.586  -5.178  -4.007  0.00  0.00    -0.274 OA
ATOM     13  C   UNL     1       0.425  -4.365  -4.741  0.00  0.00    +0.119 C 
ATOM     14  C   UNL     1       0.197  -5.316  -5.953  0.00  0.00    +0.131 C 
ATOM     15  C   UNL     1      -1.349  -5.394  -6.132  0.00  0.00    +0.035 C 
ATOM     16  C   UNL     1      -1.697  -4.003  -6.721  0.00  0.00    +0.035 C 
ATOM     17  C   UNL     1      -0.306  -3.307  -6.806  0.00  0.00    +0.131 C 
ATOM     18  C   UNL     1       0.090  -2.956  -5.317  0.00  0.00    +0.119 C 
ATOM     19  C   UNL     1       1.426  -2.248  -5.297  0.00  0.00    +0.233 C 
ATOM     20  O   UNL     1       1.620  -1.109  -5.664  0.00  0.00    -0.274 OA
ATOM     21  O   UNL     1       0.588  -4.455  -7.072  0.00  0.00    -0.372 OA
ENDBRANCH   5  10
BRANCH   1  23
ATOM     22  N   UNL     1       2.853  -0.465  -2.437  0.00  0.00    -0.308 N 
ATOM     23  C   UNL     1       3.517  -1.638  -2.438  0.00  0.00    +0.247 C 
ATOM     24  O   UNL     1       3.474  -2.362  -1.461  0.00  0.00    -0.270 OA
ATOM     25  H   UNL     1       2.825   0.077  -3.242  0.00  0.00    +0.149 HD
BRANCH  22  29
ATOM     26  C   UNL     1      -0.025   1.413   0.091  0.00  0.00    +0.000 C 
ATOM     27  C   UNL     1       1.387   2.000   0.042  0.00  0.00    +0.002 C 
ATOM     28  C   UNL     1       2.094   1.521  -1.228  0.00  0.00    +0.022 C 
ATOM     29  C   UNL     1       2.176  -0.006  -1.221  0.00  0.00    +0.073 C 
ATOM     30  C   UNL     1       0.764  -0.593  -1.172  0.00  0.00    +0.022 C 
ATOM     31  C   UNL     1       0.057  -0.115   0.098  0.00  0.00    +0.002 C 
ENDBRANCH  22  29
ENDBRANCH   1  23
TORSDOF 3
