REMARK  Name = ZINC52541520
REMARK  9 active torsions:
REMARK  status: ('A' for Active; 'I' for Inactive)
REMARK    1  A    between atoms: C_1  and  C_2
REMARK    2  A    between atoms: C_2  and  C_3
REMARK    3  A    between atoms: C_2  and  C_4
REMARK    4  A    between atoms: C_2  and  N_37
REMARK    5  A    between atoms: N_6  and  C_7
REMARK    6  A    between atoms: C_7  and  C_9
REMARK    7  A    between atoms: C_7  and  C_19
REMARK    8  A    between atoms: C_9  and  C_10
REMARK    9  A    between atoms: C_34  and  O_36
REMARK                            x       y       z     vdW  Elec       q    Type
REMARK                         _______ _______ _______ _____ _____    ______ ____
ROOT
ATOM      1  C   UNL     1      -3.465  -1.164  -1.134  0.00  0.00    +0.163 C 
ENDROOT
BRANCH   1   2
ATOM      2  C   UNL     1      -3.485  -2.550  -0.541  0.00  0.00    +0.236 C 
ATOM      3  O   UNL     1      -2.564  -2.925   0.155  0.00  0.00    -0.274 OA
ATOM      4  N   UNL     1      -4.525  -3.372  -0.783  0.00  0.00    -0.300 N 
ATOM      5  C   UNL     1      -5.643  -2.933  -1.629  0.00  0.00    +0.109 C 
ATOM      6  C   UNL     1      -5.845  -3.959  -2.749  0.00  0.00    +0.033 C 
ATOM      7  C   UNL     1      -6.012  -5.348  -2.139  0.00  0.00    +0.025 C 
ATOM      8  C   UNL     1      -4.772  -5.735  -1.337  0.00  0.00    +0.033 C 
ATOM      9  C   UNL     1      -4.558  -4.724  -0.211  0.00  0.00    +0.109 C 
ATOM     10  C   UNL     1      -6.278  -6.368  -3.220  0.00  0.00    -0.035 A 
ATOM     11  C   UNL     1      -5.413  -6.989  -4.106  0.00  0.00    +0.004 A 
ATOM     12  C   UNL     1      -5.894  -7.904  -5.022  0.00  0.00    +0.000 A 
ATOM     13  C   UNL     1      -7.244  -8.202  -5.055  0.00  0.00    +0.000 A 
ATOM     14  C   UNL     1      -8.108  -7.585  -4.173  0.00  0.00    +0.004 A 
ATOM     15  C   UNL     1      -7.628  -6.667  -3.253  0.00  0.00    -0.041 A 
ATOM     16  C   UNL     1      -8.356  -5.867  -2.194  0.00  0.00    +0.067 C 
ATOM     17  C   UNL     1      -7.255  -5.376  -1.230  0.00  0.00    +0.129 C 
BRANCH  17  18
ATOM     18  O   UNL     1      -7.075  -6.297  -0.152  0.00  0.00    -0.391 OA
ATOM     19  H   UNL     1      -7.831  -6.351   0.449  0.00  0.00    +0.210 HD
ENDBRANCH  17  18
ENDBRANCH   1   2
BRANCH   1  22
ATOM     20  C   UNL     1      -1.412  -0.526   0.013  0.00  0.00    +0.202 C 
ATOM     21  O   UNL     1      -1.939  -0.827   1.062  0.00  0.00    -0.277 OA
ATOM     22  N   UNL     1      -2.090  -0.657  -1.144  0.00  0.00    -0.305 N 
ATOM     23  H   UNL     1      -1.669  -0.416  -1.984  0.00  0.00    +0.149 HD
BRANCH  20  25
ATOM     24  C   UNL     1      -0.019   1.526   0.010  0.00  0.00    -0.001 C 
ATOM     25  C   UNL     1       0.002  -0.004   0.002  0.00  0.00    +0.001 C 
ATOM     26  C   UNL     1       0.742  -0.511   1.242  0.00  0.00    -0.001 C 
BRANCH  25  27
ATOM     27  N   UNL     1       0.690  -0.478  -1.207  0.00  0.00    +0.387 N 
ATOM     28  H   UNL     1       1.636  -0.129  -1.214  0.00  0.00    -0.089 HD
ATOM     29  H   UNL     1       0.703  -1.487  -1.212  0.00  0.00    -0.089 HD
ATOM     30  H   UNL     1       0.202  -0.144  -2.024  0.00  0.00    -0.089 HD
ENDBRANCH  25  27
ENDBRANCH  20  25
ENDBRANCH   1  22
BRANCH   1  31
ATOM     31  C   UNL     1      -4.344  -0.237  -0.293  0.00  0.00    +0.065 C 
BRANCH  31  32
ATOM     32  C   UNL     1      -4.423   1.115  -0.954  0.00  0.00    -0.039 C 
ATOM     33  C   UNL     1      -5.391   1.557  -1.789  0.00  0.00    -0.001 A 
ATOM     34  C   UNL     1      -6.612   0.934  -2.313  0.00  0.00    +0.010 A 
ATOM     35  C   UNL     1      -7.402   1.643  -3.152  0.00  0.00    +0.001 A 
ATOM     36  C   UNL     1      -7.083   2.954  -3.533  0.00  0.00    +0.002 A 
ATOM     37  C   UNL     1      -5.979   3.593  -3.092  0.00  0.00    +0.026 A 
ATOM     38  C   UNL     1      -5.077   2.943  -2.205  0.00  0.00    +0.043 A 
ATOM     39  N   UNL     1      -3.959   3.342  -1.649  0.00  0.00    -0.380 N 
ATOM     40  C   UNL     1      -3.440   2.256  -0.811  0.00  0.00    +0.144 C 
ATOM     41  H   UNL     1      -3.547   4.212  -1.769  0.00  0.00    +0.160 HD
ENDBRANCH  31  32
ENDBRANCH   1  31
TORSDOF 7
