REMARK  Name = ZINC35780815
REMARK  16 active torsions:
REMARK  status: ('A' for Active; 'I' for Inactive)
REMARK    1  A    between atoms: C_1  and  C_2
REMARK    2  A    between atoms: N_8  and  C_9
REMARK    3  A    between atoms: C_10  and  C_20
REMARK    4  A    between atoms: C_11  and  C_14
REMARK    5  A    between atoms: C_20  and  N_21
REMARK    6  A    between atoms: N_21  and  C_22
REMARK    7  A    between atoms: N_21  and  C_35
REMARK    8  A    between atoms: C_22  and  C_23
REMARK    9  A    between atoms: C_23  and  C_25
REMARK   10  A    between atoms: C_23  and  O_34
REMARK   11  A    between atoms: C_25  and  O_26
REMARK   12  A    between atoms: O_26  and  C_27
REMARK   13  A    between atoms: C_27  and  C_28
REMARK   14  A    between atoms: C_35  and  C_36
REMARK   15  A    between atoms: C_36  and  C_37
REMARK   16  A    between atoms: C_36  and  C_38
REMARK                            x       y       z     vdW  Elec       q    Type
REMARK                         _______ _______ _______ _____ _____    ______ ____
ROOT
ATOM      1  C   UNL     1       3.050  -1.202   4.045  0.00  0.00    -0.035 C 
ENDROOT
BRANCH   1   3
ATOM      2  C   UNL     1       3.431  -0.291   6.399  0.00  0.00    +0.222 A 
ATOM      3  C   UNL     1       2.806  -1.126   5.530  0.00  0.00    +0.025 A 
ATOM      4  C   UNL     1       1.889  -1.909   6.262  0.00  0.00    +0.117 A 
ATOM      5  N   UNL     1       1.968  -1.550   7.522  0.00  0.00    -0.076 NA
ATOM      6  O   UNL     1       2.943  -0.530   7.628  0.00  0.00    -0.339 OA
BRANCH   2  13
ATOM      7  C   UNL     1       5.970  -1.022   6.967  0.00  0.00    +0.028 C 
ATOM      8  C   UNL     1       5.827   0.326   6.257  0.00  0.00    +0.073 C 
ATOM      9  C   UNL     1       6.472   1.424   7.108  0.00  0.00    +0.022 C 
ATOM     10  C   UNL     1       6.205   2.786   6.463  0.00  0.00    +0.003 C 
ATOM     11  C   UNL     1       4.697   3.040   6.409  0.00  0.00    +0.019 C 
ATOM     12  C   UNL     1       4.031   1.960   5.551  0.00  0.00    +0.108 C 
ATOM     13  N   UNL     1       4.403   0.638   6.077  0.00  0.00    -0.296 N 
ENDBRANCH   2  13
BRANCH   4  14
ATOM     14  C   UNL     1       0.994  -2.954   5.705  0.00  0.00    +0.004 A 
ATOM     15  C   UNL     1       0.275  -2.708   4.537  0.00  0.00    +0.010 A 
ATOM     16  C   UNL     1      -0.556  -3.683   4.023  0.00  0.00    +0.001 A 
ATOM     17  C   UNL     1      -0.676  -4.902   4.665  0.00  0.00    +0.000 A 
ATOM     18  C   UNL     1       0.036  -5.151   5.825  0.00  0.00    +0.001 A 
ATOM     19  C   UNL     1       0.874  -4.185   6.345  0.00  0.00    +0.010 A 
ENDBRANCH   4  14
ENDBRANCH   1   3
BRANCH   1  20
ATOM     20  N   UNL     1       4.199  -2.079   3.781  0.00  0.00    +0.384 N 
ATOM     21  H   UNL     1       5.006  -1.734   4.279  0.00  0.00    -0.081 HD
BRANCH  20  22
ATOM     22  C   UNL     1       3.889  -3.441   4.234  0.00  0.00    -0.044 C 
BRANCH  22  23
ATOM     23  C   UNL     1       5.147  -4.308   4.141  0.00  0.00    +0.124 C 
BRANCH  23  24
ATOM     24  O   UNL     1       5.488  -4.506   2.768  0.00  0.00    -0.391 OA
ATOM     25  H   UNL     1       4.799  -4.947   2.251  0.00  0.00    +0.210 HD
ENDBRANCH  23  24
BRANCH  23  26
ATOM     26  C   UNL     1       4.883  -5.662   4.802  0.00  0.00    +0.189 C 
BRANCH  26  27
ATOM     27  O   UNL     1       6.090  -6.427   4.819  0.00  0.00    -0.373 OA
BRANCH  27  28
ATOM     28  C   UNL     1       5.953  -7.716   5.419  0.00  0.00    +0.195 C 
BRANCH  28  29
ATOM     29  C   UNL     1       7.279  -8.431   5.383  0.00  0.00    -0.022 A 
ATOM     30  C   UNL     1       7.610  -9.221   4.297  0.00  0.00    +0.006 A 
ATOM     31  C   UNL     1       8.826  -9.876   4.264  0.00  0.00    +0.000 A 
ATOM     32  C   UNL     1       9.713  -9.742   5.316  0.00  0.00    +0.000 A 
ATOM     33  C   UNL     1       9.383  -8.952   6.402  0.00  0.00    +0.000 A 
ATOM     34  C   UNL     1       8.168  -8.293   6.433  0.00  0.00    +0.006 A 
ENDBRANCH  28  29
ENDBRANCH  27  28
ENDBRANCH  26  27
ENDBRANCH  23  26
ENDBRANCH  22  23
ENDBRANCH  20  22
BRANCH  20  35
ATOM     35  C   UNL     1       4.482  -2.094   2.340  0.00  0.00    -0.075 C 
BRANCH  35  36
ATOM     36  C   UNL     1       4.830  -0.679   1.873  0.00  0.00    -0.034 C 
ATOM     37  C   UNL     1       6.123  -0.222   2.550  0.00  0.00    +0.005 C 
ATOM     38  C   UNL     1       5.020  -0.675   0.355  0.00  0.00    +0.005 C 
ENDBRANCH  35  36
ENDBRANCH  20  35
ENDBRANCH   1  20
TORSDOF 13
