REMARK  Name = ZINC16603829
REMARK  13 active torsions:
REMARK  status: ('A' for Active; 'I' for Inactive)
REMARK    1  A    between atoms: C_1  and  C_2
REMARK    2  A    between atoms: C_2  and  O_3
REMARK    3  A    between atoms: O_3  and  C_4
REMARK    4  A    between atoms: C_4  and  C_6
REMARK    5  A    between atoms: C_7  and  C_35
REMARK    6  A    between atoms: N_8  and  C_21
REMARK    7  A    between atoms: C_12  and  C_14
REMARK    8  A    between atoms: C_21  and  C_22
REMARK    9  A    between atoms: N_24  and  C_25
REMARK   10  A    between atoms: C_25  and  C_26
REMARK   11  A    between atoms: C_26  and  C_27
REMARK   12  A    between atoms: C_27  and  N_70
REMARK   13  A    between atoms: C_32  and  C_34
REMARK                            x       y       z     vdW  Elec       q    Type
REMARK                         _______ _______ _______ _____ _____    ______ ____
ROOT
ATOM      1  C   UNL     1      -0.619   1.140   5.138  0.00  0.00    +0.061 C 
ATOM      2  C   UNL     1      -0.845   1.164   6.462  0.00  0.00    +0.021 C 
ATOM      3  N   UNL     1       0.021   0.570   7.341  0.00  0.00    -0.266 N 
ATOM      4  C   UNL     1       0.970  -0.282   6.912  0.00  0.00    +0.221 C 
ATOM      5  O   UNL     1       1.784  -0.723   7.694  0.00  0.00    -0.275 OA
ATOM      6  C   UNL     1       1.024  -0.690   5.462  0.00  0.00    +0.109 C 
ATOM      7  C   UNL     1       0.629   0.501   4.585  0.00  0.00    +0.066 C 
ATOM      8  C   UNL     1      -2.077   1.853   6.989  0.00  0.00    +0.061 C 
ENDROOT
BRANCH   7   9
ATOM      9  C   UNL     1       1.748   1.511   4.576  0.00  0.00    -0.039 A 
ATOM     10  C   UNL     1       1.712   2.591   5.438  0.00  0.00    +0.005 A 
ATOM     11  C   UNL     1       2.740   3.514   5.434  0.00  0.00    +0.020 A 
ATOM     12  C   UNL     1       3.802   3.362   4.560  0.00  0.00    +0.041 A 
ATOM     13  C   UNL     1       3.836   2.284   3.694  0.00  0.00    +0.020 A 
ATOM     14  C   UNL     1       2.809   1.359   3.702  0.00  0.00    +0.005 A 
ATOM     15 CL   UNL     1       5.091   4.525   4.549  0.00  0.00    -0.084 Cl
ENDBRANCH   7   9
BRANCH   1  16
ATOM     16  C   UNL     1      -1.557   1.725   4.255  0.00  0.00    +0.337 C 
ATOM     17  O   UNL     1      -2.620   2.135   4.682  0.00  0.00    -0.245 OA
BRANCH  16  18
ATOM     18  O   UNL     1      -1.274   1.828   2.940  0.00  0.00    -0.462 OA
BRANCH  18  20
ATOM     19  C   UNL     1      -1.770   2.457   0.660  0.00  0.00    +0.048 C 
ATOM     20  C   UNL     1      -2.267   2.428   2.107  0.00  0.00    +0.229 C 
ENDBRANCH  18  20
ENDBRANCH  16  18
ENDBRANCH   1  16
BRANCH   3  21
ATOM     21  C   UNL     1      -0.085   0.871   8.771  0.00  0.00    +0.209 C 
BRANCH  21  22
ATOM     22  C   UNL     1       0.671   2.139   9.074  0.00  0.00    +0.231 C 
ATOM     23  O   UNL     1       1.327   2.676   8.207  0.00  0.00    -0.274 OA
ATOM     24  N   UNL     1       0.617   2.676  10.309  0.00  0.00    -0.314 N 
ATOM     25  H   UNL     1       0.092   2.247  11.002  0.00  0.00    +0.149 HD
BRANCH  24  26
ATOM     26  C   UNL     1       1.351   3.909  10.604  0.00  0.00    +0.102 C 
BRANCH  26  27
ATOM     27  C   UNL     1       1.123   4.302  12.065  0.00  0.00    +0.000 C 
BRANCH  27  28
ATOM     28  C   UNL     1       1.890   5.589  12.374  0.00  0.00    -0.077 C 
BRANCH  28  35
ATOM     29  C   UNL     1       1.816   4.804  14.662  0.00  0.00    -0.078 C 
ATOM     30  C   UNL     1       1.440   5.200  16.092  0.00  0.00    -0.019 C 
ATOM     31  C   UNL     1       2.351   6.339  16.558  0.00  0.00    -0.003 C 
ATOM     32  C   UNL     1       2.216   7.519  15.591  0.00  0.00    -0.016 C 
ATOM     33  C   UNL     1       2.571   7.055  14.176  0.00  0.00    -0.072 C 
ATOM     34  C   UNL     1       2.418   8.226  13.203  0.00  0.00    -0.013 C 
ATOM     35  N   UNL     1       1.642   5.976  13.778  0.00  0.00    +0.381 N 
ATOM     36  H   UNL     1       0.678   6.317  13.864  0.00  0.00    -0.081 HD
ENDBRANCH  28  35
ENDBRANCH  27  28
ENDBRANCH  26  27
ENDBRANCH  24  26
ENDBRANCH  21  22
ENDBRANCH   3  21
TORSDOF 10
