REMARK  Name = ZINC56162844
REMARK  6 active torsions:
REMARK  status: ('A' for Active; 'I' for Inactive)
REMARK    1  A    between atoms: C_4  and  C_7
REMARK    2  A    between atoms: C_7  and  C_9
REMARK    3  A    between atoms: C_7  and  N_15
REMARK    4  A    between atoms: N_11  and  C_12
REMARK    5  A    between atoms: N_15  and  C_16
REMARK    6  A    between atoms: C_16  and  C_17
REMARK                            x       y       z     vdW  Elec       q    Type
REMARK                         _______ _______ _______ _____ _____    ______ ____
ROOT
ATOM      1  N   UNL     1       3.880  -1.927  -0.905  0.00  0.00    -0.298 NA
ATOM      2  H   UNL     1       4.620  -2.591  -0.733  0.00  0.00    +0.123 HD
ENDROOT
BRANCH   1   3
ATOM      3  C   UNL     1       3.986  -0.775   0.000  0.00  0.00    +0.171 C 
BRANCH   3   7
ATOM      4  C   UNL     1       0.097   0.848   0.698  0.00  0.00    +0.000 A 
ATOM      5  C   UNL     1       1.178   1.693   0.527  0.00  0.00    +0.000 A 
ATOM      6  C   UNL     1       2.437   1.167   0.302  0.00  0.00    +0.005 A 
ATOM      7  C   UNL     1       2.614  -0.202   0.247  0.00  0.00    -0.022 A 
ATOM      8  C   UNL     1       1.534  -1.047   0.419  0.00  0.00    +0.005 A 
ATOM      9  C   UNL     1       0.275  -0.522   0.643  0.00  0.00    +0.000 A 
ENDBRANCH   3   7
BRANCH   3  10
ATOM     10  C   UNL     1       4.589  -1.218   1.308  0.00  0.00    +0.235 C 
ATOM     11  O   UNL     1       4.899  -2.379   1.471  0.00  0.00    -0.274 OA
ATOM     12  N   UNL     1       4.782  -0.324   2.298  0.00  0.00    -0.311 N 
ATOM     13  H   UNL     1       4.534   0.605   2.168  0.00  0.00    +0.149 HD
BRANCH  12  14
ATOM     14  C   UNL     1       5.368  -0.755   3.570  0.00  0.00    +0.073 C 
ATOM     15  C   UNL     1       4.731  -0.226   4.856  0.00  0.00    +0.024 C 
ATOM     16  C   UNL     1       6.095   0.300   4.406  0.00  0.00    +0.024 C 
ENDBRANCH  12  14
ENDBRANCH   3  10
ENDBRANCH   1   3
BRANCH   1  17
ATOM     17  C   UNL     1       3.877  -1.495  -2.309  0.00  0.00    +0.118 C 
BRANCH  17  18
ATOM     18  C   UNL     1       3.767  -2.701  -3.206  0.00  0.00    -0.018 A 
ATOM     19  C   UNL     1       4.911  -3.352  -3.648  0.00  0.00    +0.009 A 
ATOM     20  C   UNL     1       4.767  -4.455  -4.470  0.00  0.00    +0.042 A 
ATOM     21  C   UNL     1       3.487  -4.873  -4.824  0.00  0.00    +0.099 A 
ATOM     22  N   UNL     1       2.421  -4.224  -4.381  0.00  0.00    -0.349 N 
ATOM     23  C   UNL     1       2.529  -3.173  -3.591  0.00  0.00    +0.089 A 
ATOM     24  N   UNL     1       3.327  -5.979  -5.649  0.00  0.00    -0.317 N 
ATOM     25  C   UNL     1       4.495  -6.757  -6.000  0.00  0.00    +0.106 C 
ATOM     26  C   UNL     1       5.134  -6.181  -7.287  0.00  0.00    +0.019 C 
ATOM     27  C   UNL     1       4.286  -6.472  -8.453  0.00  0.00    +0.002 C 
ATOM     28  C   UNL     1       2.903  -5.830  -8.400  0.00  0.00    +0.002 C 
ATOM     29  C   UNL     1       1.969  -6.719  -7.616  0.00  0.00    +0.019 C 
ATOM     30  C   UNL     1       1.972  -6.316  -6.127  0.00  0.00    +0.106 C 
ATOM     31  H   UNL     1       1.538  -4.533  -4.641  0.00  0.00    +0.167 HD
ENDBRANCH  17  18
ENDBRANCH   1  17
TORSDOF 6
