REMARK  Name = ZINC01591920
REMARK  4 active torsions:
REMARK  status: ('A' for Active; 'I' for Inactive)
REMARK    1  A    between atoms: C_6  and  C_7
REMARK    2  A    between atoms: C_9  and  C_19
REMARK    3  A    between atoms: C_19  and  C_21
REMARK    4  A    between atoms: C_19  and  O_27
REMARK                            x       y       z     vdW  Elec       q    Type
REMARK                         _______ _______ _______ _____ _____    ______ ____
ROOT
ATOM      1  C   UNL     1      -5.587   1.276   3.731  0.00  0.00    +0.072 A 
ATOM      2  C   UNL     1      -4.984   0.799   2.556  0.00  0.00    +0.035 A 
ATOM      3  C   UNL     1      -4.951   1.587   1.444  0.00  0.00    -0.009 A 
ATOM      4  C   UNL     1      -5.541   2.865   1.513  0.00  0.00    +0.009 A 
ATOM      5  C   UNL     1      -5.547   3.724   0.403  0.00  0.00    +0.030 A 
ATOM      6  C   UNL     1      -6.126   4.954   0.505  0.00  0.00    +0.043 A 
ATOM      7  C   UNL     1      -6.714   5.371   1.698  0.00  0.00    +0.042 A 
ATOM      8  C   UNL     1      -6.726   4.563   2.794  0.00  0.00    +0.068 A 
ATOM      9  C   UNL     1      -6.138   3.286   2.727  0.00  0.00    +0.090 A 
ATOM     10  N   UNL     1      -6.136   2.474   3.788  0.00  0.00    -0.245 NA
ATOM     11 CL   UNL     1      -7.466   5.105   4.269  0.00  0.00    -0.081 Cl
ATOM     12 CL   UNL     1      -6.132   6.015  -0.869  0.00  0.00    -0.083 Cl
ENDROOT
BRANCH   1  18
ATOM     13  C   UNL     1      -5.040  -0.861   4.894  0.00  0.00    +0.011 A 
ATOM     14  C   UNL     1      -5.061  -1.660   6.019  0.00  0.00    +0.020 A 
ATOM     15  C   UNL     1      -5.655  -1.205   7.184  0.00  0.00    +0.041 A 
ATOM     16  C   UNL     1      -6.228   0.054   7.228  0.00  0.00    +0.020 A 
ATOM     17  C   UNL     1      -6.209   0.863   6.110  0.00  0.00    +0.011 A 
ATOM     18  C   UNL     1      -5.611   0.410   4.935  0.00  0.00    +0.000 A 
ATOM     19 CL   UNL     1      -5.683  -2.218   8.593  0.00  0.00    -0.084 Cl
ENDBRANCH   1  18
BRANCH   3  20
ATOM     20  C   UNL     1      -4.306   1.101   0.172  0.00  0.00    +0.131 C 
BRANCH  20  21
ATOM     21  C   UNL     1      -2.861   1.601   0.109  0.00  0.00    -0.038 C 
ATOM     22  C   UNL     1      -2.206   1.108  -1.183  0.00  0.00    -0.013 C 
ATOM     23  C   UNL     1      -0.755   1.594  -1.231  0.00  0.00    -0.003 C 
ATOM     24  C   UNL     1      -0.013   1.086   0.008  0.00  0.00    -0.019 C 
ATOM     25  C   UNL     1      -0.731   1.580   1.266  0.00  0.00    -0.082 C 
ATOM     26  N   UNL     1      -2.120   1.081   1.274  0.00  0.00    +0.383 N 
ATOM     27  H   UNL     1      -2.110   0.054   1.237  0.00  0.00    -0.085 HD
ATOM     28  H   UNL     1      -2.585   1.388   2.136  0.00  0.00    -0.085 HD
ENDBRANCH  20  21
BRANCH  20  29
ATOM     29  O   UNL     1      -4.316  -0.328   0.148  0.00  0.00    -0.389 OA
ATOM     30  H   UNL     1      -3.840  -0.737   0.884  0.00  0.00    +0.210 HD
ENDBRANCH  20  29
ENDBRANCH   3  20
TORSDOF 4
