REMARK  Name = ZINC64605388
REMARK  11 active torsions:
REMARK  status: ('A' for Active; 'I' for Inactive)
REMARK    1  A    between atoms: C_1  and  C_2
REMARK    2  A    between atoms: C_2  and  C_3
REMARK    3  A    between atoms: C_3  and  C_5
REMARK    4  A    between atoms: C_3  and  N_15
REMARK    5  A    between atoms: N_7  and  C_8
REMARK    6  A    between atoms: C_18  and  N_29
REMARK    7  A    between atoms: C_20  and  C_22
REMARK    8  A    between atoms: C_25  and  C_28
REMARK    9  A    between atoms: C_30  and  C_32
REMARK   10  A    between atoms: C_32  and  C_33
REMARK   11  A    between atoms: C_32  and  C_34
REMARK                            x       y       z     vdW  Elec       q    Type
REMARK                         _______ _______ _______ _____ _____    ______ ____
ROOT
ATOM      1  N   UNL     1       2.179  -0.177   1.352  0.00  0.00    -0.215 N 
ATOM      2  C   UNL     1       2.679   0.621   2.317  0.00  0.00    +0.289 A 
ATOM      3  O   UNL     1       1.983   0.952   3.263  0.00  0.00    -0.264 OA
ATOM      4  C   UNL     1       4.020   1.071   2.225  0.00  0.00    +0.102 A 
ATOM      5  C   UNL     1       4.780   0.687   1.158  0.00  0.00    +0.059 A 
ATOM      6  C   UNL     1       4.221  -0.148   0.169  0.00  0.00    +0.093 A 
ATOM      7  N   UNL     1       2.978  -0.562   0.270  0.00  0.00    -0.167 NA
ENDROOT
BRANCH   6   8
ATOM      8  C   UNL     1       5.045  -0.567  -0.992  0.00  0.00    +0.002 A 
ATOM      9  C   UNL     1       6.367  -0.141  -1.102  0.00  0.00    +0.010 A 
ATOM     10  C   UNL     1       7.128  -0.534  -2.184  0.00  0.00    +0.004 A 
ATOM     11  C   UNL     1       6.581  -1.348  -3.159  0.00  0.00    -0.050 A 
ATOM     12  C   UNL     1       5.269  -1.774  -3.055  0.00  0.00    +0.004 A 
ATOM     13  C   UNL     1       4.500  -1.392  -1.975  0.00  0.00    +0.010 A 
ATOM     14  C   UNL     1       7.418  -1.773  -4.338  0.00  0.00    +0.044 C 
ENDBRANCH   6   8
BRANCH   4  15
ATOM     15  N   UNL     1       4.558   1.898   3.214  0.00  0.00    -0.281 N 
ATOM     16  C   UNL     1       4.614   1.473   4.492  0.00  0.00    +0.220 C 
ATOM     17  O   UNL     1       4.119   0.409   4.799  0.00  0.00    -0.275 OA
ATOM     18  H   UNL     1       4.891   2.779   2.982  0.00  0.00    +0.155 HD
BRANCH  16  19
ATOM     19  C   UNL     1       5.291   2.319   5.539  0.00  0.00    +0.069 C 
ATOM     20  C   UNL     1       4.588   3.675   5.632  0.00  0.00    +0.017 C 
ATOM     21  C   UNL     1       5.215   1.611   6.894  0.00  0.00    +0.017 C 
ENDBRANCH  16  19
ENDBRANCH   4  15
BRANCH   1  22
ATOM     22  C   UNL     1       0.794  -0.647   1.440  0.00  0.00    +0.196 C 
BRANCH  22  23
ATOM     23  C   UNL     1       0.777  -2.153   1.491  0.00  0.00    +0.242 C 
ATOM     24  O   UNL     1       1.819  -2.773   1.456  0.00  0.00    -0.273 OA
ATOM     25  N   UNL     1      -0.396  -2.811   1.574  0.00  0.00    -0.284 N 
ATOM     26  H   UNL     1      -1.224  -2.316   1.668  0.00  0.00    +0.155 HD
BRANCH  25  27
ATOM     27  C   UNL     1      -0.418  -4.210   1.524  0.00  0.00    +0.034 A 
ATOM     28  C   UNL     1      -1.469  -4.867   0.897  0.00  0.00    +0.025 A 
ATOM     29  C   UNL     1      -1.489  -6.247   0.849  0.00  0.00    +0.022 A 
ATOM     30  C   UNL     1      -0.463  -6.975   1.426  0.00  0.00    +0.041 A 
ATOM     31  C   UNL     1       0.585  -6.323   2.052  0.00  0.00    +0.022 A 
ATOM     32  C   UNL     1       0.613  -4.943   2.097  0.00  0.00    +0.025 A 
ATOM     33 CL   UNL     1      -0.492  -8.710   1.365  0.00  0.00    -0.084 Cl
ENDBRANCH  25  27
ENDBRANCH  22  23
BRANCH  22  35
ATOM     34  C   UNL     1      -0.075   1.358   0.229  0.00  0.00    +0.006 C 
ATOM     35  C   UNL     1       0.015  -0.169   0.213  0.00  0.00    +0.033 C 
ENDBRANCH  22  35
ENDBRANCH   1  22
TORSDOF 7
