REMARK  Name = ZINC64103386
REMARK  12 active torsions:
REMARK  status: ('A' for Active; 'I' for Inactive)
REMARK    1  A    between atoms: C_1  and  C_2
REMARK    2  A    between atoms: C_2  and  O_3
REMARK    3  A    between atoms: O_3  and  C_4
REMARK    4  A    between atoms: C_4  and  C_6
REMARK    5  A    between atoms: C_7  and  C_32
REMARK    6  A    between atoms: C_8  and  C_13
REMARK    7  A    between atoms: C_10  and  C_12
REMARK    8  A    between atoms: N_15  and  C_16
REMARK    9  A    between atoms: N_21  and  C_23
REMARK   10  A    between atoms: C_23  and  C_24
REMARK   11  A    between atoms: C_24  and  C_25
REMARK   12  A    between atoms: C_25  and  C_26
REMARK                            x       y       z     vdW  Elec       q    Type
REMARK                         _______ _______ _______ _____ _____    ______ ____
ROOT
ATOM      1  C   UNL     1       3.761  -4.456   3.796  0.00  0.00    +0.226 C 
ATOM      2  O   UNL     1       4.076  -4.845   2.692  0.00  0.00    -0.275 OA
ATOM      3  N   UNL     1       4.599  -4.632   4.837  0.00  0.00    -0.313 N 
ATOM      4  H   UNL     1       4.347  -4.321   5.721  0.00  0.00    +0.149 HD
ENDROOT
BRANCH   1   7
ATOM      5  C   UNL     1       1.502  -2.374   2.477  0.00  0.00    +0.148 C 
ATOM      6  C   UNL     1       1.663  -3.691   2.700  0.00  0.00    -0.023 C 
ATOM      7  C   UNL     1       2.432  -3.776   4.005  0.00  0.00    +0.147 C 
ATOM      8  C   UNL     1       2.624  -2.322   4.386  0.00  0.00    +0.033 C 
ATOM      9  N   UNL     1       2.070  -1.621   3.460  0.00  0.00    -0.249 NA
ATOM     10  C   UNL     1       3.332  -1.799   5.610  0.00  0.00    +0.062 C 
ATOM     11  C   UNL     1       1.182  -4.832   1.842  0.00  0.00    +0.042 C 
BRANCH   5  12
ATOM     12  C   UNL     1       0.801  -1.813   1.304  0.00  0.00    +0.358 C 
ATOM     13  O   UNL     1       0.322  -2.555   0.471  0.00  0.00    -0.243 OA
BRANCH  12  14
ATOM     14  O   UNL     1       0.693  -0.477   1.160  0.00  0.00    -0.460 OA
BRANCH  14  16
ATOM     15  C   UNL     1      -0.019   1.526   0.010  0.00  0.00    +0.048 C 
ATOM     16  C   UNL     1       0.002  -0.004   0.002  0.00  0.00    +0.229 C 
ENDBRANCH  14  16
ENDBRANCH  12  14
ENDBRANCH   5  12
ENDBRANCH   1   7
BRANCH   3  17
ATOM     17  C   UNL     1       5.890  -5.293   4.634  0.00  0.00    +0.056 C 
ATOM     18  C   UNL     1       5.707  -6.811   4.718  0.00  0.00    +0.018 C 
ATOM     19  C   UNL     1       7.073  -7.489   4.583  0.00  0.00    -0.017 C 
ATOM     20  C   UNL     1       8.010  -6.957   5.670  0.00  0.00    -0.079 C 
ATOM     21  N   UNL     1       8.165  -5.505   5.519  0.00  0.00    +0.381 N 
ATOM     22  C   UNL     1       6.871  -4.841   5.718  0.00  0.00    -0.056 C 
ATOM     23  H   UNL     1       8.508  -5.298   4.593  0.00  0.00    -0.082 HD
BRANCH  21  24
ATOM     24  C   UNL     1       9.126  -5.011   6.515  0.00  0.00    -0.078 C 
BRANCH  24  25
ATOM     25  C   UNL     1      10.508  -5.598   6.226  0.00  0.00    -0.014 C 
BRANCH  25  26
ATOM     26  C   UNL     1      11.508  -5.084   7.263  0.00  0.00    +0.033 C 
BRANCH  26  27
ATOM     27  C   UNL     1      12.870  -5.662   6.978  0.00  0.00    -0.047 A 
ATOM     28  C   UNL     1      13.243  -6.866   7.548  0.00  0.00    +0.003 A 
ATOM     29  C   UNL     1      14.492  -7.397   7.287  0.00  0.00    +0.000 A 
ATOM     30  C   UNL     1      15.369  -6.725   6.455  0.00  0.00    +0.000 A 
ATOM     31  C   UNL     1      14.996  -5.522   5.885  0.00  0.00    +0.000 A 
ATOM     32  C   UNL     1      13.745  -4.993   6.143  0.00  0.00    +0.003 A 
ENDBRANCH  26  27
ENDBRANCH  25  26
ENDBRANCH  24  25
ENDBRANCH  21  24
ENDBRANCH   3  17
TORSDOF 9
