REMARK  Name = ZINC63361932
REMARK  11 active torsions:
REMARK  status: ('A' for Active; 'I' for Inactive)
REMARK    1  A    between atoms: C_1  and  C_2
REMARK    2  A    between atoms: C_2  and  C_3
REMARK    3  A    between atoms: C_3  and  C_4
REMARK    4  A    between atoms: C_4  and  C_5
REMARK    5  A    between atoms: C_5  and  C_6
REMARK    6  A    between atoms: C_6  and  C_8
REMARK    7  A    between atoms: C_6  and  N_10
REMARK    8  A    between atoms: C_8  and  C_9
REMARK    9  A    between atoms: C_11  and  C_13
REMARK   10  A    between atoms: C_18  and  N_19
REMARK   11  A    between atoms: C_22  and  C_38
REMARK                            x       y       z     vdW  Elec       q    Type
REMARK                         _______ _______ _______ _____ _____    ______ ____
ROOT
ATOM      1  N   UNL     1       2.228  -8.677  -0.530  0.00  0.00    -0.192 N 
ATOM      2  C   UNL     1       0.930  -8.889  -0.228  0.00  0.00    +0.253 C 
ATOM      3  O   UNL     1       0.321  -8.461   0.729  0.00  0.00    -0.272 OA
ATOM      4  C   UNL     1       0.394  -9.774  -1.332  0.00  0.00    +0.137 C 
ATOM      5  C   UNL     1      -0.143 -11.085  -0.760  0.00  0.00    +0.139 C 
ATOM      6  C   UNL     1       0.796 -12.194  -1.210  0.00  0.00    -0.034 C 
ATOM      7  C   UNL     1       1.206 -12.807  -0.102  0.00  0.00    -0.001 A 
ATOM      8  C   UNL     1       2.065 -13.983   0.103  0.00  0.00    +0.010 A 
ATOM      9  C   UNL     1       2.292 -14.341   1.395  0.00  0.00    +0.001 A 
ATOM     10  C   UNL     1       1.758 -13.654   2.488  0.00  0.00    +0.002 A 
ATOM     11  C   UNL     1       0.954 -12.565   2.392  0.00  0.00    +0.026 A 
ATOM     12  C   UNL     1       0.639 -12.096   1.084  0.00  0.00    +0.043 A 
ATOM     13  N   UNL     1      -0.121 -11.092   0.704  0.00  0.00    -0.375 N 
ATOM     14  C   UNL     1       1.186 -12.428  -2.649  0.00  0.00    +0.052 C 
ATOM     15  C   UNL     1       1.663 -11.075  -3.212  0.00  0.00    +0.115 C 
ATOM     16  N   UNL     1       1.597 -10.088  -2.131  0.00  0.00    -0.268 N 
ATOM     17  C   UNL     1       2.590  -9.333  -1.641  0.00  0.00    +0.317 C 
ATOM     18  O   UNL     1       3.693  -9.255  -2.145  0.00  0.00    -0.252 OA
ATOM     19  C   UNL     1      -0.657  -9.043  -2.170  0.00  0.00    +0.044 C 
ATOM     20  H   UNL     1      -0.582 -10.465   1.281  0.00  0.00    +0.160 HD
ENDROOT
BRANCH   1  26
ATOM     21  C   UNL     1       3.191  -6.500  -0.064  0.00  0.00    +0.059 A 
ATOM     22  C   UNL     1       4.048  -5.702   0.696  0.00  0.00    +0.015 A 
ATOM     23  C   UNL     1       4.788  -6.264   1.714  0.00  0.00    +0.001 A 
ATOM     24  C   UNL     1       4.686  -7.618   1.988  0.00  0.00    +0.002 A 
ATOM     25  C   UNL     1       3.842  -8.419   1.244  0.00  0.00    +0.025 A 
ATOM     26  C   UNL     1       3.086  -7.870   0.219  0.00  0.00    +0.058 A 
BRANCH  21  28
ATOM     27  N   UNL     1       2.576  -4.614  -1.494  0.00  0.00    -0.308 N 
ATOM     28  C   UNL     1       2.395  -5.905  -1.155  0.00  0.00    +0.246 C 
ATOM     29  O   UNL     1       1.577  -6.580  -1.749  0.00  0.00    -0.270 OA
ATOM     30  H   UNL     1       3.186  -4.059  -0.983  0.00  0.00    +0.149 HD
BRANCH  27  31
ATOM     31  C   UNL     1       1.853  -4.047  -2.635  0.00  0.00    +0.073 C 
BRANCH  31  32
ATOM     32  C   UNL     1       2.696  -4.202  -3.902  0.00  0.00    +0.019 C 
ATOM     33  C   UNL     1       2.845  -5.687  -4.237  0.00  0.00    +0.006 C 
ENDBRANCH  31  32
BRANCH  31  34
ATOM     34  C   UNL     1       1.581  -2.563  -2.381  0.00  0.00    +0.022 C 
BRANCH  34  35
ATOM     35  C   UNL     1       0.635  -2.415  -1.187  0.00  0.00    +0.002 C 
BRANCH  35  36
ATOM     36  C   UNL     1       0.364  -0.930  -0.933  0.00  0.00    -0.000 C 
BRANCH  36  38
ATOM     37  C   UNL     1      -0.853   0.702   0.515  0.00  0.00    +0.004 C 
ATOM     38  C   UNL     1      -0.582  -0.782   0.260  0.00  0.00    -0.003 C 
ENDBRANCH  36  38
ENDBRANCH  35  36
ENDBRANCH  34  35
ENDBRANCH  31  34
ENDBRANCH  27  31
ENDBRANCH  21  28
ENDBRANCH   1  26
TORSDOF 8
