REMARK  Name = ZINC24796846
REMARK  11 active torsions:
REMARK  status: ('A' for Active; 'I' for Inactive)
REMARK    1  A    between atoms: C_1  and  C_2
REMARK    2  A    between atoms: C_2  and  C_3
REMARK    3  A    between atoms: C_2  and  C_4
REMARK    4  A    between atoms: C_7  and  C_13
REMARK    5  A    between atoms: C_8  and  C_10
REMARK    6  A    between atoms: C_10  and  C_11
REMARK    7  A    between atoms: C_10  and  C_12
REMARK    8  A    between atoms: C_13  and  C_15
REMARK    9  A    between atoms: C_15  and  N_16
REMARK   10  A    between atoms: C_19  and  C_23
REMARK   11  A    between atoms: C_19  and  C_24
REMARK                            x       y       z     vdW  Elec       q    Type
REMARK                         _______ _______ _______ _____ _____    ______ ____
ROOT
ATOM      1  N   UNL     1       0.666  -1.373   1.593  0.00  0.00    -0.216 N 
ATOM      2  C   UNL     1       1.139  -0.788   0.475  0.00  0.00    +0.251 C 
ATOM      3  O   UNL     1       2.299  -0.681   0.139  0.00  0.00    -0.272 OA
ATOM      4  C   UNL     1      -0.081  -0.294  -0.277  0.00  0.00    +0.135 C 
ATOM      5  N   UNL     1      -1.206  -0.695   0.587  0.00  0.00    -0.281 N 
ATOM      6  C   UNL     1      -0.669  -1.317   1.652  0.00  0.00    +0.310 C 
ATOM      7  O   UNL     1      -1.325  -1.776   2.567  0.00  0.00    -0.252 OA
ATOM      8  C   UNL     1      -0.186  -0.971  -1.645  0.00  0.00    +0.047 C 
ATOM      9  H   UNL     1      -2.238  -0.462   0.288  0.00  0.00    +0.152 HD
ENDROOT
BRANCH   4  10
ATOM     10  C   UNL     1      -0.038   1.205  -0.430  0.00  0.00    -0.012 A 
ATOM     11  C   UNL     1       1.174   1.847  -0.600  0.00  0.00    +0.010 A 
ATOM     12  C   UNL     1       1.218   3.221  -0.740  0.00  0.00    +0.050 A 
ATOM     13  C   UNL     1       0.045   3.960  -0.711  0.00  0.00    +0.162 A 
ATOM     14  C   UNL     1      -1.175   3.314  -0.542  0.00  0.00    +0.162 A 
ATOM     15  C   UNL     1      -1.212   1.934  -0.407  0.00  0.00    +0.055 A 
ATOM     16  O   UNL     1      -2.338   4.020  -0.515  0.00  0.00    -0.485 OA
ATOM     17  C   UNL     1      -2.231   5.428  -0.280  0.00  0.00    +0.270 C 
ATOM     18  C   UNL     1      -1.117   5.981  -1.179  0.00  0.00    +0.270 C 
ATOM     19  O   UNL     1       0.104   5.313  -0.842  0.00  0.00    -0.485 OA
ENDBRANCH   4  10
BRANCH   1  20
ATOM     20  C   UNL     1       1.510  -1.992   2.618  0.00  0.00    +0.197 C 
BRANCH  20  21
ATOM     21  C   UNL     1       1.717  -3.447   2.286  0.00  0.00    +0.181 C 
ATOM     22  O   UNL     1       1.210  -3.920   1.292  0.00  0.00    -0.290 OA
BRANCH  21  26
ATOM     23  C   UNL     1       4.075  -5.888   4.831  0.00  0.00    -0.044 A 
ATOM     24  C   UNL     1       4.596  -5.441   3.629  0.00  0.00    +0.004 A 
ATOM     25  C   UNL     1       3.835  -4.651   2.794  0.00  0.00    +0.012 A 
ATOM     26  C   UNL     1       2.535  -4.294   3.169  0.00  0.00    +0.022 A 
ATOM     27  C   UNL     1       2.016  -4.750   4.385  0.00  0.00    -0.034 A 
ATOM     28  C   UNL     1       2.788  -5.543   5.207  0.00  0.00    +0.008 A 
BRANCH  23  30
ATOM     29  C   UNL     1       5.298  -8.039   4.996  0.00  0.00    +0.012 C 
ATOM     30  C   UNL     1       4.912  -6.756   5.735  0.00  0.00    +0.013 C 
ATOM     31  C   UNL     1       6.179  -5.998   6.138  0.00  0.00    +0.012 C 
ENDBRANCH  23  30
BRANCH  27  32
ATOM     32  C   UNL     1       0.615  -4.375   4.796  0.00  0.00    +0.014 C 
ATOM     33  C   UNL     1      -0.208  -5.645   5.020  0.00  0.00    +0.012 C 
ATOM     34  C   UNL     1       0.664  -3.563   6.092  0.00  0.00    +0.012 C 
ENDBRANCH  27  32
ENDBRANCH  21  26
ENDBRANCH  20  21
ENDBRANCH   1  20
TORSDOF 6
