REMARK  Name = ZINC43324166
REMARK  5 active torsions:
REMARK  status: ('A' for Active; 'I' for Inactive)
REMARK    1  A    between atoms: C_1  and  C_2
REMARK    2  A    between atoms: C_5  and  N_9
REMARK    3  A    between atoms: N_12  and  C_13
REMARK    4  A    between atoms: N_12  and  C_14
REMARK    5  A    between atoms: C_14  and  C_15
REMARK                            x       y       z     vdW  Elec       q    Type
REMARK                         _______ _______ _______ _____ _____    ______ ____
ROOT
ATOM      1  N   UNL     1       0.059  -4.173  -0.025  0.00  0.00    -0.267 N 
ATOM      2  C   UNL     1      -0.040  -4.840  -1.192  0.00  0.00    +0.307 C 
ATOM      3  O   UNL     1      -0.054  -4.229  -2.243  0.00  0.00    -0.252 OA
ATOM      4  N   UNL     1      -0.124  -6.185  -1.194  0.00  0.00    -0.284 N 
ATOM      5  C   UNL     1      -0.107  -6.922   0.073  0.00  0.00    +0.134 C 
ATOM      6  H   UNL     1       0.134  -4.662   0.809  0.00  0.00    +0.156 HD
ENDROOT
BRANCH   1  11
ATOM      7  C   UNL     1       0.031   1.503   0.005  0.00  0.00    +0.044 C 
ATOM      8  C   UNL     1       0.038  -0.004  -0.002  0.00  0.00    -0.048 A 
ATOM      9  C   UNL     1       0.634  -0.686  -1.046  0.00  0.00    +0.005 A 
ATOM     10  C   UNL     1       0.643  -2.067  -1.057  0.00  0.00    +0.026 A 
ATOM     11  C   UNL     1       0.052  -2.772  -0.017  0.00  0.00    +0.070 A 
ATOM     12  C   UNL     1      -0.547  -2.084   1.033  0.00  0.00    +0.145 A 
ATOM     13  C   UNL     1      -0.547  -0.701   1.039  0.00  0.00    +0.043 A 
ATOM     14  F   UNL     1      -1.123  -2.765   2.047  0.00  0.00    -0.204 F 
ENDBRANCH   1  11
BRANCH   4  15
ATOM     15  C   UNL     1      -0.232  -6.911  -2.462  0.00  0.00    +0.144 C 
BRANCH  15  16
ATOM     16  C   UNL     1       1.148  -7.248  -2.966  0.00  0.00    -0.026 A 
ATOM     17  C   UNL     1       1.817  -6.361  -3.790  0.00  0.00    +0.009 A 
ATOM     18  C   UNL     1       3.081  -6.667  -4.256  0.00  0.00    +0.050 A 
ATOM     19  C   UNL     1       3.683  -7.865  -3.898  0.00  0.00    +0.162 A 
ATOM     20  C   UNL     1       3.011  -8.755  -3.068  0.00  0.00    +0.162 A 
ATOM     21  C   UNL     1       1.744  -8.440  -2.601  0.00  0.00    +0.054 A 
ATOM     22  O   UNL     1       3.586  -9.932  -2.698  0.00  0.00    -0.485 OA
ATOM     23  C   UNL     1       4.701 -10.377  -3.479  0.00  0.00    +0.270 C 
ATOM     24  C   UNL     1       5.648  -9.187  -3.687  0.00  0.00    +0.270 C 
ATOM     25  O   UNL     1       4.927  -8.154  -4.368  0.00  0.00    -0.485 OA
ENDBRANCH  15  16
ENDBRANCH   4  15
TORSDOF 3
