REMARK  Name = ZINC49550315
REMARK  8 active torsions:
REMARK  status: ('A' for Active; 'I' for Inactive)
REMARK    1  A    between atoms: C_1  and  O_2
REMARK    2  A    between atoms: O_2  and  C_3
REMARK    3  A    between atoms: C_5  and  C_12
REMARK    4  A    between atoms: C_7  and  O_10
REMARK    5  A    between atoms: C_8  and  O_9
REMARK    6  A    between atoms: O_10  and  C_11
REMARK    7  A    between atoms: N_22  and  C_23
REMARK    8  A    between atoms: C_23  and  C_24
REMARK                            x       y       z     vdW  Elec       q    Type
REMARK                         _______ _______ _______ _____ _____    ______ ____
ROOT
ATOM      1  C   UNL     1       2.462   0.340   4.203  0.00  0.00    +0.063 C 
ATOM      2  C   UNL     1       3.960   0.034   4.290  0.00  0.00    +0.109 C 
ATOM      3  C   UNL     1       4.213  -1.287   4.959  0.00  0.00    +0.219 C 
ATOM      4  O   UNL     1       5.127  -1.979   4.562  0.00  0.00    -0.275 OA
ATOM      5  N   UNL     1       3.458  -1.730   5.987  0.00  0.00    -0.270 N 
ATOM      6  C   UNL     1       2.330  -0.989   6.341  0.00  0.00    +0.127 A 
ATOM      7  C   UNL     1       1.829  -0.007   5.526  0.00  0.00    +0.020 A 
ATOM      8  C   UNL     1       0.714   0.537   6.147  0.00  0.00    +0.140 A 
ATOM      9  N   UNL     1       0.541  -0.083   7.291  0.00  0.00    -0.177 NA
ATOM     10  N   UNL     1       1.553  -1.050   7.431  0.00  0.00    -0.246 N 
ATOM     11  H   UNL     1       3.693  -2.541   6.466  0.00  0.00    +0.156 HD
ENDROOT
BRANCH   1  14
ATOM     12  C   UNL     1       0.626  -0.619   1.042  0.00  0.00    +0.165 A 
ATOM     13  C   UNL     1       1.202   0.138   2.051  0.00  0.00    +0.054 A 
ATOM     14  C   UNL     1       1.837  -0.486   3.109  0.00  0.00    -0.032 A 
ATOM     15  C   UNL     1       1.900  -1.866   3.166  0.00  0.00    +0.054 A 
ATOM     16  C   UNL     1       1.327  -2.630   2.160  0.00  0.00    +0.165 A 
ATOM     17  C   UNL     1       0.683  -2.006   1.098  0.00  0.00    +0.201 A 
BRANCH  12  19
ATOM     18  C   UNL     1      -0.017   1.425   0.010  0.00  0.00    +0.277 C 
ATOM     19  O   UNL     1       0.002  -0.004   0.002  0.00  0.00    -0.491 OA
ENDBRANCH  12  19
BRANCH  17  20
ATOM     20  O   UNL     1       0.114  -2.753   0.113  0.00  0.00    -0.501 OA
ATOM     21  H   UNL     1       0.710  -2.955  -0.621  0.00  0.00    +0.292 HD
ENDBRANCH  17  20
BRANCH  16  22
ATOM     22  O   UNL     1       1.390  -3.987   2.217  0.00  0.00    -0.491 OA
ATOM     23  C   UNL     1       2.062  -4.559   3.340  0.00  0.00    +0.277 C 
ENDBRANCH  16  22
ENDBRANCH   1  14
BRANCH  10  24
ATOM     24  C   UNL     1       1.727  -1.960   8.566  0.00  0.00    +0.180 C 
BRANCH  24  25
ATOM     25  C   UNL     1       2.614  -1.314   9.598  0.00  0.00    -0.026 A 
ATOM     26  C   UNL     1       3.984  -1.489   9.538  0.00  0.00    +0.007 A 
ATOM     27  C   UNL     1       4.799  -0.896  10.484  0.00  0.00    +0.020 A 
ATOM     28  C   UNL     1       4.243  -0.127  11.491  0.00  0.00    +0.041 A 
ATOM     29  C   UNL     1       2.872   0.048  11.550  0.00  0.00    +0.020 A 
ATOM     30  C   UNL     1       2.058  -0.541  10.600  0.00  0.00    +0.007 A 
ATOM     31 CL   UNL     1       5.265   0.617  12.681  0.00  0.00    -0.084 Cl
ENDBRANCH  24  25
ENDBRANCH  10  24
TORSDOF 6
