REMARK  Name = ZINC29276745
REMARK  8 active torsions:
REMARK  status: ('A' for Active; 'I' for Inactive)
REMARK    1  A    between atoms: C_1  and  C_2
REMARK    2  A    between atoms: C_2  and  C_3
REMARK    3  A    between atoms: C_3  and  N_4
REMARK    4  A    between atoms: C_5  and  C_33
REMARK    5  A    between atoms: C_7  and  C_10
REMARK    6  A    between atoms: C_8  and  C_9
REMARK    7  A    between atoms: C_16  and  C_18
REMARK    8  A    between atoms: N_20  and  C_25
REMARK                            x       y       z     vdW  Elec       q    Type
REMARK                         _______ _______ _______ _____ _____    ______ ____
ROOT
ATOM      1  C   UNL     1       1.145  -0.675  -0.013  0.00  0.00    +0.082 A 
ATOM      2  C   UNL     1       2.309   0.040  -0.020  0.00  0.00    +0.077 A 
ATOM      3  S   UNL     1       1.674   1.710  -0.005  0.00  0.00    -0.060 S 
ATOM      4  C   UNL     1      -0.016   1.313   0.009  0.00  0.00    +0.165 A 
ATOM      5  N   UNL     1       0.002  -0.004   0.002  0.00  0.00    -0.225 NA
ATOM      6  N   UNL     1      -1.109   2.168   0.019  0.00  0.00    -0.260 N 
ATOM      7  C   UNL     1      -0.921   3.503   0.026  0.00  0.00    +0.265 C 
ATOM      8  O   UNL     1       0.207   3.958   0.022  0.00  0.00    -0.268 OA
ATOM      9  H   UNL     1      -2.129   1.756   0.022  0.00  0.00    +0.157 HD
ENDROOT
BRANCH   1  13
ATOM     10  N   UNL     1       0.516  -4.268  -0.025  0.00  0.00    -0.348 N 
ATOM     11  C   UNL     1       1.880  -4.268  -0.038  0.00  0.00    +0.017 A 
ATOM     12  C   UNL     1       2.308  -2.991  -0.041  0.00  0.00    +0.032 A 
ATOM     13  C   UNL     1       1.159  -2.160  -0.020  0.00  0.00    +0.022 A 
ATOM     14  C   UNL     1       0.073  -2.978  -0.014  0.00  0.00    +0.025 A 
ATOM     15  C   UNL     1      -1.368  -2.537   0.002  0.00  0.00    +0.064 C 
ATOM     16  C   UNL     1       2.760  -5.491  -0.054  0.00  0.00    +0.063 C 
BRANCH  10  17
ATOM     17  C   UNL     1      -0.335  -5.460  -0.024  0.00  0.00    +0.121 C 
BRANCH  17  19
ATOM     18  C   UNL     1      -1.534  -7.113  -1.464  0.00  0.00    +0.005 C 
ATOM     19  C   UNL     1      -0.645  -5.868  -1.465  0.00  0.00    +0.018 C 
ENDBRANCH  17  19
ENDBRANCH  10  17
ENDBRANCH   1  13
BRANCH   7  20
ATOM     20  C   UNL     1      -2.077   4.406   0.036  0.00  0.00    +0.122 C 
ATOM     21  N   UNL     1      -3.276   3.911   0.040  0.00  0.00    -0.177 NA
ATOM     22  N   UNL     1      -4.401   4.741   0.048  0.00  0.00    -0.188 N 
ATOM     23  C   UNL     1      -4.300   6.031  -0.330  0.00  0.00    +0.235 C 
ATOM     24  O   UNL     1      -5.279   6.745  -0.325  0.00  0.00    -0.274 OA
ATOM     25  C   UNL     1      -2.963   6.583  -0.757  0.00  0.00    +0.104 C 
ATOM     26  C   UNL     1      -1.855   5.895   0.050  0.00  0.00    +0.071 C 
BRANCH  22  27
ATOM     27  C   UNL     1      -5.698   4.206   0.468  0.00  0.00    +0.124 C 
ATOM     28  C   UNL     1      -5.596   3.666   1.905  0.00  0.00    +0.049 C 
ATOM     29  C   UNL     1      -6.848   2.820   2.240  0.00  0.00    +0.168 C 
ATOM     30  S   UNL     1      -7.359   2.184   0.592  0.00  0.00    -0.029 S 
ATOM     31  O   UNL     1      -8.648   2.694   0.280  0.00  0.00    -0.174 OA
ATOM     32  O   UNL     1      -7.132   0.782   0.545  0.00  0.00    -0.174 OA
ATOM     33  C   UNL     1      -6.108   3.030  -0.463  0.00  0.00    +0.190 C 
ENDBRANCH  22  27
ENDBRANCH   7  20
TORSDOF 5
