REMARK  Name = ZINC12389159
REMARK  6 active torsions:
REMARK  status: ('A' for Active; 'I' for Inactive)
REMARK    1  A    between atoms: C_1  and  C_2
REMARK    2  A    between atoms: C_2  and  N_3
REMARK    3  A    between atoms: C_5  and  C_17
REMARK    4  A    between atoms: C_6  and  C_11
REMARK    5  A    between atoms: C_17  and  C_19
REMARK    6  A    between atoms: C_20  and  C_21
REMARK                            x       y       z     vdW  Elec       q    Type
REMARK                         _______ _______ _______ _____ _____    ______ ____
ROOT
ATOM      1  N   UNL     1       0.340   1.910   0.125  0.00  0.00    -0.262 N 
ATOM      2  C   UNL     1       0.063   0.574   0.045  0.00  0.00    +0.089 C 
ATOM      3  C   UNL     1       1.054  -0.339  -0.040  0.00  0.00    +0.038 C 
ATOM      4  C   UNL     1       2.482   0.168  -0.045  0.00  0.00    +0.140 C 
ATOM      5  N   UNL     1       2.673   1.625   0.044  0.00  0.00    -0.288 N 
ATOM      6  C   UNL     1       1.582   2.412   0.124  0.00  0.00    +0.307 C 
ATOM      7  O   UNL     1       1.730   3.616   0.198  0.00  0.00    -0.252 OA
ATOM      8  H   UNL     1       3.564   2.009   0.045  0.00  0.00    +0.151 HD
ENDROOT
BRANCH   4   9
ATOM      9  C   UNL     1       3.139  -0.310  -1.315  0.00  0.00    -0.023 A 
ATOM     10  C   UNL     1       2.802   0.264  -2.526  0.00  0.00    +0.006 A 
ATOM     11  C   UNL     1       3.408  -0.170  -3.690  0.00  0.00    +0.000 A 
ATOM     12  C   UNL     1       4.346  -1.185  -3.643  0.00  0.00    +0.000 A 
ATOM     13  C   UNL     1       4.679  -1.763  -2.433  0.00  0.00    +0.000 A 
ATOM     14  C   UNL     1       4.076  -1.325  -1.268  0.00  0.00    +0.006 A 
ENDBRANCH   4   9
BRANCH   1  16
ATOM     15  C   UNL     1      -1.143   3.080   1.677  0.00  0.00    +0.025 C 
ATOM     16  C   UNL     1      -0.783   2.846   0.209  0.00  0.00    +0.111 C 
ENDBRANCH   1  16
BRANCH   3  17
ATOM     17  C   UNL     1       0.759  -1.768  -0.125  0.00  0.00    +0.185 C 
ATOM     18  O   UNL     1       1.667  -2.571  -0.254  0.00  0.00    -0.287 OA
BRANCH  17  19
ATOM     19  C   UNL     1      -0.629  -2.235  -0.054  0.00  0.00    +0.052 C 
ATOM     20  C   UNL     1      -0.894  -3.557  -0.028  0.00  0.00    +0.011 C 
BRANCH  20  21
ATOM     21  C   UNL     1      -2.277  -4.026   0.158  0.00  0.00    -0.025 A 
ATOM     22  C   UNL     1      -3.330  -3.107   0.204  0.00  0.00    +0.009 A 
ATOM     23  C   UNL     1      -4.623  -3.554   0.375  0.00  0.00    +0.016 A 
ATOM     24  C   UNL     1      -4.879  -4.909   0.510  0.00  0.00    +0.018 A 
ATOM     25  C   UNL     1      -3.840  -5.824   0.470  0.00  0.00    +0.016 A 
ATOM     26  C   UNL     1      -2.543  -5.392   0.296  0.00  0.00    +0.009 A 
ATOM     27 BR   UNL     1      -6.655  -5.511   0.750  0.00  0.00    -0.050 Br
ENDBRANCH  20  21
ENDBRANCH  17  19
ENDBRANCH   3  17
TORSDOF 5
