REMARK  Name = ZINC14185443
REMARK  8 active torsions:
REMARK  status: ('A' for Active; 'I' for Inactive)
REMARK    1  A    between atoms: C_1  and  C_2
REMARK    2  A    between atoms: C_2  and  C_4
REMARK    3  A    between atoms: C_2  and  N_16
REMARK    4  A    between atoms: C_7  and  C_10
REMARK    5  A    between atoms: C_17  and  C_19
REMARK    6  A    between atoms: C_19  and  N_20
REMARK    7  A    between atoms: C_23  and  C_28
REMARK    8  A    between atoms: C_28  and  C_29
REMARK                            x       y       z     vdW  Elec       q    Type
REMARK                         _______ _______ _______ _____ _____    ______ ____
ROOT
ATOM      1  C   UNL     1      -0.499  -0.164  -4.494  0.00  0.00    +0.213 C 
ENDROOT
BRANCH   1   2
ATOM      2  N   UNL     1      -0.829   0.428  -3.195  0.00  0.00    -0.216 N 
ATOM      3  C   UNL     1       0.003   1.222  -2.492  0.00  0.00    +0.244 C 
ATOM      4  O   UNL     1       1.122   1.568  -2.804  0.00  0.00    -0.273 OA
ATOM      5  C   UNL     1      -0.753   1.593  -1.232  0.00  0.00    +0.165 C 
ATOM      6  N   UNL     1      -2.043   0.899  -1.385  0.00  0.00    -0.287 N 
ATOM      7  C   UNL     1      -1.992   0.246  -2.560  0.00  0.00    +0.310 C 
ATOM      8  O   UNL     1      -2.902  -0.431  -2.997  0.00  0.00    -0.252 OA
ATOM      9  H   UNL     1      -2.785   0.910  -0.760  0.00  0.00    +0.151 HD
BRANCH   5  10
ATOM     10  C   UNL     1      -0.013   1.086   0.008  0.00  0.00    +0.069 C 
BRANCH  10  11
ATOM     11  C   UNL     1      -0.718   1.572   1.248  0.00  0.00    -0.020 A 
ATOM     12  C   UNL     1      -0.420   2.672   1.957  0.00  0.00    +0.087 A 
ATOM     13  N   UNL     1      -1.277   2.791   3.017  0.00  0.00    -0.360 N 
ATOM     14  H   UNL     1      -1.258   3.506   3.672  0.00  0.00    +0.165 HD
ATOM     15  C   UNL     1      -2.171   1.743   3.016  0.00  0.00    +0.047 A 
ATOM     16  C   UNL     1      -1.863   0.937   1.904  0.00  0.00    +0.003 A 
ATOM     17  C   UNL     1      -2.611  -0.215   1.651  0.00  0.00    +0.010 A 
ATOM     18  C   UNL     1      -3.645  -0.548   2.480  0.00  0.00    +0.001 A 
ATOM     19  C   UNL     1      -3.956   0.247   3.575  0.00  0.00    +0.002 A 
ATOM     20  C   UNL     1      -3.228   1.385   3.846  0.00  0.00    +0.026 A 
ENDBRANCH  10  11
ENDBRANCH   5  10
ENDBRANCH   1   2
BRANCH   1  22
ATOM     21  N   UNL     1       0.541  -2.240  -5.346  0.00  0.00    -0.307 N 
ATOM     22  C   UNL     1       0.150  -1.508  -4.284  0.00  0.00    +0.231 C 
ATOM     23  O   UNL     1       0.321  -1.929  -3.160  0.00  0.00    -0.274 OA
ATOM     24  H   UNL     1       0.405  -1.903  -6.245  0.00  0.00    +0.149 HD
BRANCH  21  26
ATOM     25  C   UNL     1       0.090  -4.617  -4.986  0.00  0.00    +0.033 C 
ATOM     26  C   UNL     1       1.172  -3.547  -5.141  0.00  0.00    +0.100 C 
BRANCH  26  27
ATOM     27  C   UNL     1       2.039  -3.877  -6.329  0.00  0.00    -0.027 A 
ATOM     28  C   UNL     1       1.600  -3.579  -7.606  0.00  0.00    +0.006 A 
ATOM     29  C   UNL     1       2.392  -3.874  -8.697  0.00  0.00    +0.009 A 
ATOM     30  C   UNL     1       3.631  -4.484  -8.511  0.00  0.00    -0.018 A 
ATOM     31  C   UNL     1       4.066  -4.787  -7.222  0.00  0.00    +0.009 A 
ATOM     32  C   UNL     1       3.268  -4.482  -6.138  0.00  0.00    +0.006 A 
BRANCH  30  33
ATOM     33  C   UNL     1       4.484  -4.811  -9.681  0.00  0.00    -0.018 A 
ATOM     34  C   UNL     1       5.725  -5.416  -9.494  0.00  0.00    +0.008 A 
ATOM     35  C   UNL     1       6.513  -5.721 -10.585  0.00  0.00    +0.001 A 
ATOM     36  C   UNL     1       6.076  -5.418 -11.862  0.00  0.00    +0.000 A 
ATOM     37  C   UNL     1       4.847  -4.812 -12.053  0.00  0.00    +0.001 A 
ATOM     38  C   UNL     1       4.050  -4.507 -10.969  0.00  0.00    +0.008 A 
ENDBRANCH  30  33
ENDBRANCH  26  27
ENDBRANCH  21  26
ENDBRANCH   1  22
TORSDOF 7
