REMARK  Name = ZINC64166201
REMARK  8 active torsions:
REMARK  status: ('A' for Active; 'I' for Inactive)
REMARK    1  A    between atoms: C_1  and  C_2
REMARK    2  A    between atoms: C_5  and  N_8
REMARK    3  A    between atoms: C_10  and  C_21
REMARK    4  A    between atoms: C_11  and  C_14
REMARK    5  A    between atoms: C_21  and  N_22
REMARK    6  A    between atoms: N_22  and  C_23
REMARK    7  A    between atoms: N_22  and  C_24
REMARK    8  A    between atoms: C_24  and  C_25
REMARK                            x       y       z     vdW  Elec       q    Type
REMARK                         _______ _______ _______ _____ _____    ______ ____
ROOT
ATOM      1  N   UNL     1       0.059  -4.168  -0.021  0.00  0.00    -0.242 N 
ATOM      2  C   UNL     1       0.069  -4.943  -1.164  0.00  0.00    +0.096 C 
ATOM      3  C   UNL     1       0.087  -6.230  -0.880  0.00  0.00    -0.018 C 
ATOM      4  C   UNL     1       0.089  -6.346   0.629  0.00  0.00    +0.131 C 
ATOM      5  N   UNL     1       0.075  -4.947   1.101  0.00  0.00    -0.225 NA
ATOM      6  H   UNL     1       0.885  -4.747   1.668  0.00  0.00    +0.146 HD
ENDROOT
BRANCH   1  11
ATOM      7  C   UNL     1      -0.018   1.503   0.010  0.00  0.00    +0.044 C 
ATOM      8  C   UNL     1       0.002  -0.004   0.002  0.00  0.00    -0.050 A 
ATOM      9  C   UNL     1       0.006  -0.687  -1.200  0.00  0.00    +0.005 A 
ATOM     10  C   UNL     1       0.025  -2.068  -1.212  0.00  0.00    +0.025 A 
ATOM     11  C   UNL     1       0.040  -2.771  -0.013  0.00  0.00    +0.049 A 
ATOM     12  C   UNL     1       0.037  -2.081   1.193  0.00  0.00    +0.025 A 
ATOM     13  C   UNL     1       0.023  -0.700   1.197  0.00  0.00    +0.005 A 
ENDBRANCH   1  11
BRANCH   4  14
ATOM     14  C   UNL     1      -1.138  -7.082   1.103  0.00  0.00    -0.025 A 
ATOM     15  C   UNL     1      -2.348  -6.419   1.197  0.00  0.00    +0.008 A 
ATOM     16  C   UNL     1      -3.473  -7.093   1.631  0.00  0.00    +0.038 A 
ATOM     17  C   UNL     1      -3.389  -8.432   1.972  0.00  0.00    +0.123 A 
ATOM     18  C   UNL     1      -2.177  -9.095   1.877  0.00  0.00    +0.038 A 
ATOM     19  C   UNL     1      -1.054  -8.420   1.438  0.00  0.00    +0.008 A 
ATOM     20  F   UNL     1      -4.489  -9.092   2.396  0.00  0.00    -0.205 F 
ENDBRANCH   4  14
BRANCH   3  21
ATOM     21  C   UNL     1       0.101  -7.368  -1.869  0.00  0.00    +0.118 C 
BRANCH  21  22
ATOM     22  N   UNL     1       1.487  -7.798  -2.100  0.00  0.00    -0.294 NA
ATOM     23  C   UNL     1       2.065  -8.384  -0.883  0.00  0.00    +0.105 C 
BRANCH  22  24
ATOM     24  C   UNL     1       1.565  -8.738  -3.226  0.00  0.00    +0.156 C 
BRANCH  24  25
ATOM     25  C   UNL     1       3.010  -8.966  -3.590  0.00  0.00    +0.099 A 
ATOM     26  N   UNL     1       4.019  -8.171  -3.271  0.00  0.00    -0.349 N 
ATOM     27  C   UNL     1       5.152  -8.707  -3.771  0.00  0.00    +0.101 A 
ATOM     28  C   UNL     1       4.813  -9.848  -4.402  0.00  0.00    +0.101 A 
ATOM     29  N   UNL     1       3.478  -9.996  -4.276  0.00  0.00    -0.349 N 
ATOM     30  H   UNL     1       2.951 -10.731  -4.629  0.00  0.00    +0.166 HD
ATOM     31  H   UNL     1       3.955  -7.346  -2.766  0.00  0.00    +0.166 HD
ENDBRANCH  24  25
ENDBRANCH  22  24
ENDBRANCH  21  22
ENDBRANCH   3  21
TORSDOF 6
