REMARK  Name = ZINC23038353
REMARK  8 active torsions:
REMARK  status: ('A' for Active; 'I' for Inactive)
REMARK    1  A    between atoms: C_1  and  C_2
REMARK    2  A    between atoms: C_4  and  C_28
REMARK    3  A    between atoms: C_6  and  N_13
REMARK    4  A    between atoms: C_14  and  C_16
REMARK    5  A    between atoms: C_16  and  N_17
REMARK    6  A    between atoms: N_17  and  C_18
REMARK    7  A    between atoms: N_17  and  C_19
REMARK    8  A    between atoms: C_19  and  C_20
REMARK                            x       y       z     vdW  Elec       q    Type
REMARK                         _______ _______ _______ _____ _____    ______ ____
ROOT
ATOM      1  N   UNL     1       0.002  -0.004   0.002  0.00  0.00    -0.257 N 
ATOM      2  C   UNL     1      -0.016   1.344   0.009  0.00  0.00    +0.203 C 
ATOM      3  O   UNL     1       1.026   1.964   0.003  0.00  0.00    -0.277 OA
ATOM      4  H   UNL     1      -0.943  -0.567   0.008  0.00  0.00    +0.158 HD
ENDROOT
BRANCH   1  10
ATOM      5  C   UNL     1       4.787  -3.957  -0.065  0.00  0.00    +0.068 C 
ATOM      6  C   UNL     1       3.309  -3.661  -0.049  0.00  0.00    +0.070 A 
ATOM      7  C   UNL     1       2.836  -2.273  -0.038  0.00  0.00    +0.053 A 
ATOM      8  C   UNL     1       3.399  -1.047  -0.037  0.00  0.00    +0.114 A 
ATOM      9  O   UNL     1       2.428  -0.116  -0.028  0.00  0.00    -0.445 OA
ATOM     10  C   UNL     1       1.210  -0.680  -0.013  0.00  0.00    +0.206 A 
ATOM     11  C   UNL     1       1.370  -2.044  -0.022  0.00  0.00    +0.110 A 
ATOM     12  C   UNL     1       0.503  -3.218  -0.019  0.00  0.00    +0.277 A 
ATOM     13  O   UNL     1      -0.709  -3.095  -0.006  0.00  0.00    -0.266 OA
ATOM     14  N   UNL     1       1.071  -4.443  -0.031  0.00  0.00    -0.242 N 
ATOM     15  H   UNL     1       0.437  -5.342  -0.029  0.00  0.00    +0.192 HD
ATOM     16  N   UNL     1       2.450  -4.633  -0.046  0.00  0.00    -0.175 NA
ATOM     17  C   UNL     1       4.880  -0.765  -0.050  0.00  0.00    +0.087 C 
ENDBRANCH   1  10
BRANCH   2  18
ATOM     18  C   UNL     1      -1.331   2.079   0.020  0.00  0.00    +0.019 C 
BRANCH  18  19
ATOM     19  N   UNL     1      -1.083   3.527   0.026  0.00  0.00    +0.386 N 
ATOM     20  C   UNL     1      -0.451   3.958  -1.228  0.00  0.00    -0.095 C 
ATOM     21  H   UNL     1      -0.386   3.747   0.849  0.00  0.00    -0.081 HD
BRANCH  19  22
ATOM     22  C   UNL     1      -2.323   4.273   0.274  0.00  0.00    -0.041 C 
BRANCH  22  23
ATOM     23  C   UNL     1      -1.997   5.724   0.518  0.00  0.00    -0.046 A 
ATOM     24  C   UNL     1      -2.247   6.663  -0.465  0.00  0.00    +0.004 A 
ATOM     25  C   UNL     1      -1.948   7.994  -0.242  0.00  0.00    +0.020 A 
ATOM     26  C   UNL     1      -1.398   8.387   0.966  0.00  0.00    +0.042 A 
ATOM     27  C   UNL     1      -1.148   7.448   1.949  0.00  0.00    +0.040 A 
ATOM     28  C   UNL     1      -1.452   6.117   1.728  0.00  0.00    +0.044 A 
ATOM     29 CL   UNL     1      -1.144   4.938   2.964  0.00  0.00    -0.083 Cl
ATOM     30 CL   UNL     1      -1.022  10.059   1.245  0.00  0.00    -0.083 Cl
ENDBRANCH  22  23
ENDBRANCH  19  22
ENDBRANCH  18  19
ENDBRANCH   2  18
TORSDOF 5
