REMARK  Name = ZINC16037547
REMARK  4 active torsions:
REMARK  status: ('A' for Active; 'I' for Inactive)
REMARK    1  A    between atoms: C_1  and  C_2
REMARK    2  A    between atoms: C_5  and  N_8
REMARK    3  A    between atoms: C_24  and  C_30
REMARK    4  A    between atoms: C_30  and  C_32
REMARK                            x       y       z     vdW  Elec       q    Type
REMARK                         _______ _______ _______ _____ _____    ______ ____
ROOT
ATOM      1  N   UNL     1      -2.669   2.917   4.677  0.00  0.00    -0.210 N 
ATOM      2  C   UNL     1      -2.047   3.064   5.853  0.00  0.00    +0.232 C 
ATOM      3  O   UNL     1      -0.878   2.822   6.061  0.00  0.00    -0.274 OA
ATOM      4  C   UNL     1      -3.027   3.579   6.880  0.00  0.00    +0.114 C 
ATOM      5  C   UNL     1      -3.299   2.502   7.932  0.00  0.00    +0.110 C 
ATOM      6  C   UNL     1      -2.110   1.663   8.289  0.00  0.00    -0.003 C 
ATOM      7  C   UNL     1      -2.372   0.458   8.829  0.00  0.00    +0.007 C 
ATOM      8  C   UNL     1      -3.795   0.088   9.016  0.00  0.00    -0.004 A 
ATOM      9  C   UNL     1      -4.185  -0.843   9.970  0.00  0.00    +0.010 A 
ATOM     10  C   UNL     1      -5.522  -1.163  10.107  0.00  0.00    +0.001 A 
ATOM     11  C   UNL     1      -6.473  -0.562   9.300  0.00  0.00    +0.002 A 
ATOM     12  C   UNL     1      -6.099   0.368   8.347  0.00  0.00    +0.024 A 
ATOM     13  C   UNL     1      -4.767   0.703   8.197  0.00  0.00    +0.038 A 
ATOM     14  N   UNL     1      -4.319   1.631   7.290  0.00  0.00    -0.311 N 
ATOM     15  C   UNL     1      -5.289   2.589   6.701  0.00  0.00    +0.158 C 
ATOM     16  C   UNL     1      -4.365   3.675   6.084  0.00  0.00    +0.118 C 
ATOM     17  C   UNL     1      -3.969   3.233   4.693  0.00  0.00    +0.232 C 
ATOM     18  O   UNL     1      -4.714   3.174   3.739  0.00  0.00    -0.274 OA
ENDROOT
BRANCH   1  23
ATOM     19  C   UNL     1      -0.015   1.085   0.007  0.00  0.00    +0.044 C 
ATOM     20  C   UNL     1      -0.719   1.571   1.248  0.00  0.00    -0.050 A 
ATOM     21  C   UNL     1      -1.692   0.787   1.841  0.00  0.00    +0.005 A 
ATOM     22  C   UNL     1      -2.335   1.228   2.981  0.00  0.00    +0.024 A 
ATOM     23  C   UNL     1      -2.013   2.465   3.524  0.00  0.00    +0.044 A 
ATOM     24  C   UNL     1      -1.040   3.252   2.923  0.00  0.00    +0.024 A 
ATOM     25  C   UNL     1      -0.396   2.803   1.787  0.00  0.00    +0.005 A 
ENDBRANCH   1  23
BRANCH  15  26
ATOM     26  C   UNL     1      -6.167   3.186   7.770  0.00  0.00    +0.184 C 
ATOM     27  O   UNL     1      -5.875   3.052   8.939  0.00  0.00    -0.290 OA
BRANCH  26  28
ATOM     28  C   UNL     1      -7.380   3.931   7.396  0.00  0.00    +0.019 A 
ATOM     29  C   UNL     1      -7.717   4.093   6.048  0.00  0.00    +0.011 A 
ATOM     30  C   UNL     1      -8.858   4.787   5.706  0.00  0.00    +0.001 A 
ATOM     31  C   UNL     1      -9.662   5.334   6.691  0.00  0.00    +0.000 A 
ATOM     32  C   UNL     1      -9.332   5.183   8.027  0.00  0.00    +0.001 A 
ATOM     33  C   UNL     1      -8.197   4.486   8.385  0.00  0.00    +0.011 A 
ENDBRANCH  26  28
ENDBRANCH  15  26
TORSDOF 3
