REMARK  Name = ZINC05798048
REMARK  8 active torsions:
REMARK  status: ('A' for Active; 'I' for Inactive)
REMARK    1  A    between atoms: C_1  and  C_2
REMARK    2  A    between atoms: C_2  and  C_3
REMARK    3  A    between atoms: C_2  and  C_4
REMARK    4  A    between atoms: C_7  and  C_10
REMARK    5  A    between atoms: C_10  and  C_30
REMARK    6  A    between atoms: N_13  and  C_17
REMARK    7  A    between atoms: C_17  and  C_18
REMARK    8  A    between atoms: C_18  and  C_20
REMARK                            x       y       z     vdW  Elec       q    Type
REMARK                         _______ _______ _______ _____ _____    ______ ____
ROOT
ATOM      1  C   UNL     1       7.174  -3.382   0.527  0.00  0.00    +0.135 C 
ATOM      2  C   UNL     1       5.820  -2.920   1.028  0.00  0.00    +0.251 C 
ATOM      3  O   UNL     1       5.467  -2.801   2.182  0.00  0.00    -0.272 OA
ATOM      4  N   UNL     1       5.089  -2.670  -0.076  0.00  0.00    -0.216 N 
ATOM      5  C   UNL     1       5.785  -2.910  -1.194  0.00  0.00    +0.310 C 
ATOM      6  O   UNL     1       5.338  -2.761  -2.314  0.00  0.00    -0.252 OA
ATOM      7  N   UNL     1       7.037  -3.333  -0.938  0.00  0.00    -0.281 N 
ATOM      8  C   UNL     1       7.462  -4.810   0.994  0.00  0.00    +0.047 C 
ATOM      9  H   UNL     1       7.715  -3.563  -1.592  0.00  0.00    +0.152 HD
ENDROOT
BRANCH   1  13
ATOM     10  C   UNL     1      10.247  -0.720   1.839  0.00  0.00    -0.045 A 
ATOM     11  C   UNL     1      10.387  -1.404   0.645  0.00  0.00    +0.004 A 
ATOM     12  C   UNL     1       9.393  -2.265   0.221  0.00  0.00    +0.006 A 
ATOM     13  C   UNL     1       8.258  -2.443   0.990  0.00  0.00    -0.015 A 
ATOM     14  C   UNL     1       8.116  -1.755   2.181  0.00  0.00    +0.006 A 
ATOM     15  C   UNL     1       9.112  -0.897   2.607  0.00  0.00    +0.004 A 
BRANCH  10  17
ATOM     16  C   UNL     1      10.757   1.630   2.444  0.00  0.00    +0.012 C 
ATOM     17  C   UNL     1      11.331   0.219   2.301  0.00  0.00    +0.013 C 
ATOM     18  C   UNL     1      11.870  -0.251   3.654  0.00  0.00    +0.012 C 
ENDBRANCH  10  17
ENDBRANCH   1  13
BRANCH   4  19
ATOM     19  C   UNL     1       3.703  -2.197  -0.056  0.00  0.00    +0.197 C 
BRANCH  19  20
ATOM     20  C   UNL     1       3.685  -0.690  -0.047  0.00  0.00    +0.181 C 
ATOM     21  O   UNL     1       4.729  -0.072  -0.056  0.00  0.00    -0.290 OA
BRANCH  20  22
ATOM     22  C   UNL     1       2.405   0.029  -0.027  0.00  0.00    +0.023 A 
ATOM     23  C   UNL     1       1.199  -0.682  -0.016  0.00  0.00    +0.015 A 
ATOM     24  C   UNL     1       0.002  -0.004   0.002  0.00  0.00    +0.050 A 
ATOM     25  C   UNL     1      -0.017   1.387   0.010  0.00  0.00    +0.162 A 
ATOM     26  C   UNL     1       1.179   2.102   0.002  0.00  0.00    +0.163 A 
ATOM     27  C   UNL     1       2.386   1.429  -0.017  0.00  0.00    +0.060 A 
ATOM     28  O   UNL     1       1.177   3.463   0.018  0.00  0.00    -0.485 OA
ATOM     29  C   UNL     1      -0.051   4.109  -0.338  0.00  0.00    +0.270 C 
ATOM     30  C   UNL     1      -1.195   3.411   0.411  0.00  0.00    +0.270 C 
ATOM     31  O   UNL     1      -1.212   2.034   0.019  0.00  0.00    -0.485 OA
ENDBRANCH  20  22
ENDBRANCH  19  20
ENDBRANCH   4  19
TORSDOF 5
