REMARK  Name = ZINC25603010
REMARK  6 active torsions:
REMARK  status: ('A' for Active; 'I' for Inactive)
REMARK    1  A    between atoms: C_4  and  C_7
REMARK    2  A    between atoms: C_7  and  N_8
REMARK    3  A    between atoms: C_11  and  N_14
REMARK    4  A    between atoms: C_15  and  C_17
REMARK    5  A    between atoms: C_17  and  S_18
REMARK    6  A    between atoms: S_18  and  C_19
REMARK                            x       y       z     vdW  Elec       q    Type
REMARK                         _______ _______ _______ _____ _____    ______ ____
ROOT
ATOM      1  N   UNL     1       3.546  -6.360  -0.068  0.00  0.00    -0.314 N 
ATOM      2  C   UNL     1       4.286  -5.234  -0.069  0.00  0.00    +0.223 C 
ATOM      3  O   UNL     1       5.497  -5.304  -0.081  0.00  0.00    -0.275 OA
ATOM      4  H   UNL     1       2.448  -6.297  -0.057  0.00  0.00    +0.149 HD
ENDROOT
BRANCH   1   8
ATOM      5  N   UNL     1       3.008  -9.722  -0.579  0.00  0.00    +0.384 N 
ATOM      6  C   UNL     1       4.173  -9.635  -1.495  0.00  0.00    -0.077 C 
ATOM      7  C   UNL     1       4.481  -8.115  -1.536  0.00  0.00    +0.002 C 
ATOM      8  C   UNL     1       4.204  -7.669  -0.082  0.00  0.00    +0.055 C 
ATOM      9  C   UNL     1       3.268  -8.745   0.499  0.00  0.00    -0.056 C 
ATOM     10  H   UNL     1       2.062  -9.507  -1.099  0.00  0.00    -0.081 HD
BRANCH   5  11
ATOM     11  C   UNL     1       2.865 -11.080  -0.036  0.00  0.00    -0.043 C 
BRANCH  11  15
ATOM     12  C   UNL     1       1.439 -13.696  -3.097  0.00  0.00    +0.000 A 
ATOM     13  C   UNL     1       2.798 -13.518  -2.918  0.00  0.00    +0.000 A 
ATOM     14  C   UNL     1       3.260 -12.671  -1.928  0.00  0.00    +0.002 A 
ATOM     15  C   UNL     1       2.362 -12.003  -1.116  0.00  0.00    -0.064 A 
ATOM     16  C   UNL     1       1.003 -12.186  -1.291  0.00  0.00    +0.002 A 
ATOM     17  C   UNL     1       0.542 -13.028  -2.285  0.00  0.00    +0.000 A 
ENDBRANCH  11  15
ENDBRANCH   5  11
ENDBRANCH   1   8
BRANCH   2  18
ATOM     18  C   UNL     1       3.609  -3.888  -0.055  0.00  0.00    +0.173 C 
BRANCH  18  19
ATOM     19  S   UNL     1       4.863  -2.582  -0.059  0.00  0.00    -0.078 S 
BRANCH  19  20
ATOM     20  C   UNL     1       3.823  -1.159  -0.041  0.00  0.00    +0.170 A 
ATOM     21  N   UNL     1       4.402   0.073  -0.040  0.00  0.00    -0.301 N 
ATOM     22  H   UNL     1       5.498   0.165  -0.050  0.00  0.00    +0.171 HD
ATOM     23  C   UNL     1       3.688   1.223  -0.026  0.00  0.00    +0.261 A 
ATOM     24  O   UNL     1       4.224   2.318  -0.025  0.00  0.00    -0.267 OA
ATOM     25  C   UNL     1       2.263   1.074  -0.013  0.00  0.00    +0.075 A 
ATOM     26  C   UNL     1       1.278   2.143   0.001  0.00  0.00    -0.023 A 
ATOM     27  C   UNL     1      -0.022   1.771   0.012  0.00  0.00    -0.004 A 
ATOM     28  S   UNL     1       0.002  -0.004   0.002  0.00  0.00    -0.073 S 
ATOM     29  C   UNL     1       1.751  -0.243  -0.016  0.00  0.00    +0.117 A 
ATOM     30  N   UNL     1       2.508  -1.333  -0.029  0.00  0.00    -0.216 NA
ATOM     31  C   UNL     1      -1.222   2.667   0.034  0.00  0.00    +0.043 C 
ATOM     32  C   UNL     1      -0.767   4.084   0.404  0.00  0.00    +0.005 C 
ATOM     33  C   UNL     1       0.456   4.447  -0.444  0.00  0.00    +0.005 C 
ATOM     34  C   UNL     1       1.662   3.621   0.005  0.00  0.00    +0.037 C 
ENDBRANCH  19  20
ENDBRANCH  18  19
ENDBRANCH   2  18
TORSDOF 6
