REMARK  Name = ZINC54729806
REMARK  7 active torsions:
REMARK  status: ('A' for Active; 'I' for Inactive)
REMARK    1  A    between atoms: C_1  and  C_2
REMARK    2  A    between atoms: C_5  and  C_7
REMARK    3  A    between atoms: C_7  and  C_9
REMARK    4  A    between atoms: C_7  and  N_10
REMARK    5  A    between atoms: N_13  and  C_14
REMARK    6  A    between atoms: N_13  and  C_15
REMARK    7  A    between atoms: C_15  and  C_16
REMARK                            x       y       z     vdW  Elec       q    Type
REMARK                         _______ _______ _______ _____ _____    ______ ____
ROOT
ATOM      1  N   UNL     1       2.201  -4.137  -0.921  0.00  0.00    -0.292 N 
ATOM      2  C   UNL     1       2.539  -5.311  -1.489  0.00  0.00    +0.303 C 
ATOM      3  O   UNL     1       1.883  -6.309  -1.260  0.00  0.00    -0.253 OA
ATOM      4  N   UNL     1       3.605  -5.380  -2.311  0.00  0.00    -0.285 N 
ATOM      5  C   UNL     1       4.396  -4.179  -2.587  0.00  0.00    +0.133 C 
ATOM      6  H   UNL     1       2.725  -3.341  -1.103  0.00  0.00    +0.151 HD
ENDROOT
BRANCH   1   7
ATOM      7  C   UNL     1       1.043  -4.062  -0.027  0.00  0.00    +0.108 C 
ATOM      8  C   UNL     1       1.465  -4.458   1.389  0.00  0.00    +0.033 C 
BRANCH   7  13
ATOM      9  C   UNL     1      -0.018   1.503   0.010  0.00  0.00    +0.051 C 
ATOM     10  C   UNL     1       0.002  -0.004   0.002  0.00  0.00    -0.013 A 
ATOM     11  C   UNL     1      -1.039  -0.872   0.002  0.00  0.00    +0.011 A 
ATOM     12  C   UNL     1      -0.780  -2.230  -0.007  0.00  0.00    +0.013 A 
ATOM     13  C   UNL     1       0.507  -2.653  -0.016  0.00  0.00    +0.010 A 
ATOM     14  S   UNL     1       1.404  -1.109  -0.018  0.00  0.00    -0.097 S 
ENDBRANCH   7  13
ENDBRANCH   1   7
BRANCH   4  15
ATOM     15  C   UNL     1       3.972  -6.657  -2.929  0.00  0.00    +0.157 C 
BRANCH  15  16
ATOM     16  C   UNL     1       3.250  -6.801  -4.270  0.00  0.00    +0.228 C 
ATOM     17  C   UNL     1       3.544  -8.183  -4.870  0.00  0.00    +0.275 C 
ATOM     18  O   UNL     1       2.867  -8.278  -6.128  0.00  0.00    -0.485 OA
ATOM     19  C   UNL     1       2.984  -7.214  -6.968  0.00  0.00    +0.162 A 
ATOM     20  C   UNL     1       2.676  -7.370  -8.311  0.00  0.00    +0.049 A 
ATOM     21  C   UNL     1       2.788  -6.298  -9.176  0.00  0.00    +0.004 A 
ATOM     22  C   UNL     1       3.206  -5.068  -8.705  0.00  0.00    +0.004 A 
ATOM     23  C   UNL     1       3.516  -4.906  -7.368  0.00  0.00    +0.049 A 
ATOM     24  C   UNL     1       3.408  -5.978  -6.495  0.00  0.00    +0.163 A 
ATOM     25  O   UNL     1       3.725  -5.805  -5.183  0.00  0.00    -0.480 OA
ENDBRANCH  15  16
ENDBRANCH   4  15
TORSDOF 4
