REMARK  Name = ZINC21240578
REMARK  2 active torsions:
REMARK  status: ('A' for Active; 'I' for Inactive)
REMARK    1  A    between atoms: C_8  and  C_26
REMARK    2  A    between atoms: C_14  and  C_19
REMARK                            x       y       z     vdW  Elec       q    Type
REMARK                         _______ _______ _______ _____ _____    ______ ____
ROOT
ATOM      1  C   UNL     1      -0.057   5.066   2.411  0.00  0.00    +0.002 A 
ATOM      2  C   UNL     1      -0.712   5.815   1.450  0.00  0.00    +0.002 A 
ATOM      3  C   UNL     1      -1.405   5.189   0.428  0.00  0.00    +0.025 A 
ATOM      4  C   UNL     1      -1.433   3.806   0.376  0.00  0.00    +0.052 A 
ATOM      5  C   UNL     1      -0.744   3.054   1.315  0.00  0.00    +0.049 A 
ATOM      6  C   UNL     1      -0.070   3.683   2.350  0.00  0.00    +0.025 A 
ATOM      7  N   UNL     1      -0.693   1.671   1.144  0.00  0.00    -0.331 N 
ATOM      8  C   UNL     1      -0.013   1.086   0.008  0.00  0.00    +0.137 C 
ATOM      9  C   UNL     1      -0.640   1.405  -1.328  0.00  0.00    +0.036 C 
ATOM     10  C   UNL     1      -1.593   2.326  -1.552  0.00  0.00    +0.017 C 
ATOM     11  N   UNL     1      -2.146   3.113  -0.595  0.00  0.00    -0.316 N 
ATOM     12  C   UNL     1      -2.144   2.542  -2.951  0.00  0.00    +0.059 C 
ATOM     13  C   UNL     1      -1.059   2.264  -3.989  0.00  0.00    +0.032 C 
ATOM     14  C   UNL     1      -0.603   0.811  -3.810  0.00  0.00    +0.088 C 
ATOM     15  C   UNL     1      -0.132   0.631  -2.398  0.00  0.00    +0.163 C 
ATOM     16  O   UNL     1       0.715  -0.209  -2.165  0.00  0.00    -0.292 OA
ATOM     17  H   UNL     1      -1.178   1.022   1.888  0.00  0.00    +0.147 HD
ATOM     18  H   UNL     1      -3.244   3.181  -0.624  0.00  0.00    +0.152 HD
ENDROOT
BRANCH   8  19
ATOM     19  C   UNL     1       1.411   1.581  -0.003  0.00  0.00    -0.005 A 
ATOM     20  C   UNL     1       1.813   2.502  -0.952  0.00  0.00    +0.056 A 
ATOM     21  C   UNL     1       3.121   2.959  -0.963  0.00  0.00    +0.167 A 
ATOM     22  C   UNL     1       4.028   2.488  -0.017  0.00  0.00    +0.167 A 
ATOM     23  C   UNL     1       3.619   1.564   0.930  0.00  0.00    +0.065 A 
ATOM     24  C   UNL     1       2.310   1.116   0.940  0.00  0.00    +0.027 A 
ATOM     25 BR   UNL     1       1.751  -0.138   2.239  0.00  0.00    -0.050 Br
ATOM     26  O   UNL     1       5.237   3.084  -0.237  0.00  0.00    -0.453 OA
ATOM     27  C   UNL     1       5.167   3.613  -1.574  0.00  0.00    +0.466 C 
ATOM     28  O   UNL     1       3.761   3.851  -1.775  0.00  0.00    -0.453 OA
ENDBRANCH   8  19
BRANCH  13  29
ATOM     29  C   UNL     1      -1.617   2.459  -5.376  0.00  0.00    -0.043 A 
ATOM     30  C   UNL     1      -2.682   1.689  -5.806  0.00  0.00    +0.007 A 
ATOM     31  C   UNL     1      -3.197   1.870  -7.075  0.00  0.00    +0.038 A 
ATOM     32  C   UNL     1      -2.640   2.815  -7.920  0.00  0.00    +0.123 A 
ATOM     33  C   UNL     1      -1.570   3.581  -7.490  0.00  0.00    +0.038 A 
ATOM     34  C   UNL     1      -1.059   3.402  -6.218  0.00  0.00    +0.007 A 
ATOM     35  F   UNL     1      -3.140   2.989  -9.163  0.00  0.00    -0.205 F 
ENDBRANCH  13  29
TORSDOF 2
