REMARK  Name = ZINC04250872
REMARK  6 active torsions:
REMARK  status: ('A' for Active; 'I' for Inactive)
REMARK    1  A    between atoms: C_1  and  C_2
REMARK    2  A    between atoms: C_3  and  C_26
REMARK    3  A    between atoms: N_4  and  C_20
REMARK    4  A    between atoms: N_10  and  C_19
REMARK    5  A    between atoms: N_13  and  C_16
REMARK    6  A    between atoms: C_16  and  C_17
REMARK                            x       y       z     vdW  Elec       q    Type
REMARK                         _______ _______ _______ _____ _____    ______ ____
ROOT
ATOM      1  C   UNL     1      -5.207  -2.609  -0.191  0.00  0.00    +0.066 C 
ATOM      2  C   UNL     1      -5.373  -2.163  -1.621  0.00  0.00    +0.043 A 
ATOM      3  C   UNL     1      -6.188  -2.710  -2.517  0.00  0.00    +0.039 A 
ATOM      4  N   UNL     1      -6.050  -2.017  -3.705  0.00  0.00    -0.311 N 
ATOM      5  C   UNL     1      -5.124  -1.027  -3.508  0.00  0.00    +0.218 A 
ATOM      6  N   UNL     1      -4.703  -1.113  -2.225  0.00  0.00    -0.275 N 
ATOM      7  C   UNL     1      -3.767  -0.107  -2.037  0.00  0.00    +0.157 A 
ATOM      8  C   UNL     1      -3.661   0.562  -3.256  0.00  0.00    +0.170 A 
ATOM      9  N   UNL     1      -4.496  -0.026  -4.109  0.00  0.00    -0.193 NA
ATOM     10  N   UNL     1      -2.783   1.630  -3.357  0.00  0.00    -0.279 N 
ATOM     11  C   UNL     1      -2.054   2.007  -2.289  0.00  0.00    +0.334 A 
ATOM     12  O   UNL     1      -1.292   2.948  -2.393  0.00  0.00    -0.246 OA
ATOM     13  N   UNL     1      -2.146   1.365  -1.112  0.00  0.00    -0.255 N 
ATOM     14  C   UNL     1      -2.983   0.319  -0.952  0.00  0.00    +0.283 A 
ATOM     15  O   UNL     1      -3.059  -0.250   0.123  0.00  0.00    -0.265 OA
ATOM     16  C   UNL     1      -2.651   2.352  -4.625  0.00  0.00    +0.155 C 
ATOM     17  C   UNL     1      -7.105  -3.882  -2.279  0.00  0.00    +0.065 C 
ENDROOT
BRANCH   4  18
ATOM     18  C   UNL     1      -6.766  -2.292  -4.953  0.00  0.00    +0.090 C 
ATOM     19  C   UNL     1      -5.760  -2.623  -6.057  0.00  0.00    +0.025 C 
ATOM     20  C   UNL     1      -6.508  -2.911  -7.360  0.00  0.00    +0.002 C 
ATOM     21  C   UNL     1      -7.321  -1.679  -7.763  0.00  0.00    +0.000 C 
ATOM     22  C   UNL     1      -8.328  -1.348  -6.660  0.00  0.00    +0.002 C 
ATOM     23  C   UNL     1      -7.579  -1.060  -5.357  0.00  0.00    +0.025 C 
ENDBRANCH   4  18
BRANCH  13  24
ATOM     24  C   UNL     1      -1.328   1.812   0.018  0.00  0.00    +0.156 C 
BRANCH  24  25
ATOM     25  C   UNL     1      -0.013   1.076   0.008  0.00  0.00    -0.013 C 
ATOM     26  C   UNL     1       1.113   1.746   0.001  0.00  0.00    +0.005 C 
ENDBRANCH  24  25
ENDBRANCH  13  24
TORSDOF 3
