REMARK  Name = ZINC62564917
REMARK  5 active torsions:
REMARK  status: ('A' for Active; 'I' for Inactive)
REMARK    1  A    between atoms: C_1  and  C_2
REMARK    2  A    between atoms: C_5  and  S_8
REMARK    3  A    between atoms: S_8  and  N_11
REMARK    4  A    between atoms: N_11  and  C_12
REMARK    5  A    between atoms: C_17  and  C_18
REMARK                            x       y       z     vdW  Elec       q    Type
REMARK                         _______ _______ _______ _____ _____    ______ ____
ROOT
ATOM      1  C   UNL     1       2.383  -4.725   1.114  0.00  0.00    +0.058 A 
ATOM      2  C   UNL     1       1.784  -4.820   2.364  0.00  0.00    +0.025 A 
ATOM      3  C   UNL     1       2.510  -4.534   3.502  0.00  0.00    +0.002 A 
ATOM      4  C   UNL     1       3.838  -4.152   3.409  0.00  0.00    +0.001 A 
ATOM      5  C   UNL     1       4.449  -4.052   2.178  0.00  0.00    +0.013 A 
ATOM      6  C   UNL     1       3.730  -4.343   1.017  0.00  0.00    +0.035 A 
ENDROOT
BRANCH   6   7
ATOM      7  C   UNL     1       4.380  -4.244  -0.304  0.00  0.00    +0.101 C 
ATOM      8  N   UNL     1       3.718  -4.397  -1.441  0.00  0.00    -0.371 N 
ATOM      9  C   UNL     1       4.649  -4.239  -2.569  0.00  0.00    +0.132 C 
ATOM     10  C   UNL     1       6.001  -3.959  -1.882  0.00  0.00    +0.124 C 
ATOM     11  N   UNL     1       5.671  -3.989  -0.449  0.00  0.00    -0.329 N 
ATOM     12  H   UNL     1       6.300  -3.846   0.276  0.00  0.00    +0.147 HD
ATOM     13  H   UNL     1       2.770  -4.585  -1.517  0.00  0.00    +0.161 HD
ENDBRANCH   6   7
BRANCH   1  14
ATOM     14  N   UNL     1       1.654  -5.012  -0.033  0.00  0.00    -0.216 N 
ATOM     15  H   UNL     1       1.234  -4.294  -0.533  0.00  0.00    +0.174 HD
BRANCH  14  16
ATOM     16  S   UNL     1       1.503  -6.578  -0.548  0.00  0.00    +0.072 S 
ATOM     17  O   UNL     1       2.814  -7.127  -0.571  0.00  0.00    -0.150 OA
ATOM     18  O   UNL     1       0.670  -6.549  -1.699  0.00  0.00    -0.150 OA
BRANCH  16  23
ATOM     19  C   UNL     1      -1.547  -9.573   3.710  0.00  0.00    +0.044 C 
ATOM     20  C   UNL     1      -0.785  -8.825   2.647  0.00  0.00    -0.050 A 
ATOM     21  C   UNL     1      -1.466  -8.203   1.617  0.00  0.00    +0.005 A 
ATOM     22  C   UNL     1      -0.767  -7.517   0.641  0.00  0.00    +0.029 A 
ATOM     23  C   UNL     1       0.613  -7.452   0.696  0.00  0.00    +0.109 A 
ATOM     24  C   UNL     1       1.294  -8.073   1.726  0.00  0.00    +0.029 A 
ATOM     25  C   UNL     1       0.595  -8.755   2.704  0.00  0.00    +0.005 A 
ENDBRANCH  16  23
ENDBRANCH  14  16
ENDBRANCH   1  14
TORSDOF 4
