REMARK  Name = ZINC00523524
REMARK  4 active torsions:
REMARK  status: ('A' for Active; 'I' for Inactive)
REMARK    1  A    between atoms: C_1  and  C_2
REMARK    2  A    between atoms: N_14  and  N_18
REMARK    3  A    between atoms: C_15  and  C_17
REMARK    4  A    between atoms: C_19  and  C_20
REMARK                            x       y       z     vdW  Elec       q    Type
REMARK                         _______ _______ _______ _____ _____    ______ ____
ROOT
ATOM      1  C   UNL     1       5.539  -1.014   0.041  0.00  0.00    +0.044 C 
ATOM      2  C   UNL     1       4.048  -0.809  -0.040  0.00  0.00    -0.050 A 
ATOM      3  C   UNL     1       3.209  -1.904  -0.189  0.00  0.00    +0.005 A 
ATOM      4  C   UNL     1       1.845  -1.738  -0.265  0.00  0.00    +0.026 A 
ATOM      5  C   UNL     1       1.297  -0.459  -0.191  0.00  0.00    +0.049 A 
ATOM      6  C   UNL     1       2.152   0.647  -0.040  0.00  0.00    +0.026 A 
ATOM      7  C   UNL     1       3.532   0.454   0.034  0.00  0.00    +0.015 A 
ATOM      8  C   UNL     1       1.290   1.836   0.006  0.00  0.00    +0.104 A 
ATOM      9  C   UNL     1      -0.020   1.380  -0.119  0.00  0.00    +0.133 A 
ATOM     10  N   UNL     1      -0.002   0.003  -0.236  0.00  0.00    -0.349 N 
ATOM     11  H   UNL     1      -0.787  -0.557  -0.336  0.00  0.00    +0.166 HD
ATOM     12  C   UNL     1      -1.065   2.332  -0.111  0.00  0.00    +0.298 A 
ATOM     13  O   UNL     1      -2.228   1.983  -0.223  0.00  0.00    -0.263 OA
ATOM     14  N   UNL     1      -0.745   3.636   0.027  0.00  0.00    -0.181 N 
ATOM     15  C   UNL     1       0.554   4.018   0.145  0.00  0.00    +0.132 A 
ATOM     16  N   UNL     1       1.529   3.153   0.134  0.00  0.00    -0.230 NA
ATOM     17  C   UNL     1       0.877   5.482   0.292  0.00  0.00    +0.088 C 
ENDROOT
BRANCH  14  18
ATOM     18  N   UNL     1      -1.758   4.604   0.043  0.00  0.00    -0.170 NA
ATOM     19  C   UNL     1      -2.607   4.638   1.026  0.00  0.00    +0.144 C 
BRANCH  19  20
ATOM     20  C   UNL     1      -3.740   5.580   0.988  0.00  0.00    +0.030 A 
ATOM     21  C   UNL     1      -4.659   5.616   2.041  0.00  0.00    +0.012 A 
ATOM     22  C   UNL     1      -5.713   6.504   2.002  0.00  0.00    +0.001 A 
ATOM     23  C   UNL     1      -5.871   7.350   0.918  0.00  0.00    +0.003 A 
ATOM     24  C   UNL     1      -4.970   7.318  -0.131  0.00  0.00    +0.039 A 
ATOM     25  C   UNL     1      -3.905   6.438  -0.104  0.00  0.00    +0.132 A 
ATOM     26  F   UNL     1      -3.026   6.407  -1.129  0.00  0.00    -0.205 F 
ENDBRANCH  19  20
ENDBRANCH  14  18
TORSDOF 2
