REMARK  Name = ZINC02299945
REMARK  8 active torsions:
REMARK  status: ('A' for Active; 'I' for Inactive)
REMARK    1  A    between atoms: C_4  and  C_7
REMARK    2  A    between atoms: C_7  and  C_8
REMARK    3  A    between atoms: C_8  and  C_10
REMARK    4  A    between atoms: C_8  and  N_29
REMARK    5  A    between atoms: N_15  and  C_16
REMARK    6  A    between atoms: C_16  and  C_17
REMARK    7  A    between atoms: C_16  and  C_23
REMARK    8  A    between atoms: C_30  and  C_32
REMARK                            x       y       z     vdW  Elec       q    Type
REMARK                         _______ _______ _______ _____ _____    ______ ____
ROOT
ATOM      1  C   UNL     1      -0.016   1.344   0.009  0.00  0.00    +0.241 C 
ATOM      2  O   UNL     1       1.025   1.964   0.003  0.00  0.00    -0.273 OA
ATOM      3  N   UNL     1       0.002  -0.004   0.002  0.00  0.00    -0.239 N 
ATOM      4  C   UNL     1       1.178  -0.662  -0.013  0.00  0.00    +0.307 C 
ATOM      5  O   UNL     1       2.222  -0.040  -0.019  0.00  0.00    -0.252 OA
ATOM      6  N   UNL     1       1.196  -2.010  -0.020  0.00  0.00    -0.288 N 
ATOM      7  H   UNL     1      -0.831  -0.500   0.007  0.00  0.00    +0.159 HD
ATOM      8  H   UNL     1       0.363  -2.506  -0.015  0.00  0.00    +0.151 HD
ENDROOT
BRANCH   1   9
ATOM      9  C   UNL     1      -1.331   2.079   0.020  0.00  0.00    +0.164 C 
BRANCH   9  10
ATOM     10  N   UNL     1      -1.083   3.523   0.026  0.00  0.00    -0.300 N 
ATOM     11  C   UNL     1      -2.009   4.364   0.529  0.00  0.00    +0.245 C 
ATOM     12  O   UNL     1      -3.050   3.924   0.976  0.00  0.00    -0.270 OA
ATOM     13  H   UNL     1      -0.253   3.874  -0.331  0.00  0.00    +0.150 HD
BRANCH  11  14
ATOM     14  C   UNL     1      -1.759   5.821   0.535  0.00  0.00    +0.037 A 
ATOM     15  C   UNL     1      -0.562   6.329   0.028  0.00  0.00    +0.013 A 
ATOM     16  C   UNL     1      -0.337   7.690   0.032  0.00  0.00    +0.001 A 
ATOM     17  C   UNL     1      -1.290   8.550   0.548  0.00  0.00    +0.000 A 
ATOM     18  C   UNL     1      -2.476   8.053   1.058  0.00  0.00    +0.001 A 
ATOM     19  C   UNL     1      -2.716   6.694   1.055  0.00  0.00    +0.013 A 
ENDBRANCH  11  14
ENDBRANCH   9  10
BRANCH   9  20
ATOM     20  C   UNL     1      -2.135   1.706  -1.228  0.00  0.00    +0.067 C 
BRANCH  20  24
ATOM     21  C   UNL     1      -5.999   3.515  -1.029  0.00  0.00    +0.000 A 
ATOM     22  C   UNL     1      -4.949   4.190  -1.624  0.00  0.00    +0.000 A 
ATOM     23  C   UNL     1      -3.699   3.604  -1.688  0.00  0.00    +0.004 A 
ATOM     24  C   UNL     1      -3.498   2.344  -1.157  0.00  0.00    -0.045 A 
ATOM     25  C   UNL     1      -4.548   1.667  -0.567  0.00  0.00    +0.004 A 
ATOM     26  C   UNL     1      -5.798   2.255  -0.499  0.00  0.00    +0.000 A 
ENDBRANCH  20  24
ENDBRANCH   9  20
ENDBRANCH   1   9
BRANCH   6  27
ATOM     27  C   UNL     1       2.475  -2.725  -0.036  0.00  0.00    +0.135 C 
BRANCH  27  28
ATOM     28  C   UNL     1       2.291  -4.097   0.559  0.00  0.00    -0.023 A 
ATOM     29  C   UNL     1       1.149  -4.825   0.277  0.00  0.00    +0.006 A 
ATOM     30  C   UNL     1       0.982  -6.085   0.819  0.00  0.00    +0.000 A 
ATOM     31  C   UNL     1       1.952  -6.614   1.650  0.00  0.00    +0.000 A 
ATOM     32  C   UNL     1       3.090  -5.885   1.936  0.00  0.00    +0.000 A 
ATOM     33  C   UNL     1       3.260  -4.626   1.390  0.00  0.00    +0.006 A 
ENDBRANCH  27  28
BRANCH  27  34
ATOM     34  C   UNL     1       2.960  -2.854  -1.457  0.00  0.00    -0.023 A 
ATOM     35  C   UNL     1       2.064  -3.141  -2.470  0.00  0.00    +0.006 A 
ATOM     36  C   UNL     1       2.509  -3.255  -3.774  0.00  0.00    +0.000 A 
ATOM     37  C   UNL     1       3.851  -3.092  -4.064  0.00  0.00    +0.000 A 
ATOM     38  C   UNL     1       4.747  -2.811  -3.050  0.00  0.00    +0.000 A 
ATOM     39  C   UNL     1       4.302  -2.692  -1.747  0.00  0.00    +0.006 A 
ENDBRANCH  27  34
ENDBRANCH   6  27
TORSDOF 8
