REMARK  Name = ZINC02757731
REMARK  7 active torsions:
REMARK  status: ('A' for Active; 'I' for Inactive)
REMARK    1  A    between atoms: C_1  and  C_2
REMARK    2  A    between atoms: C_3  and  C_29
REMARK    3  A    between atoms: C_4  and  C_22
REMARK    4  A    between atoms: C_10  and  C_15
REMARK    5  A    between atoms: C_26  and  O_28
REMARK    6  A    between atoms: C_29  and  O_31
REMARK    7  A    between atoms: O_31  and  C_32
REMARK                            x       y       z     vdW  Elec       q    Type
REMARK                         _______ _______ _______ _____ _____    ______ ____
ROOT
ATOM      1  C   UNL     1      -0.018   1.503   0.010  0.00  0.00    +0.061 C 
ATOM      2  C   UNL     1       0.002  -0.004   0.002  0.00  0.00    +0.016 C 
ATOM      3  C   UNL     1      -1.155  -0.687   0.004  0.00  0.00    +0.065 C 
ATOM      4  C   UNL     1      -1.174  -2.188  -0.012  0.00  0.00    +0.092 C 
ATOM      5  C   UNL     1       0.164  -2.749   0.399  0.00  0.00    +0.024 C 
ATOM      6  C   UNL     1       1.272  -1.979   0.376  0.00  0.00    +0.016 C 
ATOM      7  N   UNL     1       1.198  -0.667  -0.013  0.00  0.00    -0.321 N 
ATOM      8  C   UNL     1       2.616  -2.539   0.768  0.00  0.00    +0.059 C 
ATOM      9  C   UNL     1       2.429  -3.633   1.822  0.00  0.00    +0.032 C 
ATOM     10  C   UNL     1       1.521  -4.720   1.240  0.00  0.00    +0.088 C 
ATOM     11  C   UNL     1       0.224  -4.094   0.806  0.00  0.00    +0.162 C 
ATOM     12  O   UNL     1      -0.791  -4.762   0.808  0.00  0.00    -0.292 OA
ATOM     13  H   UNL     1       2.000  -0.203  -0.298  0.00  0.00    +0.152 HD
ENDROOT
BRANCH   9  14
ATOM     14  C   UNL     1       3.768  -4.225   2.181  0.00  0.00    -0.043 A 
ATOM     15  C   UNL     1       4.541  -4.826   1.205  0.00  0.00    +0.005 A 
ATOM     16  C   UNL     1       5.769  -5.369   1.533  0.00  0.00    +0.020 A 
ATOM     17  C   UNL     1       6.225  -5.311   2.838  0.00  0.00    +0.041 A 
ATOM     18  C   UNL     1       5.451  -4.708   3.814  0.00  0.00    +0.020 A 
ATOM     19  C   UNL     1       4.225  -4.161   3.484  0.00  0.00    +0.005 A 
ATOM     20 CL   UNL     1       7.767  -5.993   3.251  0.00  0.00    -0.084 Cl
ENDBRANCH   9  14
BRANCH   4  21
ATOM     21  C   UNL     1      -1.503  -2.664  -1.404  0.00  0.00    -0.032 A 
ATOM     22  C   UNL     1      -0.678  -2.328  -2.462  0.00  0.00    +0.005 A 
ATOM     23  C   UNL     1      -0.977  -2.764  -3.739  0.00  0.00    +0.004 A 
ATOM     24  C   UNL     1      -2.102  -3.534  -3.962  0.00  0.00    +0.045 A 
ATOM     25  C   UNL     1      -2.931  -3.872  -2.903  0.00  0.00    +0.117 A 
ATOM     26  C   UNL     1      -2.625  -3.439  -1.620  0.00  0.00    +0.050 A 
BRANCH  25  27
ATOM     27  O   UNL     1      -4.037  -4.631  -3.119  0.00  0.00    -0.507 OA
ATOM     28  H   UNL     1      -3.883  -5.582  -3.044  0.00  0.00    +0.292 HD
ENDBRANCH  25  27
ENDBRANCH   4  21
BRANCH   3  29
ATOM     29  C   UNL     1      -2.380   0.021   0.021  0.00  0.00    +0.338 C 
ATOM     30  O   UNL     1      -2.378   1.238   0.035  0.00  0.00    -0.245 OA
BRANCH  29  31
ATOM     31  O   UNL     1      -3.549  -0.652   0.024  0.00  0.00    -0.458 OA
BRANCH  31  32
ATOM     32  C   UNL     1      -4.746   0.128   0.042  0.00  0.00    +0.177 C 
ATOM     33  C   UNL     1      -5.162   0.390   1.491  0.00  0.00    +0.044 C 
ATOM     34  C   UNL     1      -6.444   1.225   1.510  0.00  0.00    +0.004 C 
ATOM     35  C   UNL     1      -7.559   0.465   0.789  0.00  0.00    +0.000 C 
ATOM     36  C   UNL     1      -7.143   0.202  -0.659  0.00  0.00    +0.004 C 
ATOM     37  C   UNL     1      -5.861  -0.633  -0.679  0.00  0.00    +0.044 C 
ENDBRANCH  31  32
ENDBRANCH  29  31
ENDBRANCH   3  29
TORSDOF 6
