REMARK  Name = ZINC30961881
REMARK  15 active torsions:
REMARK  status: ('A' for Active; 'I' for Inactive)
REMARK    1  A    between atoms: C_1  and  C_2
REMARK    2  A    between atoms: C_5  and  C_8
REMARK    3  A    between atoms: N_10  and  C_11
REMARK    4  A    between atoms: C_11  and  C_13
REMARK    5  A    between atoms: C_11  and  C_16
REMARK    6  A    between atoms: C_13  and  C_14
REMARK    7  A    between atoms: C_13  and  C_15
REMARK    8  A    between atoms: N_18  and  N_19
REMARK    9  A    between atoms: C_20  and  C_21
REMARK   10  A    between atoms: C_24  and  O_29
REMARK   11  A    between atoms: C_25  and  O_27
REMARK   12  A    between atoms: O_27  and  C_28
REMARK   13  A    between atoms: O_29  and  C_30
REMARK   14  A    between atoms: C_30  and  C_31
REMARK   15  A    between atoms: C_36  and  C_37
REMARK                            x       y       z     vdW  Elec       q    Type
REMARK                         _______ _______ _______ _____ _____    ______ ____
ROOT
ATOM      1  N   UNL     1      -0.969  -4.349  -1.008  0.00  0.00    -0.188 NA
ATOM      2  C   UNL     1      -1.740  -5.380  -1.169  0.00  0.00    +0.138 C 
ENDROOT
BRANCH   2   3
ATOM      3  C   UNL     1      -3.178  -5.280  -0.860  0.00  0.00    -0.002 A 
ATOM      4  C   UNL     1      -3.761  -4.030  -0.636  0.00  0.00    +0.013 A 
ATOM      5  C   UNL     1      -5.107  -3.938  -0.352  0.00  0.00    +0.050 A 
ATOM      6  C   UNL     1      -5.883  -5.086  -0.275  0.00  0.00    +0.162 A 
ATOM      7  C   UNL     1      -5.308  -6.336  -0.491  0.00  0.00    +0.162 A 
ATOM      8  C   UNL     1      -3.960  -6.435  -0.782  0.00  0.00    +0.059 A 
BRANCH   7   9
ATOM      9  O   UNL     1      -6.072  -7.458  -0.415  0.00  0.00    -0.491 OA
ATOM     10  C   UNL     1      -5.415  -8.706  -0.647  0.00  0.00    +0.277 C 
ENDBRANCH   7   9
BRANCH   6  11
ATOM     11  O   UNL     1      -7.209  -4.990   0.011  0.00  0.00    -0.484 OA
BRANCH  11  12
ATOM     12  C   UNL     1      -7.734  -3.678   0.221  0.00  0.00    +0.266 C 
BRANCH  12  13
ATOM     13  C   UNL     1      -9.207  -3.769   0.525  0.00  0.00    +0.007 A 
ATOM     14  C   UNL     1      -9.832  -4.999   0.558  0.00  0.00    +0.008 A 
ATOM     15  C   UNL     1     -11.183  -5.085   0.841  0.00  0.00    +0.000 A 
ATOM     16  C   UNL     1     -11.920  -3.938   1.083  0.00  0.00    +0.001 A 
ATOM     17  C   UNL     1     -11.309  -2.702   1.048  0.00  0.00    +0.019 A 
ATOM     18  C   UNL     1      -9.944  -2.608   0.768  0.00  0.00    +0.058 A 
BRANCH  18  19
ATOM     19  C   UNL     1      -9.304  -1.328   0.730  0.00  0.00    +0.100 C 
ATOM     20  N   UNL     1      -8.796  -0.312   0.700  0.00  0.00    -0.191 NA
ENDBRANCH  18  19
ENDBRANCH  12  13
ENDBRANCH  11  12
ENDBRANCH   6  11
ENDBRANCH   2   3
BRANCH   1  23
ATOM     21  C   UNL     1      -0.584  -2.217  -0.022  0.00  0.00    +0.253 C 
ATOM     22  O   UNL     1       0.377  -2.069  -0.747  0.00  0.00    -0.272 OA
ATOM     23  N   UNL     1      -1.334  -3.332  -0.116  0.00  0.00    -0.205 N 
ATOM     24  H   UNL     1      -2.233  -3.445   0.507  0.00  0.00    +0.177 HD
BRANCH  21  25
ATOM     25  C   UNL     1      -0.940  -1.153   0.984  0.00  0.00    +0.163 C 
BRANCH  25  28
ATOM     26  C   UNL     1      -0.689   1.270   1.073  0.00  0.00    +0.245 C 
ATOM     27  O   UNL     1      -1.740   1.326   1.682  0.00  0.00    -0.270 OA
ATOM     28  N   UNL     1      -0.204   0.076   0.676  0.00  0.00    -0.300 N 
ATOM     29  H   UNL     1       0.744   0.025   0.120  0.00  0.00    +0.150 HD
BRANCH  26  34
ATOM     30  C   UNL     1       2.201   6.097  -0.136  0.00  0.00    +0.044 C 
ATOM     31  C   UNL     1       1.444   4.833   0.180  0.00  0.00    -0.050 A 
ATOM     32  C   UNL     1       0.251   4.901   0.878  0.00  0.00    +0.004 A 
ATOM     33  C   UNL     1      -0.447   3.747   1.171  0.00  0.00    +0.013 A 
ATOM     34  C   UNL     1       0.053   2.510   0.762  0.00  0.00    +0.037 A 
ATOM     35  C   UNL     1       1.259   2.448   0.062  0.00  0.00    +0.013 A 
ATOM     36  C   UNL     1       1.944   3.609  -0.229  0.00  0.00    +0.004 A 
ENDBRANCH  26  34
ENDBRANCH  25  28
BRANCH  25  37
ATOM     37  C   UNL     1      -0.565  -1.632   2.388  0.00  0.00    +0.012 C 
ATOM     38  C   UNL     1      -0.929  -0.553   3.410  0.00  0.00    +0.009 C 
ATOM     39  C   UNL     1      -1.332  -2.917   2.709  0.00  0.00    +0.009 C 
ENDBRANCH  25  37
ENDBRANCH  21  25
ENDBRANCH   1  23
TORSDOF 11
