REMARK  Name = ZINC08780728
REMARK  5 active torsions:
REMARK  status: ('A' for Active; 'I' for Inactive)
REMARK    1  A    between atoms: C_6  and  C_7
REMARK    2  A    between atoms: C_7  and  N_47
REMARK    3  A    between atoms: C_10  and  C_13
REMARK    4  A    between atoms: N_15  and  N_16
REMARK    5  A    between atoms: C_17  and  C_18
REMARK                            x       y       z     vdW  Elec       q    Type
REMARK                         _______ _______ _______ _____ _____    ______ ____
ROOT
ATOM      1  C   UNL     1       5.094  -8.359  -0.032  0.00  0.00    -0.078 C 
ATOM      2  C   UNL     1       5.071  -6.830  -0.085  0.00  0.00    -0.006 C 
ATOM      3  C   UNL     1       3.619  -6.345  -0.068  0.00  0.00    +0.073 C 
ATOM      4  C   UNL     1       2.926  -6.877   1.189  0.00  0.00    -0.006 C 
ATOM      5  C   UNL     1       3.011  -8.405   1.205  0.00  0.00    -0.078 C 
ATOM      6  N   UNL     1       4.433  -8.806   1.213  0.00  0.00    +0.382 N 
ATOM      7  H   UNL     1       4.899  -8.365   2.014  0.00  0.00    -0.081 HD
ENDROOT
BRANCH   3   8
ATOM      8  C   UNL     1       3.591  -4.838  -0.059  0.00  0.00    +0.235 C 
ATOM      9  O   UNL     1       4.630  -4.212  -0.066  0.00  0.00    -0.274 OA
ATOM     10  N   UNL     1       2.412  -4.186  -0.044  0.00  0.00    -0.207 N 
ATOM     11  H   UNL     1       1.581  -4.686  -0.040  0.00  0.00    +0.177 HD
BRANCH  10  12
ATOM     12  N   UNL     1       2.386  -2.785  -0.036  0.00  0.00    -0.188 NA
ATOM     13  C   UNL     1       1.250  -2.157  -0.022  0.00  0.00    +0.139 C 
BRANCH  13  14
ATOM     14  C   UNL     1       1.223  -0.683  -0.013  0.00  0.00    +0.013 A 
ATOM     15  C   UNL     1       0.002  -0.004   0.002  0.00  0.00    +0.012 A 
ATOM     16  C   UNL     1      -0.017   1.375   0.010  0.00  0.00    +0.021 A 
ATOM     17  C   UNL     1       1.171   2.087   0.002  0.00  0.00    +0.042 A 
ATOM     18  C   UNL     1       2.385   1.421  -0.013  0.00  0.00    +0.040 A 
ATOM     19  C   UNL     1       2.418   0.041  -0.021  0.00  0.00    +0.051 A 
ATOM     20 CL   UNL     1       3.941  -0.792  -0.041  0.00  0.00    -0.083 Cl
ATOM     21 CL   UNL     1       1.138   3.823   0.012  0.00  0.00    -0.083 Cl
ENDBRANCH  13  14
ENDBRANCH  10  12
ENDBRANCH   3   8
BRANCH   6  22
ATOM     22  C   UNL     1       4.543 -10.274   1.343  0.00  0.00    -0.043 C 
BRANCH  22  28
ATOM     23  C   UNL     1       4.949 -10.728   3.771  0.00  0.00    +0.003 A 
ATOM     24  C   UNL     1       4.507 -11.093   5.028  0.00  0.00    +0.015 A 
ATOM     25  C   UNL     1       3.176 -11.417   5.226  0.00  0.00    +0.018 A 
ATOM     26  C   UNL     1       2.289 -11.371   4.166  0.00  0.00    +0.015 A 
ATOM     27  C   UNL     1       2.732 -11.001   2.910  0.00  0.00    +0.003 A 
ATOM     28  C   UNL     1       4.061 -10.677   2.713  0.00  0.00    -0.064 A 
ATOM     29 BR   UNL     1       2.572 -11.923   6.944  0.00  0.00    -0.050 Br
ENDBRANCH  22  28
ENDBRANCH   6  22
TORSDOF 5
