REMARK  Name = ZINC15605716
REMARK  15 active torsions:
REMARK  status: ('A' for Active; 'I' for Inactive)
REMARK    1  A    between atoms: C_1  and  C_2
REMARK    2  A    between atoms: C_2  and  C_3
REMARK    3  A    between atoms: C_3  and  C_4
REMARK    4  A    between atoms: C_4  and  C_5
REMARK    5  A    between atoms: C_5  and  N_6
REMARK    6  A    between atoms: N_6  and  C_7
REMARK    7  A    between atoms: C_8  and  N_20
REMARK    8  A    between atoms: N_9  and  C_16
REMARK    9  A    between atoms: C_16  and  C_17
REMARK   10  A    between atoms: C_17  and  C_18
REMARK   11  A    between atoms: C_18  and  C_19
REMARK   12  A    between atoms: C_21  and  C_23
REMARK   13  A    between atoms: C_24  and  C_25
REMARK   14  A    between atoms: N_27  and  C_30
REMARK   15  A    between atoms: C_30  and  C_31
REMARK                            x       y       z     vdW  Elec       q    Type
REMARK                         _______ _______ _______ _____ _____    ______ ____
ROOT
ATOM      1  N   UNL     1       1.351  -1.986   0.057  0.00  0.00    -0.261 N 
ATOM      2  C   UNL     1       1.372  -0.639   0.105  0.00  0.00    +0.244 C 
ATOM      3  O   UNL     1       2.425  -0.052   0.280  0.00  0.00    -0.270 OA
ENDROOT
BRANCH   1   4
ATOM      4  C   UNL     1       2.559  -2.712   0.113  0.00  0.00    +0.140 A 
ATOM      5  C   UNL     1       3.507  -2.575  -0.880  0.00  0.00    +0.127 A 
ATOM      6  N   UNL     1       4.678  -3.293  -0.795  0.00  0.00    -0.280 N 
ATOM      7  C   UNL     1       4.890  -4.128   0.239  0.00  0.00    +0.331 A 
ATOM      8  O   UNL     1       5.929  -4.758   0.293  0.00  0.00    -0.246 OA
ATOM      9  N   UNL     1       3.975  -4.279   1.213  0.00  0.00    -0.273 N 
ATOM     10  H   UNL     1       4.158  -4.905   1.970  0.00  0.00    +0.173 HD
ATOM     11  C   UNL     1       2.815  -3.595   1.180  0.00  0.00    +0.277 A 
ATOM     12  O   UNL     1       1.992  -3.738   2.068  0.00  0.00    -0.266 OA
BRANCH   5  13
ATOM     13  N   UNL     1       3.288  -1.727  -1.939  0.00  0.00    -0.343 N 
ATOM     14  H   UNL     1       2.421  -1.308  -2.053  0.00  0.00    +0.144 HD
ATOM     15  H   UNL     1       4.000  -1.547  -2.572  0.00  0.00    +0.144 HD
ENDBRANCH   5  13
BRANCH   6  16
ATOM     16  C   UNL     1       5.696  -3.153  -1.839  0.00  0.00    +0.128 C 
BRANCH  16  17
ATOM     17  C   UNL     1       5.438  -4.179  -2.944  0.00  0.00    +0.021 C 
BRANCH  17  18
ATOM     18  C   UNL     1       6.501  -4.032  -4.034  0.00  0.00    -0.002 C 
ATOM     19  C   UNL     1       6.242  -5.058  -5.140  0.00  0.00    +0.004 C 
ENDBRANCH  17  18
ENDBRANCH  16  17
ENDBRANCH   6  16
ENDBRANCH   1   4
BRANCH   2  20
ATOM     20  C   UNL     1       0.131   0.117  -0.051  0.00  0.00    +0.070 C 
ATOM     21  C   UNL     1       0.151   1.466  -0.002  0.00  0.00    +0.036 C 
BRANCH  21  22
ATOM     22  C   UNL     1      -1.096   2.226  -0.165  0.00  0.00    +0.106 A 
ATOM     23  C   UNL     1      -1.215   3.599  -0.136  0.00  0.00    +0.138 A 
ATOM     24  N   UNL     1      -2.522   3.878  -0.326  0.00  0.00    -0.247 N 
ATOM     25  N   UNL     1      -3.183   2.650  -0.468  0.00  0.00    -0.065 NA
ATOM     26  N   UNL     1      -2.317   1.703  -0.374  0.00  0.00    -0.130 NA
BRANCH  24  27
ATOM     27  C   UNL     1      -3.133   5.209  -0.373  0.00  0.00    +0.180 C 
BRANCH  27  28
ATOM     28  C   UNL     1      -3.898   5.365  -1.662  0.00  0.00    -0.026 A 
ATOM     29  C   UNL     1      -3.268   5.873  -2.783  0.00  0.00    +0.005 A 
ATOM     30  C   UNL     1      -3.968   6.012  -3.966  0.00  0.00    +0.000 A 
ATOM     31  C   UNL     1      -5.301   5.651  -4.027  0.00  0.00    +0.000 A 
ATOM     32  C   UNL     1      -5.933   5.148  -2.905  0.00  0.00    +0.000 A 
ATOM     33  C   UNL     1      -5.231   5.004  -1.723  0.00  0.00    +0.005 A 
ENDBRANCH  27  28
ENDBRANCH  24  27
ENDBRANCH  21  22
ENDBRANCH   2  20
BRANCH   1  34
ATOM     34  C   UNL     1       0.074  -2.696  -0.055  0.00  0.00    +0.114 C 
BRANCH  34  35
ATOM     35  C   UNL     1      -0.334  -2.783  -1.527  0.00  0.00    +0.019 C 
BRANCH  35  36
ATOM     36  C   UNL     1      -1.667  -3.524  -1.644  0.00  0.00    +0.001 C 
BRANCH  36  38
ATOM     37  C   UNL     1      -3.409  -4.352  -3.232  0.00  0.00    +0.004 C 
ATOM     38  C   UNL     1      -2.075  -3.611  -3.116  0.00  0.00    -0.003 C 
ENDBRANCH  36  38
ENDBRANCH  35  36
ENDBRANCH  34  35
ENDBRANCH   1  34
TORSDOF 13
