REMARK  Name = ZINC57480151
REMARK  5 active torsions:
REMARK  status: ('A' for Active; 'I' for Inactive)
REMARK    1  A    between atoms: C_1  and  N_2
REMARK    2  A    between atoms: N_2  and  C_3
REMARK    3  A    between atoms: C_3  and  C_4
REMARK    4  A    between atoms: C_10  and  C_12
REMARK    5  A    between atoms: C_12  and  N_13
REMARK                            x       y       z     vdW  Elec       q    Type
REMARK                         _______ _______ _______ _____ _____    ______ ____
ROOT
ATOM      1  N   UNL     1      -0.020  -0.854  -3.584  0.00  0.00    -0.215 N 
ATOM      2  C   UNL     1       1.082  -1.374  -4.168  0.00  0.00    +0.247 C 
ATOM      3  O   UNL     1       2.200  -1.449  -3.721  0.00  0.00    -0.273 OA
ATOM      4  C   UNL     1       0.607  -1.807  -5.544  0.00  0.00    +0.113 C 
ATOM      5  C   UNL     1       0.622  -0.590  -6.466  0.00  0.00    +0.035 C 
ATOM      6  C   UNL     1       0.549  -0.995  -7.938  0.00  0.00    +0.003 C 
ATOM      7  C   UNL     1      -0.892  -1.265  -8.407  0.00  0.00    +0.000 C 
ATOM      8  C   UNL     1      -1.326  -2.644  -7.878  0.00  0.00    +0.000 C 
ATOM      9  C   UNL     1      -0.178  -3.643  -8.043  0.00  0.00    +0.000 C 
ATOM     10  C   UNL     1       0.417  -4.033  -6.694  0.00  0.00    +0.003 C 
ATOM     11  C   UNL     1       1.365  -2.981  -6.119  0.00  0.00    +0.035 C 
ATOM     12  N   UNL     1      -0.774  -2.191  -5.180  0.00  0.00    -0.285 N 
ATOM     13  C   UNL     1      -1.115  -1.366  -4.161  0.00  0.00    +0.310 C 
ATOM     14  O   UNL     1      -2.251  -1.130  -3.823  0.00  0.00    -0.252 OA
ATOM     15  H   UNL     1      -1.306  -2.928  -5.479  0.00  0.00    +0.151 HD
ENDROOT
BRANCH   1  16
ATOM     16  C   UNL     1      -0.023   0.089  -2.470  0.00  0.00    +0.213 C 
BRANCH  16  19
ATOM     17  C   UNL     1      -0.018   1.461   0.010  0.00  0.00    +0.132 C 
ATOM     18  N   UNL     1       0.002  -0.004   0.002  0.00  0.00    -0.298 N 
ATOM     19  C   UNL     1       0.000  -0.672  -1.169  0.00  0.00    +0.234 C 
ATOM     20  O   UNL     1       0.017  -1.884  -1.175  0.00  0.00    -0.274 OA
BRANCH  18  21
ATOM     21  C   UNL     1       0.024  -0.743   1.267  0.00  0.00    +0.149 C 
BRANCH  21  22
ATOM     22  C   UNL     1      -1.389  -1.016   1.714  0.00  0.00    +0.008 A 
ATOM     23  C   UNL     1      -2.180  -2.082   1.440  0.00  0.00    +0.014 A 
ATOM     24  C   UNL     1      -3.459  -2.121   1.964  0.00  0.00    +0.028 A 
ATOM     25  C   UNL     1      -3.883  -1.090   2.737  0.00  0.00    +0.078 A 
ATOM     26  S   UNL     1      -2.452  -0.022   2.748  0.00  0.00    -0.080 S 
ATOM     27 CL   UNL     1      -5.418  -0.869   3.518  0.00  0.00    -0.076 Cl
ENDBRANCH  21  22
ENDBRANCH  18  21
ENDBRANCH  16  19
ENDBRANCH   1  16
TORSDOF 4
