REMARK  Name = ZINC63073336
REMARK  8 active torsions:
REMARK  status: ('A' for Active; 'I' for Inactive)
REMARK    1  A    between atoms: C_1  and  C_2
REMARK    2  A    between atoms: C_2  and  C_20
REMARK    3  A    between atoms: N_6  and  C_7
REMARK    4  A    between atoms: C_7  and  C_8
REMARK    5  A    between atoms: C_8  and  C_9
REMARK    6  A    between atoms: C_9  and  C_11
REMARK    7  A    between atoms: C_9  and  N_18
REMARK    8  A    between atoms: N_18  and  C_19
REMARK                            x       y       z     vdW  Elec       q    Type
REMARK                         _______ _______ _______ _____ _____    ______ ____
ROOT
ATOM      1  C   UNL     1       2.216   1.286   4.168  0.00  0.00    +0.082 C 
ENDROOT
BRANCH   1   2
ATOM      2  C   UNL     1       3.025   0.791   5.339  0.00  0.00    -0.030 A 
ATOM      3  C   UNL     1       4.401   0.702   5.239  0.00  0.00    +0.006 A 
ATOM      4  C   UNL     1       5.143   0.248   6.314  0.00  0.00    +0.015 A 
ATOM      5  C   UNL     1       4.509  -0.116   7.488  0.00  0.00    +0.018 A 
ATOM      6  C   UNL     1       3.132  -0.026   7.587  0.00  0.00    +0.015 A 
ATOM      7  C   UNL     1       2.391   0.432   6.514  0.00  0.00    +0.006 A 
ATOM      8 BR   UNL     1       5.525  -0.737   8.957  0.00  0.00    -0.050 Br
ENDBRANCH   1   2
BRANCH   1   9
ATOM      9  N   UNL     1       1.230   2.271   4.635  0.00  0.00    -0.312 NA
ATOM     10  C   UNL     1       1.816   3.617   4.688  0.00  0.00    +0.101 C 
ATOM     11  H   UNL     1       0.405   2.259   4.055  0.00  0.00    +0.122 HD
ENDBRANCH   1   9
BRANCH   1  12
ATOM     12  C   UNL     1       1.490   0.108   3.515  0.00  0.00    +0.005 C 
BRANCH  12  13
ATOM     13  C   UNL     1       0.769   0.589   2.254  0.00  0.00    -0.076 C 
BRANCH  13  19
ATOM     14  C   UNL     1      -0.526   1.445   0.307  0.00  0.00    -0.010 C 
ATOM     15  C   UNL     1      -0.722  -0.062   0.481  0.00  0.00    -0.071 C 
ATOM     16  C   UNL     1      -0.211  -0.806  -0.771  0.00  0.00    -0.014 C 
ATOM     17  C   UNL     1       0.453  -2.076  -0.177  0.00  0.00    -0.020 C 
ATOM     18  C   UNL     1       1.060  -1.526   1.137  0.00  0.00    -0.078 C 
ATOM     19  N   UNL     1       0.072  -0.542   1.627  0.00  0.00    +0.383 N 
ATOM     20  C   UNL     1      -2.203  -0.372   0.706  0.00  0.00    -0.010 C 
ATOM     21  H   UNL     1      -0.537  -0.980   2.302  0.00  0.00    -0.081 HD
ENDBRANCH  13  19
ENDBRANCH  12  13
ENDBRANCH   1  12
TORSDOF 5
