REMARK  Name = ZINC23858090
REMARK  9 active torsions:
REMARK  status: ('A' for Active; 'I' for Inactive)
REMARK    1  A    between atoms: C_1  and  C_2
REMARK    2  A    between atoms: C_5  and  N_11
REMARK    3  A    between atoms: C_6  and  N_8
REMARK    4  A    between atoms: C_12  and  C_14
REMARK    5  A    between atoms: N_16  and  C_17
REMARK    6  A    between atoms: C_17  and  C_18
REMARK    7  A    between atoms: C_18  and  C_20
REMARK    8  A    between atoms: C_18  and  N_30
REMARK    9  A    between atoms: N_28  and  C_29
REMARK                            x       y       z     vdW  Elec       q    Type
REMARK                         _______ _______ _______ _____ _____    ______ ____
ROOT
ATOM      1  C   UNL     1       1.472   2.257  -0.329  0.00  0.00    +0.094 C 
ENDROOT
BRANCH   1   4
ATOM      2  C   UNL     1       3.264   2.824   1.221  0.00  0.00    +0.299 C 
ATOM      3  O   UNL     1       3.479   3.821   0.562  0.00  0.00    -0.265 OA
ATOM      4  N   UNL     1       2.281   1.976   0.859  0.00  0.00    -0.309 N 
ATOM      5  H   UNL     1       2.087   1.073   1.456  0.00  0.00    +0.149 HD
BRANCH   2   7
ATOM      6  N   UNL     1       5.072   3.386   2.794  0.00  0.00    -0.276 N 
ATOM      7  C   UNL     1       4.090   2.538   2.432  0.00  0.00    +0.303 C 
ATOM      8  O   UNL     1       3.875   1.541   3.091  0.00  0.00    -0.265 OA
ATOM      9  H   UNL     1       5.223   4.323   2.238  0.00  0.00    +0.155 HD
BRANCH   6  14
ATOM     10  C   UNL     1       8.434   2.122   7.183  0.00  0.00    +0.044 C 
ATOM     11  C   UNL     1       7.541   2.459   6.017  0.00  0.00    -0.048 A 
ATOM     12  C   UNL     1       6.176   2.251   6.111  0.00  0.00    +0.005 A 
ATOM     13  C   UNL     1       5.355   2.558   5.044  0.00  0.00    +0.026 A 
ATOM     14  C   UNL     1       5.901   3.075   3.876  0.00  0.00    +0.064 A 
ATOM     15  C   UNL     1       7.272   3.277   3.783  0.00  0.00    +0.148 A 
ATOM     16  C   UNL     1       8.087   2.973   4.856  0.00  0.00    +0.038 A 
BRANCH  15  17
ATOM     17  N   UNL     1       7.858   3.823   2.538  0.00  0.00    +0.058 N 
ATOM     18  O   UNL     1       9.063   3.973   2.447  0.00  0.00    -0.126 OA
ATOM     19  O   UNL     1       7.135   4.122   1.605  0.00  0.00    -0.126 OA
ENDBRANCH  15  17
ENDBRANCH   6  14
ENDBRANCH   2   7
ENDBRANCH   1   4
BRANCH   1  20
ATOM     20  C   UNL     1       0.511   1.093  -0.578  0.00  0.00    -0.020 C 
BRANCH  20  21
ATOM     21  C   UNL     1      -0.293   1.363  -1.824  0.00  0.00    -0.059 A 
ATOM     22  C   UNL     1      -0.998   2.546  -1.950  0.00  0.00    +0.004 A 
ATOM     23  C   UNL     1      -1.734   2.799  -3.089  0.00  0.00    +0.023 A 
ATOM     24  C   UNL     1      -1.780   1.858  -4.117  0.00  0.00    +0.033 A 
ATOM     25  C   UNL     1      -1.069   0.672  -3.980  0.00  0.00    -0.025 A 
ATOM     26  C   UNL     1      -0.332   0.426  -2.840  0.00  0.00    +0.007 A 
ATOM     27  C   UNL     1      -1.286  -0.150  -5.235  0.00  0.00    +0.056 C 
ATOM     28  C   UNL     1      -1.849   0.888  -6.232  0.00  0.00    +0.109 C 
ATOM     29  N   UNL     1      -2.462   1.895  -5.340  0.00  0.00    -0.332 N 
ATOM     30  C   UNL     1      -2.400   3.235  -5.937  0.00  0.00    +0.129 C 
ENDBRANCH  20  21
BRANCH  20  31
ATOM     31  N   UNL     1      -0.396   0.953   0.569  0.00  0.00    +0.385 N 
ATOM     32  C   UNL     1      -1.612   0.220   0.192  0.00  0.00    -0.078 C 
ATOM     33  C   UNL     1      -2.463  -0.034   1.439  0.00  0.00    -0.019 C 
ATOM     34  C   UNL     1      -2.831   1.307   2.081  0.00  0.00    -0.004 C 
ATOM     35  C   UNL     1      -1.548   2.071   2.419  0.00  0.00    -0.019 C 
ATOM     36  C   UNL     1      -0.723   2.263   1.144  0.00  0.00    -0.078 C 
ATOM     37  H   UNL     1       0.122   0.367   1.342  0.00  0.00    -0.081 HD
ENDBRANCH  20  31
ENDBRANCH   1  20
TORSDOF 7
