REMARK  Name = ZINC13122233
REMARK  6 active torsions:
REMARK  status: ('A' for Active; 'I' for Inactive)
REMARK    1  A    between atoms: C_1  and  C_2
REMARK    2  A    between atoms: C_2  and  C_4
REMARK    3  A    between atoms: C_2  and  O_19
REMARK    4  A    between atoms: N_6  and  N_7
REMARK    5  A    between atoms: C_16  and  O_17
REMARK    6  A    between atoms: O_19  and  C_20
REMARK                            x       y       z     vdW  Elec       q    Type
REMARK                         _______ _______ _______ _____ _____    ______ ____
ROOT
ATOM      1  C   UNL     1       0.601  -0.404  -1.298  0.00  0.00    +0.273 C 
ATOM      2  O   UNL     1      -0.133  -0.750  -2.199  0.00  0.00    -0.270 OA
ATOM      3  N   UNL     1       1.926  -0.284  -1.518  0.00  0.00    -0.203 N 
ATOM      4  H   UNL     1       2.513  -0.007  -0.798  0.00  0.00    +0.177 HD
ENDROOT
BRANCH   3   5
ATOM      5  N   UNL     1       2.412  -0.537  -2.686  0.00  0.00    -0.174 NA
ATOM      6  C   UNL     1       3.710  -0.522  -2.873  0.00  0.00    +0.152 C 
ATOM      7  C   UNL     1       4.776  -0.382  -1.854  0.00  0.00    +0.034 A 
ATOM      8  C   UNL     1       4.775  -0.231  -0.475  0.00  0.00    +0.027 A 
ATOM      9  C   UNL     1       5.976  -0.125   0.203  0.00  0.00    +0.019 A 
ATOM     10  C   UNL     1       7.175  -0.169  -0.492  0.00  0.00    +0.017 A 
ATOM     11  C   UNL     1       7.191  -0.318  -1.862  0.00  0.00    +0.029 A 
ATOM     12  C   UNL     1       5.990  -0.428  -2.568  0.00  0.00    +0.077 A 
ATOM     13  N   UNL     1       5.724  -0.580  -3.893  0.00  0.00    -0.211 NA
ATOM     14  C   UNL     1       4.444  -0.648  -4.148  0.00  0.00    +0.241 C 
ATOM     15 BR   UNL     1       5.981   0.081   2.083  0.00  0.00    -0.050 Br
BRANCH  14  16
ATOM     16  O   UNL     1       3.886  -0.803  -5.373  0.00  0.00    -0.491 OA
ATOM     17  H   UNL     1       4.529  -0.868  -6.093  0.00  0.00    +0.294 HD
ENDBRANCH  14  16
ENDBRANCH   3   5
BRANCH   1  19
ATOM     18  C   UNL     1       0.231   1.373   0.390  0.00  0.00    +0.062 C 
ATOM     19  C   UNL     1       0.034  -0.109   0.066  0.00  0.00    +0.257 C 
BRANCH  19  20
ATOM     20  O   UNL     1      -1.361  -0.418   0.079  0.00  0.00    -0.480 OA
BRANCH  20  21
ATOM     21  C   UNL     1      -1.919  -0.707   1.284  0.00  0.00    +0.122 A 
ATOM     22  C   UNL     1      -3.241  -1.119   1.357  0.00  0.00    +0.045 A 
ATOM     23  C   UNL     1      -3.805  -1.412   2.584  0.00  0.00    +0.004 A 
ATOM     24  C   UNL     1      -3.053  -1.295   3.738  0.00  0.00    +0.000 A 
ATOM     25  C   UNL     1      -1.734  -0.884   3.667  0.00  0.00    +0.004 A 
ATOM     26  C   UNL     1      -1.164  -0.596   2.443  0.00  0.00    +0.045 A 
ENDBRANCH  20  21
ENDBRANCH  19  20
ENDBRANCH   1  19
TORSDOF 5
