REMARK  Name = ZINC02130894
REMARK  9 active torsions:
REMARK  status: ('A' for Active; 'I' for Inactive)
REMARK    1  A    between atoms: C_1  and  C_2
REMARK    2  A    between atoms: C_7  and  C_8
REMARK    3  A    between atoms: C_17  and  C_19
REMARK    4  A    between atoms: C_19  and  C_20
REMARK    5  A    between atoms: C_20  and  C_21
REMARK    6  A    between atoms: N_25  and  C_28
REMARK    7  A    between atoms: C_28  and  C_29
REMARK    8  A    between atoms: C_32  and  O_35
REMARK    9  A    between atoms: O_35  and  C_36
REMARK                            x       y       z     vdW  Elec       q    Type
REMARK                         _______ _______ _______ _____ _____    ______ ____
ROOT
ATOM      1  C   UNL     1       7.016   0.444  -9.525  0.00  0.00    +0.044 C 
ATOM      2  C   UNL     1       6.312   0.754  -8.229  0.00  0.00    -0.046 A 
ATOM      3  C   UNL     1       5.973   2.061  -7.927  0.00  0.00    +0.004 A 
ATOM      4  C   UNL     1       5.326   2.346  -6.737  0.00  0.00    +0.005 A 
ATOM      5  C   UNL     1       5.022   1.331  -5.857  0.00  0.00    -0.027 A 
ATOM      6  C   UNL     1       5.359   0.013  -6.151  0.00  0.00    +0.039 A 
ATOM      7  C   UNL     1       6.010  -0.266  -7.351  0.00  0.00    -0.026 A 
ATOM      8  C   UNL     1       6.385  -1.685  -7.690  0.00  0.00    +0.046 C 
ATOM      9  N   UNL     1       4.951  -0.832  -5.116  0.00  0.00    -0.286 N 
ATOM     10  C   UNL     1       4.346  -0.157  -4.119  0.00  0.00    +0.211 C 
ATOM     11  O   UNL     1       3.893  -0.628  -3.097  0.00  0.00    -0.277 OA
ATOM     12  C   UNL     1       4.343   1.293  -4.518  0.00  0.00    +0.050 C 
ATOM     13  C   UNL     1       5.080   2.160  -3.489  0.00  0.00    +0.088 C 
ATOM     14  C   UNL     1       4.289   3.499  -3.471  0.00  0.00    +0.073 C 
ATOM     15  C   UNL     1       3.155   3.303  -4.499  0.00  0.00    -0.057 C 
ATOM     16  C   UNL     1       3.700   3.537  -2.079  0.00  0.00    +0.224 C 
ATOM     17  O   UNL     1       2.997   4.422  -1.641  0.00  0.00    -0.275 OA
ATOM     18  N   UNL     1       4.077   2.444  -1.407  0.00  0.00    -0.237 N 
ATOM     19  C   UNL     1       4.858   1.607  -2.099  0.00  0.00    +0.225 C 
ATOM     20  O   UNL     1       5.315   0.566  -1.679  0.00  0.00    -0.275 OA
ATOM     21  H   UNL     1       5.088  -1.792  -5.115  0.00  0.00    +0.155 HD
ATOM     22  N   UNL     1       3.004   1.849  -4.588  0.00  0.00    +0.394 N 
ATOM     23  H   UNL     1       2.434   1.503  -3.807  0.00  0.00    -0.083 HD
ATOM     24  H   UNL     1       2.559   1.592  -5.477  0.00  0.00    -0.083 HD
ENDROOT
BRANCH  15  25
ATOM     25  C   UNL     1       1.870   3.971  -4.007  0.00  0.00    -0.004 C 
BRANCH  25  26
ATOM     26  C   UNL     1       0.796   3.874  -5.093  0.00  0.00    +0.123 C 
BRANCH  26  27
ATOM     27  C   UNL     1      -0.470   4.532  -4.609  0.00  0.00    +0.356 C 
ATOM     28  O   UNL     1      -0.509   5.029  -3.508  0.00  0.00    -0.246 OA
ATOM     29  O   UNL     1      -1.554   4.567  -5.400  0.00  0.00    -0.246 OA
ENDBRANCH  26  27
ENDBRANCH  25  26
ENDBRANCH  15  25
BRANCH  18  30
ATOM     30  C   UNL     1       3.671   2.186  -0.023  0.00  0.00    +0.151 C 
BRANCH  30  31
ATOM     31  C   UNL     1       2.377   1.414  -0.013  0.00  0.00    -0.029 A 
ATOM     32  C   UNL     1       1.171   2.089   0.002  0.00  0.00    +0.009 A 
ATOM     33  C   UNL     1      -0.017   1.383   0.010  0.00  0.00    +0.046 A 
ATOM     34  C   UNL     1       0.002  -0.004   0.002  0.00  0.00    +0.120 A 
ATOM     35  C   UNL     1       1.214  -0.679  -0.013  0.00  0.00    +0.046 A 
ATOM     36  C   UNL     1       2.399   0.031  -0.021  0.00  0.00    +0.009 A 
BRANCH  34  37
ATOM     37  O   UNL     1      -1.165  -0.701   0.010  0.00  0.00    -0.495 OA
ATOM     38  C   UNL     1      -1.069  -2.126   0.001  0.00  0.00    +0.277 C 
ENDBRANCH  34  37
ENDBRANCH  30  31
ENDBRANCH  18  30
TORSDOF 6
