REMARK  Name = ZINC39527280
REMARK  5 active torsions:
REMARK  status: ('A' for Active; 'I' for Inactive)
REMARK    1  A    between atoms: C_4  and  O_7
REMARK    2  A    between atoms: O_7  and  S_8
REMARK    3  A    between atoms: S_8  and  N_11
REMARK    4  A    between atoms: C_21  and  C_24
REMARK    5  A    between atoms: C_29  and  O_30
REMARK                            x       y       z     vdW  Elec       q    Type
REMARK                         _______ _______ _______ _____ _____    ______ ____
ROOT
ATOM      1  N   UNL     1       3.429  -2.126   2.035  0.00  0.00    -0.124 NA
ATOM      2  C   UNL     1       2.158  -1.944   2.750  0.00  0.00    +0.174 C 
ATOM      3  C   UNL     1       2.292  -2.544   4.153  0.00  0.00    +0.037 C 
ATOM      4  C   UNL     1       2.745  -4.001   4.040  0.00  0.00    +0.005 C 
ATOM      5  C   UNL     1       4.114  -4.060   3.358  0.00  0.00    +0.024 C 
ATOM      6  C   UNL     1       3.999  -3.476   1.942  0.00  0.00    +0.048 C 
ATOM      7  C   UNL     1       3.084  -4.358   1.092  0.00  0.00    +0.024 C 
ATOM      8  C   UNL     1       2.965  -3.763  -0.313  0.00  0.00    +0.002 C 
ATOM      9  C   UNL     1       4.351  -3.692  -0.956  0.00  0.00    +0.008 C 
ATOM     10  C   UNL     1       5.264  -2.808  -0.105  0.00  0.00    +0.024 C 
ATOM     11  C   UNL     1       5.384  -3.402   1.300  0.00  0.00    +0.032 C 
ATOM     12 CL   UNL     1       1.781  -0.185   2.874  0.00  0.00    -0.103 Cl
ENDROOT
BRANCH  10  13
ATOM     13  C   UNL     1       6.630  -2.739  -0.739  0.00  0.00    -0.003 A 
ATOM     14  C   UNL     1       7.362  -3.894  -0.931  0.00  0.00    +0.007 A 
ATOM     15  C   UNL     1       8.615  -3.831  -1.512  0.00  0.00    +0.001 A 
ATOM     16  C   UNL     1       9.138  -2.611  -1.903  0.00  0.00    +0.004 A 
ATOM     17  C   UNL     1       8.410  -1.454  -1.712  0.00  0.00    +0.046 A 
ATOM     18  C   UNL     1       7.150  -1.515  -1.134  0.00  0.00    +0.120 A 
BRANCH  18  19
ATOM     19  O   UNL     1       6.429  -0.378  -0.951  0.00  0.00    -0.506 OA
ATOM     20  H   UNL     1       6.585   0.054  -0.100  0.00  0.00    +0.292 HD
ENDBRANCH  18  19
ENDBRANCH  10  13
BRANCH   1  21
ATOM     21  S   UNL     1       4.199  -0.835   1.341  0.00  0.00    +0.196 S 
ATOM     22  O   UNL     1       5.574  -1.183   1.250  0.00  0.00    -0.119 OA
ATOM     23  O   UNL     1       3.751   0.324   2.030  0.00  0.00    -0.119 OA
BRANCH  21  24
ATOM     24  O   UNL     1       3.685  -0.718  -0.087  0.00  0.00    -0.333 OA
BRANCH  24  28
ATOM     25  C   UNL     1       0.127   1.342  -0.427  0.00  0.00    +0.000 A 
ATOM     26  C   UNL     1       1.328   2.002  -0.614  0.00  0.00    +0.004 A 
ATOM     27  C   UNL     1       2.520   1.315  -0.501  0.00  0.00    +0.048 A 
ATOM     28  C   UNL     1       2.513  -0.039  -0.198  0.00  0.00    +0.158 A 
ATOM     29  C   UNL     1       1.307  -0.699  -0.010  0.00  0.00    +0.048 A 
ATOM     30  C   UNL     1       0.117  -0.007  -0.125  0.00  0.00    +0.004 A 
ENDBRANCH  24  28
ENDBRANCH  21  24
ENDBRANCH   1  21
TORSDOF 5
