REMARK  Name = ZINC08797642
REMARK  10 active torsions:
REMARK  status: ('A' for Active; 'I' for Inactive)
REMARK    1  A    between atoms: C_1  and  C_2
REMARK    2  A    between atoms: C_2  and  N_3
REMARK    3  A    between atoms: N_14  and  C_15
REMARK    4  A    between atoms: C_15  and  C_17
REMARK    5  A    between atoms: C_20  and  S_23
REMARK    6  A    between atoms: S_23  and  N_26
REMARK    7  A    between atoms: N_26  and  C_27
REMARK    8  A    between atoms: N_26  and  C_29
REMARK    9  A    between atoms: C_27  and  C_28
REMARK   10  A    between atoms: C_29  and  C_30
REMARK                            x       y       z     vdW  Elec       q    Type
REMARK                         _______ _______ _______ _____ _____    ______ ____
ROOT
ATOM      1  C   UNL     1      -2.566   2.753   5.626  0.00  0.00    +0.269 C 
ATOM      2  O   UNL     1      -3.361   2.011   6.176  0.00  0.00    -0.268 OA
ENDROOT
BRANCH   1  14
ATOM      3  N   UNL     1      -3.490   5.813   7.298  0.00  0.00    -0.320 N 
ATOM      4  C   UNL     1      -4.435   6.130   8.257  0.00  0.00    +0.076 A 
ATOM      5  C   UNL     1      -5.211   5.049   8.701  0.00  0.00    +0.042 A 
ATOM      6  C   UNL     1      -6.191   5.187   9.655  0.00  0.00    +0.037 A 
ATOM      7  C   UNL     1      -6.436   6.432  10.209  0.00  0.00    +0.044 A 
ATOM      8  C   UNL     1      -5.685   7.519   9.790  0.00  0.00    +0.042 A 
ATOM      9  C   UNL     1      -4.704   7.381   8.835  0.00  0.00    +0.067 A 
ATOM     10 CL   UNL     1      -3.787   8.770   8.341  0.00  0.00    -0.081 Cl
ATOM     11 CL   UNL     1      -7.669   6.630  11.416  0.00  0.00    -0.083 Cl
ATOM     12  S   UNL     1      -4.583   3.683   7.757  0.00  0.00    -0.052 S 
ATOM     13  C   UNL     1      -3.376   4.534   6.850  0.00  0.00    +0.167 A 
ATOM     14  N   UNL     1      -2.537   4.052   5.939  0.00  0.00    -0.152 NA
BRANCH   3  16
ATOM     15  C   UNL     1      -1.341   6.218   6.202  0.00  0.00    +0.027 C 
ATOM     16  C   UNL     1      -2.613   6.857   6.761  0.00  0.00    +0.121 C 
ENDBRANCH   3  16
ENDBRANCH   1  14
BRANCH   1  17
ATOM     17  C   UNL     1      -1.631   2.215   4.610  0.00  0.00    +0.039 A 
ATOM     18  C   UNL     1      -1.658   0.860   4.281  0.00  0.00    +0.015 A 
ATOM     19  C   UNL     1      -0.784   0.365   3.335  0.00  0.00    +0.029 A 
ATOM     20  C   UNL     1       0.118   1.210   2.713  0.00  0.00    +0.106 A 
ATOM     21  C   UNL     1       0.153   2.554   3.039  0.00  0.00    +0.029 A 
ATOM     22  C   UNL     1      -0.719   3.062   3.980  0.00  0.00    +0.015 A 
BRANCH  20  23
ATOM     23  S   UNL     1       1.230   0.570   1.506  0.00  0.00    +0.061 S 
ATOM     24  O   UNL     1       1.372  -0.817   1.778  0.00  0.00    -0.153 OA
ATOM     25  O   UNL     1       2.341   1.456   1.467  0.00  0.00    -0.153 OA
BRANCH  23  26
ATOM     26  N   UNL     1       0.478   0.689   0.035  0.00  0.00    -0.177 NA
BRANCH  26  27
ATOM     27  C   UNL     1       0.639   1.900  -0.774  0.00  0.00    +0.106 C 
ATOM     28  C   UNL     1       1.773   1.694  -1.780  0.00  0.00    +0.022 C 
ENDBRANCH  26  27
BRANCH  26  29
ATOM     29  C   UNL     1      -0.348  -0.416  -0.457  0.00  0.00    +0.106 C 
ATOM     30  C   UNL     1      -1.812  -0.158  -0.097  0.00  0.00    +0.022 C 
ENDBRANCH  26  29
ENDBRANCH  23  26
ENDBRANCH  20  23
ENDBRANCH   1  17
TORSDOF 7
