REMARK  Name = ZINC22419704
REMARK  8 active torsions:
REMARK  status: ('A' for Active; 'I' for Inactive)
REMARK    1  A    between atoms: C_1  and  O_2
REMARK    2  A    between atoms: O_2  and  C_3
REMARK    3  A    between atoms: C_6  and  C_9
REMARK    4  A    between atoms: C_11  and  C_14
REMARK    5  A    between atoms: C_14  and  N_15
REMARK    6  A    between atoms: N_18  and  C_21
REMARK    7  A    between atoms: C_21  and  C_22
REMARK    8  A    between atoms: C_27  and  O_28
REMARK                            x       y       z     vdW  Elec       q    Type
REMARK                         _______ _______ _______ _____ _____    ______ ____
ROOT
ATOM      1  N   UNL     1       4.259   4.961   3.680  0.00  0.00    +0.385 N 
ATOM      2  C   UNL     1       5.076   4.252   2.687  0.00  0.00    -0.063 C 
ATOM      3  C   UNL     1       4.443   4.410   1.302  0.00  0.00    +0.066 C 
ATOM      4  N   UNL     1       3.073   3.877   1.330  0.00  0.00    -0.302 NA
ATOM      5  C   UNL     1       2.255   4.587   2.324  0.00  0.00    +0.066 C 
ATOM      6  C   UNL     1       2.889   4.429   3.708  0.00  0.00    -0.063 C 
ATOM      7  H   UNL     1       4.206   6.019   3.385  0.00  0.00    -0.081 HD
ENDROOT
BRANCH   1   8
ATOM      8  C   UNL     1       4.876   4.897   5.012  0.00  0.00    -0.022 C 
BRANCH   8  11
ATOM      9  C   UNL     1       2.975   7.182   7.180  0.00  0.00    +0.108 A 
ATOM     10  N   UNL     1       3.822   6.702   6.280  0.00  0.00    -0.246 NA
ATOM     11  C   UNL     1       3.904   5.413   6.042  0.00  0.00    +0.033 A 
ATOM     12  C   UNL     1       3.107   4.547   6.720  0.00  0.00    +0.068 A 
ATOM     13  S   UNL     1       2.202   5.681   7.766  0.00  0.00    -0.075 S 
BRANCH   9  17
ATOM     14  C   UNL     1       2.287  11.207   8.357  0.00  0.00    +0.120 A 
ATOM     15  C   UNL     1       1.565  10.179   8.949  0.00  0.00    +0.046 A 
ATOM     16  C   UNL     1       1.785   8.872   8.570  0.00  0.00    +0.014 A 
ATOM     17  C   UNL     1       2.736   8.582   7.590  0.00  0.00    +0.007 A 
ATOM     18  C   UNL     1       3.464   9.618   7.001  0.00  0.00    +0.014 A 
ATOM     19  C   UNL     1       3.234  10.923   7.381  0.00  0.00    +0.046 A 
BRANCH  14  21
ATOM     20  C   UNL     1       2.845  13.501   8.084  0.00  0.00    +0.277 C 
ATOM     21  O   UNL     1       2.067  12.493   8.734  0.00  0.00    -0.495 OA
ENDBRANCH  14  21
ENDBRANCH   9  17
ENDBRANCH   8  11
ENDBRANCH   1   8
BRANCH   4  22
ATOM     22  C   UNL     1       2.456   3.942  -0.002  0.00  0.00    +0.123 C 
BRANCH  22  23
ATOM     23  C   UNL     1       1.161   3.172   0.007  0.00  0.00    +0.012 A 
ATOM     24  C   UNL     1      -0.045   3.849   0.021  0.00  0.00    +0.058 A 
ATOM     25  C   UNL     1      -1.237   3.145   0.029  0.00  0.00    +0.167 A 
ATOM     26  C   UNL     1      -1.221   1.752   0.017  0.00  0.00    +0.170 A 
ATOM     27  C   UNL     1      -0.013   1.076   0.008  0.00  0.00    +0.095 A 
ATOM     28  C   UNL     1       1.179   1.786   0.000  0.00  0.00    +0.125 A 
ATOM     29  O   UNL     1      -2.509   1.301   0.032  0.00  0.00    -0.452 OA
ATOM     30  C   UNL     1      -3.307   2.422   0.456  0.00  0.00    +0.466 C 
ATOM     31  O   UNL     1      -2.536   3.566   0.042  0.00  0.00    -0.453 OA
BRANCH  28  32
ATOM     32  O   UNL     1       2.365   1.122  -0.014  0.00  0.00    -0.506 OA
ATOM     33  H   UNL     1       2.380   0.022  -0.019  0.00  0.00    +0.292 HD
ENDBRANCH  28  32
ENDBRANCH  22  23
ENDBRANCH   4  22
TORSDOF 7
