REMARK  Name = ZINC67376044
REMARK  5 active torsions:
REMARK  status: ('A' for Active; 'I' for Inactive)
REMARK    1  A    between atoms: C_3  and  C_6
REMARK    2  A    between atoms: C_9  and  C_11
REMARK    3  A    between atoms: C_11  and  N_12
REMARK    4  A    between atoms: C_19  and  S_21
REMARK    5  A    between atoms: S_21  and  N_24
REMARK                            x       y       z     vdW  Elec       q    Type
REMARK                         _______ _______ _______ _____ _____    ______ ____
ROOT
ATOM      1  N   UNL     1       7.841   1.336   1.307  0.00  0.00    -0.320 N 
ATOM      2  C   UNL     1       8.446   2.406   2.104  0.00  0.00    +0.110 C 
ATOM      3  C   UNL     1       8.783   1.758   3.458  0.00  0.00    +0.056 C 
ATOM      4  C   UNL     1       8.327   0.323   3.316  0.00  0.00    -0.023 A 
ATOM      5  C   UNL     1       7.788   0.155   2.049  0.00  0.00    +0.033 A 
ATOM      6  C   UNL     1       7.291  -1.097   1.685  0.00  0.00    +0.025 A 
ATOM      7  C   UNL     1       7.333  -2.148   2.577  0.00  0.00    +0.030 A 
ATOM      8  C   UNL     1       7.869  -1.969   3.839  0.00  0.00    +0.105 A 
ATOM      9  C   UNL     1       8.371  -0.733   4.204  0.00  0.00    +0.034 A 
ENDROOT
BRANCH   8  10
ATOM     10  S   UNL     1       7.921  -3.314   4.976  0.00  0.00    +0.056 S 
ATOM     11  O   UNL     1       7.972  -2.745   6.277  0.00  0.00    -0.153 OA
ATOM     12  O   UNL     1       6.900  -4.220   4.580  0.00  0.00    -0.153 OA
BRANCH  10  13
ATOM     13  N   UNL     1       9.363  -4.096   4.744  0.00  0.00    -0.204 NA
ATOM     14  H   UNL     1       9.985  -3.776   4.072  0.00  0.00    +0.144 HD
ATOM     15  H   UNL     1       9.585  -4.873   5.279  0.00  0.00    +0.144 HD
ENDBRANCH  10  13
ENDBRANCH   8  10
BRANCH   1  16
ATOM     16  C   UNL     1       7.356   1.486  -0.068  0.00  0.00    +0.201 C 
BRANCH  16  20
ATOM     17  C   UNL     1       3.735   1.821  -0.024  0.00  0.00    +0.162 A 
ATOM     18  C   UNL     1       4.134   3.121  -0.016  0.00  0.00    +0.161 A 
ATOM     19  N   UNL     1       5.475   3.132  -0.030  0.00  0.00    -0.220 NA
ATOM     20  C   UNL     1       5.908   1.903  -0.047  0.00  0.00    +0.214 A 
ATOM     21  O   UNL     1       4.858   1.068  -0.039  0.00  0.00    -0.438 OA
BRANCH  17  24
ATOM     22  C   UNL     1      -0.016   1.353   0.009  0.00  0.00    +0.008 A 
ATOM     23  C   UNL     1       1.177   2.042   0.002  0.00  0.00    +0.019 A 
ATOM     24  C   UNL     1       2.348   1.327  -0.013  0.00  0.00    +0.056 A 
ATOM     25  S   UNL     1       1.752  -0.355  -0.017  0.00  0.00    -0.094 S 
ATOM     26  C   UNL     1       0.002  -0.004   0.002  0.00  0.00    +0.046 A 
ENDBRANCH  17  24
ENDBRANCH  16  20
ENDBRANCH   1  16
TORSDOF 5
