REMARK  Name = ZINC56763069
REMARK  9 active torsions:
REMARK  status: ('A' for Active; 'I' for Inactive)
REMARK    1  A    between atoms: C_1  and  C_2
REMARK    2  A    between atoms: C_2  and  N_3
REMARK    3  A    between atoms: N_3  and  C_4
REMARK    4  A    between atoms: C_4  and  C_5
REMARK    5  A    between atoms: N_13  and  C_14
REMARK    6  A    between atoms: C_14  and  C_16
REMARK    7  A    between atoms: C_14  and  C_17
REMARK    8  A    between atoms: C_17  and  C_18
REMARK    9  A    between atoms: C_21  and  O_24
REMARK                            x       y       z     vdW  Elec       q    Type
REMARK                         _______ _______ _______ _____ _____    ______ ____
ROOT
ATOM      1  N   UNL     1       0.688  -0.476  -1.203  0.00  0.00    -0.281 N 
ATOM      2  C   UNL     1      -0.013  -0.705  -2.332  0.00  0.00    +0.303 C 
ATOM      3  O   UNL     1       0.556  -1.097  -3.332  0.00  0.00    -0.253 OA
ATOM      4  N   UNL     1      -1.345  -0.498  -2.351  0.00  0.00    -0.296 N 
ATOM      5  H   UNL     1      -1.799  -0.185  -1.553  0.00  0.00    +0.151 HD
ENDROOT
BRANCH   1   7
ATOM      6  C   UNL     1      -0.019   1.526   0.010  0.00  0.00    +0.024 C 
ATOM      7  C   UNL     1       0.002  -0.004   0.002  0.00  0.00    +0.106 C 
ENDBRANCH   1   7
BRANCH   4   8
ATOM      8  C   UNL     1      -2.107  -0.746  -3.578  0.00  0.00    +0.076 C 
ATOM      9  C   UNL     1      -2.483  -2.227  -3.654  0.00  0.00    +0.028 C 
BRANCH   8  10
ATOM     10  C   UNL     1      -3.379   0.104  -3.569  0.00  0.00    +0.057 C 
BRANCH  10  11
ATOM     11  C   UNL     1      -3.008   1.564  -3.618  0.00  0.00    -0.045 A 
ATOM     12  C   UNL     1      -2.802   2.264  -2.443  0.00  0.00    +0.007 A 
ATOM     13  C   UNL     1      -2.462   3.602  -2.485  0.00  0.00    +0.045 A 
ATOM     14  C   UNL     1      -2.328   4.244  -3.708  0.00  0.00    +0.117 A 
ATOM     15  C   UNL     1      -2.534   3.540  -4.885  0.00  0.00    +0.045 A 
ATOM     16  C   UNL     1      -2.869   2.200  -4.837  0.00  0.00    +0.007 A 
BRANCH  14  17
ATOM     17  O   UNL     1      -1.994   5.561  -3.752  0.00  0.00    -0.507 OA
ATOM     18  H   UNL     1      -1.042   5.724  -3.784  0.00  0.00    +0.292 HD
ENDBRANCH  14  17
ENDBRANCH  10  11
ENDBRANCH   8  10
ENDBRANCH   4   8
BRANCH   1  19
ATOM     19  C   UNL     1       2.135  -0.701  -1.182  0.00  0.00    +0.151 C 
BRANCH  19  20
ATOM     20  C   UNL     1       2.417  -2.123  -0.770  0.00  0.00    +0.009 A 
ATOM     21  C   UNL     1       2.550  -3.226  -1.546  0.00  0.00    +0.014 A 
ATOM     22  C   UNL     1       2.811  -4.443  -0.943  0.00  0.00    +0.028 A 
ATOM     23  C   UNL     1       2.925  -4.496   0.408  0.00  0.00    +0.078 A 
ATOM     24  S   UNL     1       2.669  -2.790   0.867  0.00  0.00    -0.080 S 
ATOM     25 CL   UNL     1       3.244  -5.866   1.425  0.00  0.00    -0.076 Cl
ENDBRANCH  19  20
ENDBRANCH   1  19
TORSDOF 7
