REMARK  Name = ZINC16937244
REMARK  8 active torsions:
REMARK  status: ('A' for Active; 'I' for Inactive)
REMARK    1  A    between atoms: C_1  and  C_2
REMARK    2  A    between atoms: C_2  and  C_3
REMARK    3  A    between atoms: C_3  and  O_4
REMARK    4  A    between atoms: O_4  and  C_5
REMARK    5  A    between atoms: C_10  and  C_11
REMARK    6  A    between atoms: N_17  and  C_18
REMARK    7  A    between atoms: C_21  and  C_25
REMARK    8  A    between atoms: C_23  and  O_24
REMARK                            x       y       z     vdW  Elec       q    Type
REMARK                         _______ _______ _______ _____ _____    ______ ____
ROOT
ATOM      1  C   UNL     1      -0.199   5.236  -1.240  0.00  0.00    +0.032 C 
ATOM      2  C   UNL     1      -1.348   5.913  -0.988  0.00  0.00    +0.078 C 
ATOM      3  C   UNL     1      -1.560   7.363  -0.812  0.00  0.00    +0.256 C 
ATOM      4  O   UNL     1      -0.637   8.154  -0.881  0.00  0.00    -0.269 OA
ATOM      5  N   UNL     1      -2.797   7.763  -0.574  0.00  0.00    -0.260 N 
ATOM      6  C   UNL     1      -3.828   6.851  -0.498  0.00  0.00    +0.166 C 
ATOM      7  N   UNL     1      -5.102   7.076  -0.271  0.00  0.00    -0.222 NA
ATOM      8  S   UNL     1      -3.011   5.291  -0.789  0.00  0.00    -0.049 S 
ATOM      9  H   UNL     1      -2.981   8.708  -0.451  0.00  0.00    +0.157 HD
ENDROOT
BRANCH   7  10
ATOM     10  C   UNL     1      -5.968   6.025  -0.125  0.00  0.00    +0.108 A 
ATOM     11  C   UNL     1      -5.660   4.980   0.748  0.00  0.00    +0.032 A 
ATOM     12  C   UNL     1      -6.539   3.926   0.895  0.00  0.00    +0.005 A 
ATOM     13  C   UNL     1      -7.718   3.896   0.173  0.00  0.00    -0.047 A 
ATOM     14  C   UNL     1      -8.031   4.923  -0.699  0.00  0.00    +0.051 A 
ATOM     15  C   UNL     1      -7.163   5.990  -0.854  0.00  0.00    +0.142 A 
ATOM     16  C   UNL     1      -8.668   2.737   0.337  0.00  0.00    +0.044 C 
BRANCH  15  17
ATOM     17  O   UNL     1      -7.470   7.000  -1.711  0.00  0.00    -0.505 OA
ATOM     18  H   UNL     1      -7.147   6.863  -2.612  0.00  0.00    +0.292 HD
ENDBRANCH  15  17
ENDBRANCH   7  10
BRANCH   1  24
ATOM     19  C   UNL     1       0.917   3.016  -1.423  0.00  0.00    +0.128 A 
ATOM     20  C   UNL     1       0.862   1.661  -1.705  0.00  0.00    +0.046 A 
ATOM     21  C   UNL     1      -0.331   1.083  -2.096  0.00  0.00    +0.004 A 
ATOM     22  C   UNL     1      -1.478   1.850  -2.215  0.00  0.00    +0.001 A 
ATOM     23  C   UNL     1      -1.445   3.198  -1.933  0.00  0.00    +0.011 A 
ATOM     24  C   UNL     1      -0.244   3.798  -1.536  0.00  0.00    +0.018 A 
BRANCH  19  25
ATOM     25  O   UNL     1       2.088   3.586  -1.039  0.00  0.00    -0.491 OA
BRANCH  25  26
ATOM     26  C   UNL     1       3.227   2.727  -0.946  0.00  0.00    +0.229 C 
BRANCH  26  28
ATOM     27  C   UNL     1       5.663   2.623  -0.403  0.00  0.00    +0.007 C 
ATOM     28  C   UNL     1       4.444   3.541  -0.502  0.00  0.00    +0.038 C 
ENDBRANCH  26  28
ENDBRANCH  25  26
ENDBRANCH  19  25
ENDBRANCH   1  24
TORSDOF 6
