REMARK  Name = ZINC18021720
REMARK  6 active torsions:
REMARK  status: ('A' for Active; 'I' for Inactive)
REMARK    1  A    between atoms: C_1  and  C_2
REMARK    2  A    between atoms: C_2  and  C_4
REMARK    3  A    between atoms: C_2  and  N_12
REMARK    4  A    between atoms: C_13  and  C_15
REMARK    5  A    between atoms: C_15  and  C_16
REMARK    6  A    between atoms: C_16  and  C_17
REMARK                            x       y       z     vdW  Elec       q    Type
REMARK                         _______ _______ _______ _____ _____    ______ ____
ROOT
ATOM      1  N   UNL     1       0.688  -0.476  -1.203  0.00  0.00    -0.309 N 
ATOM      2  C   UNL     1       0.006  -0.608  -2.358  0.00  0.00    +0.214 C 
ATOM      3  O   UNL     1      -1.175  -0.336  -2.400  0.00  0.00    -0.276 OA
ATOM      4  H   UNL     1       1.632  -0.695  -1.170  0.00  0.00    +0.149 HD
ENDROOT
BRANCH   1   6
ATOM      5  C   UNL     1      -0.019   1.526   0.010  0.00  0.00    +0.033 C 
ATOM      6  C   UNL     1       0.002  -0.004   0.002  0.00  0.00    +0.101 C 
BRANCH   6   7
ATOM      7  C   UNL     1       0.731  -0.503   1.223  0.00  0.00    -0.009 A 
ATOM      8  C   UNL     1       2.077  -0.808   1.148  0.00  0.00    +0.008 A 
ATOM      9  C   UNL     1       2.746  -1.266   2.267  0.00  0.00    +0.020 A 
ATOM     10  C   UNL     1       2.069  -1.419   3.464  0.00  0.00    +0.042 A 
ATOM     11  C   UNL     1       0.722  -1.114   3.540  0.00  0.00    +0.040 A 
ATOM     12  C   UNL     1       0.054  -0.651   2.420  0.00  0.00    +0.047 A 
ATOM     13 CL   UNL     1      -1.635  -0.262   2.516  0.00  0.00    -0.083 Cl
ATOM     14 CL   UNL     1       2.909  -1.995   4.869  0.00  0.00    -0.083 Cl
ENDBRANCH   6   7
ENDBRANCH   1   6
BRANCH   2  15
ATOM     15  C   UNL     1       0.712  -1.094  -3.598  0.00  0.00    +0.103 C 
BRANCH  15  16
ATOM     16  C   UNL     1      -0.282  -1.153  -4.761  0.00  0.00    +0.083 C 
BRANCH  16  17
ATOM     17  C   UNL     1       0.423  -1.639  -6.000  0.00  0.00    +0.111 A 
ATOM     18  N   UNL     1      -0.295  -1.754  -7.148  0.00  0.00    -0.310 N 
ATOM     19  H   UNL     1      -1.238  -1.524  -7.149  0.00  0.00    +0.170 HD
ATOM     20  C   UNL     1       0.292  -2.185  -8.288  0.00  0.00    +0.259 A 
ATOM     21  O   UNL     1      -0.340  -2.292  -9.323  0.00  0.00    -0.267 OA
ATOM     22  C   UNL     1       1.722  -2.519  -8.229  0.00  0.00    +0.065 A 
ATOM     23  C   UNL     1       2.421  -2.973  -9.346  0.00  0.00    +0.015 A 
ATOM     24  C   UNL     1       3.761  -3.272  -9.233  0.00  0.00    +0.001 A 
ATOM     25  C   UNL     1       4.418  -3.125  -8.019  0.00  0.00    +0.002 A 
ATOM     26  C   UNL     1       3.746  -2.679  -6.903  0.00  0.00    +0.028 A 
ATOM     27  C   UNL     1       2.387  -2.369  -6.992  0.00  0.00    +0.078 A 
ATOM     28  N   UNL     1       1.688  -1.921  -5.919  0.00  0.00    -0.234 NA
ENDBRANCH  16  17
ENDBRANCH  15  16
ENDBRANCH   2  15
TORSDOF 5
