REMARK  Name = ZINC01076844
REMARK  7 active torsions:
REMARK  status: ('A' for Active; 'I' for Inactive)
REMARK    1  A    between atoms: C_4  and  C_7
REMARK    2  A    between atoms: C_7  and  C_8
REMARK    3  A    between atoms: C_8  and  N_9
REMARK    4  A    between atoms: C_10  and  N_28
REMARK    5  A    between atoms: C_15  and  S_16
REMARK    6  A    between atoms: S_16  and  C_17
REMARK    7  A    between atoms: C_17  and  C_18
REMARK                            x       y       z     vdW  Elec       q    Type
REMARK                         _______ _______ _______ _____ _____    ______ ____
ROOT
ATOM      1  N   UNL     1       1.099   3.155   0.019  0.00  0.00    -0.308 N 
ATOM      2  C   UNL     1       1.153   1.785   0.013  0.00  0.00    +0.103 A 
ATOM      3  C   UNL     1      -0.013   1.075   0.020  0.00  0.00    +0.113 A 
ATOM      4  C   UNL     1      -1.236   1.775   0.027  0.00  0.00    +0.276 A 
ATOM      5  O   UNL     1      -2.294   1.163   0.029  0.00  0.00    -0.266 OA
ATOM      6  N   UNL     1      -1.235   3.118   0.038  0.00  0.00    -0.185 NA
ATOM      7  C   UNL     1      -0.105   3.793   0.032  0.00  0.00    +0.174 A 
ENDROOT
BRANCH   2   8
ATOM      8  N   UNL     1       2.365   1.135   0.001  0.00  0.00    -0.344 N 
ATOM      9  H   UNL     1       2.395   0.166  -0.004  0.00  0.00    +0.144 HD
ATOM     10  H   UNL     1       3.189   1.646  -0.004  0.00  0.00    +0.144 HD
ENDBRANCH   2   8
BRANCH   1  11
ATOM     11  C   UNL     1       2.339   3.934   0.012  0.00  0.00    +0.130 C 
BRANCH  11  12
ATOM     12  C   UNL     1       2.759   4.211  -1.433  0.00  0.00    +0.057 C 
BRANCH  12  16
ATOM     13  C   UNL     1       6.376   6.484  -1.454  0.00  0.00    +0.000 A 
ATOM     14  C   UNL     1       6.428   5.103  -1.460  0.00  0.00    +0.000 A 
ATOM     15  C   UNL     1       5.257   4.367  -1.453  0.00  0.00    +0.004 A 
ATOM     16  C   UNL     1       4.035   5.013  -1.440  0.00  0.00    -0.046 A 
ATOM     17  C   UNL     1       3.983   6.394  -1.440  0.00  0.00    +0.004 A 
ATOM     18  C   UNL     1       5.153   7.130  -1.442  0.00  0.00    +0.000 A 
ENDBRANCH  12  16
ENDBRANCH  11  12
ENDBRANCH   1  11
BRANCH   7  19
ATOM     19  S   UNL     1      -0.149   5.554   0.039  0.00  0.00    -0.078 S 
BRANCH  19  20
ATOM     20  C   UNL     1      -1.939   5.823   0.056  0.00  0.00    +0.173 C 
BRANCH  20  21
ATOM     21  C   UNL     1      -2.225   7.303   0.064  0.00  0.00    +0.229 C 
ATOM     22  O   UNL     1      -1.309   8.098   0.060  0.00  0.00    -0.275 OA
ATOM     23  N   UNL     1      -3.499   7.743   0.076  0.00  0.00    -0.270 N 
ATOM     24  C   UNL     1      -3.764   9.107   0.192  0.00  0.00    +0.125 A 
ATOM     25  C   UNL     1      -5.078   9.546   0.311  0.00  0.00    +0.045 A 
ATOM     26  C   UNL     1      -5.327  10.902   0.430  0.00  0.00    +0.025 A 
ATOM     27  C   UNL     1      -4.248  11.777   0.414  0.00  0.00    +0.059 A 
ATOM     28  C   UNL     1      -2.969  11.272   0.286  0.00  0.00    +0.132 A 
ATOM     29  N   UNL     1      -2.763   9.973   0.181  0.00  0.00    -0.239 NA
ATOM     30 CL   UNL     1      -4.506  13.489   0.553  0.00  0.00    -0.082 Cl
ATOM     31  H   UNL     1      -4.231   7.111   0.005  0.00  0.00    +0.156 HD
ENDBRANCH  20  21
ENDBRANCH  19  20
ENDBRANCH   7  19
TORSDOF 7
