REMARK  Name = ZINC63399213
REMARK  11 active torsions:
REMARK  status: ('A' for Active; 'I' for Inactive)
REMARK    1  A    between atoms: C_1  and  C_2
REMARK    2  A    between atoms: C_2  and  C_3
REMARK    3  A    between atoms: C_3  and  C_4
REMARK    4  A    between atoms: C_4  and  N_5
REMARK    5  A    between atoms: C_6  and  N_36
REMARK    6  A    between atoms: C_8  and  N_15
REMARK    7  A    between atoms: N_15  and  C_16
REMARK    8  A    between atoms: C_16  and  C_17
REMARK    9  A    between atoms: C_23  and  C_25
REMARK   10  A    between atoms: C_25  and  C_26
REMARK   11  A    between atoms: C_26  and  C_27
REMARK                            x       y       z     vdW  Elec       q    Type
REMARK                         _______ _______ _______ _____ _____    ______ ____
ROOT
ATOM      1  N   UNL     1       2.852  -5.151   2.520  0.00  0.00    -0.286 N 
ATOM      2  C   UNL     1       1.575  -5.429   2.190  0.00  0.00    +0.217 C 
ATOM      3  O   UNL     1       0.700  -4.621   2.421  0.00  0.00    -0.276 OA
ENDROOT
BRANCH   1   6
ATOM      4  N   UNL     1       2.048  -2.366   1.743  0.00  0.00    -0.296 N 
ATOM      5  C   UNL     1       3.357  -2.770   2.265  0.00  0.00    +0.047 C 
ATOM      6  C   UNL     1       3.169  -3.923   3.254  0.00  0.00    +0.167 C 
ATOM      7  C   UNL     1       2.038  -3.593   4.195  0.00  0.00    +0.261 C 
ATOM      8  O   UNL     1       2.078  -4.030   5.464  0.00  0.00    -0.272 OA
ATOM      9  N   UNL     1       1.023  -2.885   3.786  0.00  0.00    -0.126 NA
ATOM     10  C   UNL     1       0.964  -2.392   2.536  0.00  0.00    +0.327 C 
ATOM     11  O   UNL     1      -0.095  -1.965   2.114  0.00  0.00    -0.250 OA
BRANCH   5  12
ATOM     12  N   UNL     1       3.985  -1.632   2.949  0.00  0.00    +0.392 N 
ATOM     13  H   UNL     1       3.397  -1.332   3.712  0.00  0.00    -0.087 HD
ATOM     14  H   UNL     1       4.886  -1.911   3.308  0.00  0.00    -0.087 HD
ATOM     15  H   UNL     1       4.104  -0.872   2.297  0.00  0.00    -0.087 HD
ENDBRANCH   5  12
BRANCH   4  16
ATOM     16  C   UNL     1       1.923  -1.926   0.351  0.00  0.00    +0.107 C 
BRANCH  16  17
ATOM     17  C   UNL     1       2.144  -0.414   0.272  0.00  0.00    +0.019 C 
BRANCH  17  19
ATOM     18  C   UNL     1       2.233   1.558  -1.260  0.00  0.00    +0.004 C 
ATOM     19  C   UNL     1       2.013   0.045  -1.181  0.00  0.00    -0.002 C 
ENDBRANCH  17  19
ENDBRANCH  16  17
ENDBRANCH   4  16
ENDBRANCH   1   6
BRANCH   1  20
ATOM     20  C   UNL     1       3.924  -6.077   2.145  0.00  0.00    +0.143 C 
BRANCH  20  21
ATOM     21  C   UNL     1       4.557  -5.617   0.857  0.00  0.00    -0.030 A 
ATOM     22  C   UNL     1       4.137  -6.149  -0.348  0.00  0.00    +0.005 A 
ATOM     23  C   UNL     1       4.718  -5.727  -1.529  0.00  0.00    +0.000 A 
ATOM     24  C   UNL     1       5.718  -4.773  -1.505  0.00  0.00    +0.000 A 
ATOM     25  C   UNL     1       6.138  -4.241  -0.300  0.00  0.00    +0.000 A 
ATOM     26  C   UNL     1       5.554  -4.659   0.881  0.00  0.00    +0.005 A 
ENDBRANCH  20  21
ENDBRANCH   1  20
BRANCH   2  27
ATOM     27  C   UNL     1       1.235  -6.742   1.535  0.00  0.00    +0.100 C 
BRANCH  27  28
ATOM     28  C   UNL     1      -0.251  -6.761   1.171  0.00  0.00    +0.042 C 
BRANCH  28  29
ATOM     29  C   UNL     1      -0.591  -8.075   0.516  0.00  0.00    -0.041 C 
ATOM     30  C   UNL     1      -1.101  -9.175   1.116  0.00  0.00    -0.001 A 
ATOM     31  C   UNL     1      -1.475  -9.466   2.505  0.00  0.00    +0.010 A 
ATOM     32  C   UNL     1      -1.969 -10.688   2.808  0.00  0.00    +0.001 A 
ATOM     33  C   UNL     1      -2.132 -11.680   1.832  0.00  0.00    +0.002 A 
ATOM     34  C   UNL     1      -1.811 -11.487   0.535  0.00  0.00    +0.026 A 
ATOM     35  C   UNL     1      -1.283 -10.239   0.104  0.00  0.00    +0.043 A 
ATOM     36  N   UNL     1      -0.901  -9.814  -1.076  0.00  0.00    -0.380 N 
ATOM     37  C   UNL     1      -0.439  -8.428  -0.947  0.00  0.00    +0.144 C 
ATOM     38  H   UNL     1      -0.924 -10.329  -1.898  0.00  0.00    +0.160 HD
ENDBRANCH  28  29
ENDBRANCH  27  28
ENDBRANCH   2  27
TORSDOF 10
