REMARK  Name = ZINC65550477
REMARK  8 active torsions:
REMARK  status: ('A' for Active; 'I' for Inactive)
REMARK    1  A    between atoms: C_1  and  O_2
REMARK    2  A    between atoms: O_2  and  C_3
REMARK    3  A    between atoms: C_6  and  C_9
REMARK    4  A    between atoms: C_13  and  S_19
REMARK    5  A    between atoms: N_15  and  C_16
REMARK    6  A    between atoms: C_16  and  C_17
REMARK    7  A    between atoms: S_19  and  C_20
REMARK    8  A    between atoms: C_20  and  C_21
REMARK                            x       y       z     vdW  Elec       q    Type
REMARK                         _______ _______ _______ _____ _____    ______ ____
ROOT
ATOM      1  C   UNL     1       2.522  -2.674   4.255  0.00  0.00    +0.172 C 
ATOM      2  N   UNL     1       2.418  -1.780   5.438  0.00  0.00    -0.233 NA
ATOM      3  N   UNL     1       2.636  -2.697   6.568  0.00  0.00    -0.229 NA
ATOM      4  C   UNL     1       1.949  -3.946   6.168  0.00  0.00    +0.200 C 
ATOM      5  N   UNL     1       1.879  -3.935   4.690  0.00  0.00    -0.254 NA
ATOM      6  H   UNL     1       1.505  -1.354   5.490  0.00  0.00    +0.143 HD
ATOM      7  H   UNL     1       2.242  -2.324   7.418  0.00  0.00    +0.143 HD
ENDROOT
BRANCH   1  11
ATOM      8  C   UNL     1       0.432  -0.998   0.926  0.00  0.00    +0.120 A 
ATOM      9  C   UNL     1       1.061  -0.167   1.841  0.00  0.00    +0.046 A 
ATOM     10  C   UNL     1       1.736  -0.711   2.917  0.00  0.00    +0.010 A 
ATOM     11  C   UNL     1       1.785  -2.083   3.081  0.00  0.00    -0.015 A 
ATOM     12  C   UNL     1       1.159  -2.913   2.170  0.00  0.00    +0.010 A 
ATOM     13  C   UNL     1       0.478  -2.374   1.097  0.00  0.00    +0.046 A 
BRANCH   8  15
ATOM     14  C   UNL     1      -0.239   0.960  -0.244  0.00  0.00    +0.277 C 
ATOM     15  O   UNL     1      -0.234  -0.465  -0.132  0.00  0.00    -0.495 OA
ENDBRANCH   8  15
ENDBRANCH   1  11
BRANCH   5  16
ATOM     16  C   UNL     1       2.566  -5.101   4.118  0.00  0.00    +0.115 C 
BRANCH  16  17
ATOM     17  C   UNL     1       1.687  -6.317   4.253  0.00  0.00    -0.019 C 
ATOM     18  C   UNL     1       1.382  -7.026   3.194  0.00  0.00    +0.005 C 
ENDBRANCH  16  17
ENDBRANCH   5  16
BRANCH   4  19
ATOM     19  S   UNL     1       2.897  -5.386   6.732  0.00  0.00    -0.121 S 
BRANCH  19  20
ATOM     20  C   UNL     1       2.589  -5.442   8.519  0.00  0.00    +0.118 C 
BRANCH  20  21
ATOM     21  C   UNL     1       3.437  -6.549   9.149  0.00  0.00    +0.184 C 
ATOM     22  N   UNL     1       3.142  -7.836   8.508  0.00  0.00    -0.363 N 
ATOM     23  C   UNL     1       4.246  -8.268   7.971  0.00  0.00    +0.060 A 
ATOM     24  C   UNL     1       4.579  -9.477   7.206  0.00  0.00    +0.027 A 
ATOM     25  C   UNL     1       5.840  -9.660   6.766  0.00  0.00    +0.002 A 
ATOM     26  C   UNL     1       6.869  -8.734   7.009  0.00  0.00    +0.002 A 
ATOM     27  C   UNL     1       6.672  -7.593   7.699  0.00  0.00    +0.027 A 
ATOM     28  C   UNL     1       5.336  -7.287   8.228  0.00  0.00    +0.060 A 
ATOM     29  N   UNL     1       4.862  -6.287   8.914  0.00  0.00    -0.363 N 
ATOM     30  H   UNL     1       2.281  -8.284   8.489  0.00  0.00    +0.162 HD
ATOM     31  H   UNL     1       5.360  -5.510   9.214  0.00  0.00    +0.162 HD
ENDBRANCH  20  21
ENDBRANCH  19  20
ENDBRANCH   4  19
TORSDOF 7
