REMARK  Name = ZINC43208849
REMARK  10 active torsions:
REMARK  status: ('A' for Active; 'I' for Inactive)
REMARK    1  A    between atoms: C_1  and  C_2
REMARK    2  A    between atoms: C_2  and  C_3
REMARK    3  A    between atoms: C_2  and  C_4
REMARK    4  A    between atoms: C_4  and  C_5
REMARK    5  A    between atoms: C_5  and  C_7
REMARK    6  A    between atoms: C_5  and  N_10
REMARK    7  A    between atoms: C_11  and  C_13
REMARK    8  A    between atoms: C_16  and  C_19
REMARK    9  A    between atoms: C_19  and  O_20
REMARK   10  A    between atoms: O_20  and  C_21
REMARK                            x       y       z     vdW  Elec       q    Type
REMARK                         _______ _______ _______ _____ _____    ______ ____
ROOT
ATOM      1  C   UNL     1       4.622  -0.885   1.597  0.00  0.00    +0.037 A 
ATOM      2  C   UNL     1       4.128  -2.100   2.075  0.00  0.00    +0.013 A 
ATOM      3  C   UNL     1       4.761  -2.732   3.126  0.00  0.00    +0.008 A 
ATOM      4  C   UNL     1       5.882  -2.164   3.705  0.00  0.00    -0.010 A 
ATOM      5  C   UNL     1       6.376  -0.960   3.235  0.00  0.00    +0.008 A 
ATOM      6  C   UNL     1       5.756  -0.321   2.182  0.00  0.00    +0.013 A 
ENDROOT
BRANCH   1   8
ATOM      7  N   UNL     1       2.854  -0.750  -0.092  0.00  0.00    -0.300 N 
ATOM      8  C   UNL     1       3.949  -0.202   0.471  0.00  0.00    +0.245 C 
ATOM      9  O   UNL     1       4.384   0.853   0.053  0.00  0.00    -0.270 OA
ATOM     10  H   UNL     1       2.507  -1.592   0.242  0.00  0.00    +0.150 HD
BRANCH   7  11
ATOM     11  C   UNL     1       2.187  -0.073  -1.207  0.00  0.00    +0.159 C 
BRANCH  11  12
ATOM     12  C   UNL     1       2.863  -0.451  -2.500  0.00  0.00    +0.231 C 
ATOM     13  O   UNL     1       3.809  -1.211  -2.491  0.00  0.00    -0.274 OA
ATOM     14  N   UNL     1       2.417   0.055  -3.667  0.00  0.00    -0.328 N 
ATOM     15  H   UNL     1       1.661   0.663  -3.674  0.00  0.00    +0.145 HD
ATOM     16  H   UNL     1       2.852  -0.188  -4.499  0.00  0.00    +0.145 HD
ENDBRANCH  11  12
BRANCH  11  17
ATOM     17  C   UNL     1       0.718  -0.497  -1.257  0.00  0.00    +0.034 C 
BRANCH  17  19
ATOM     18  C   UNL     1      -0.019   1.526   0.010  0.00  0.00    +0.007 C 
ATOM     19  C   UNL     1       0.002  -0.004   0.002  0.00  0.00    -0.015 C 
ATOM     20  C   UNL     1      -1.433  -0.534   0.013  0.00  0.00    +0.007 C 
ENDBRANCH  17  19
ENDBRANCH  11  17
ENDBRANCH   7  11
ENDBRANCH   1   8
BRANCH   4  21
ATOM     21  C   UNL     1       6.567  -2.860   4.852  0.00  0.00    +0.264 C 
BRANCH  21  22
ATOM     22  O   UNL     1       7.570  -3.743   4.343  0.00  0.00    -0.485 OA
BRANCH  22  23
ATOM     23  C   UNL     1       8.286  -4.452   5.254  0.00  0.00    +0.147 A 
ATOM     24  C   UNL     1       8.032  -4.311   6.589  0.00  0.00    +0.049 A 
ATOM     25  C   UNL     1       8.756  -5.029   7.537  0.00  0.00    +0.024 A 
ATOM     26  C   UNL     1       9.739  -5.894   7.159  0.00  0.00    +0.050 A 
ATOM     27  C   UNL     1      10.029  -6.067   5.795  0.00  0.00    +0.022 A 
ATOM     28  C   UNL     1       9.292  -5.343   4.826  0.00  0.00    +0.114 A 
ATOM     29  N   UNL     1       9.561  -5.507   3.527  0.00  0.00    -0.251 NA
ATOM     30  C   UNL     1      10.495  -6.333   3.123  0.00  0.00    +0.111 A 
ATOM     31  C   UNL     1      11.252  -7.080   4.024  0.00  0.00    +0.020 A 
ATOM     32  C   UNL     1      11.037  -6.950   5.367  0.00  0.00    +0.013 A 
ATOM     33 CL   UNL     1      10.630  -6.778   8.359  0.00  0.00    -0.083 Cl
ENDBRANCH  22  23
ENDBRANCH  21  22
ENDBRANCH   4  21
TORSDOF 8
