REMARK  Name = ZINC06198017
REMARK  11 active torsions:
REMARK  status: ('A' for Active; 'I' for Inactive)
REMARK    1  A    between atoms: C_1  and  C_2
REMARK    2  A    between atoms: C_2  and  C_3
REMARK    3  A    between atoms: C_10  and  C_15
REMARK    4  A    between atoms: C_15  and  C_17
REMARK    5  A    between atoms: C_15  and  N_71
REMARK    6  A    between atoms: N_21  and  C_22
REMARK    7  A    between atoms: C_22  and  C_23
REMARK    8  A    between atoms: C_29  and  C_30
REMARK    9  A    between atoms: C_29  and  N_71
REMARK   10  A    between atoms: C_36  and  C_37
REMARK   11  A    between atoms: C_36  and  N_71
REMARK                            x       y       z     vdW  Elec       q    Type
REMARK                         _______ _______ _______ _____ _____    ______ ____
ROOT
ATOM      1  C   UNL     1       2.554   1.292  -0.286  0.00  0.00    +0.040 C 
ENDROOT
BRANCH   1   9
ATOM      2  C   UNL     1      -3.314   1.575  -2.228  0.00  0.00    -0.047 A 
ATOM      3  C   UNL     1      -3.466   2.945  -2.062  0.00  0.00    +0.005 A 
ATOM      4  C   UNL     1      -2.427   3.717  -1.588  0.00  0.00    +0.026 A 
ATOM      5  C   UNL     1      -1.212   3.118  -1.272  0.00  0.00    +0.049 A 
ATOM      6  C   UNL     1      -1.059   1.730  -1.446  0.00  0.00    -0.001 A 
ATOM      7  C   UNL     1      -2.129   0.966  -1.924  0.00  0.00    +0.013 A 
ATOM      8  C   UNL     1       0.222   1.109  -1.104  0.00  0.00    +0.017 A 
ATOM      9  C   UNL     1       1.222   1.899  -0.641  0.00  0.00    +0.011 A 
ATOM     10  C   UNL     1       1.018   3.287  -0.490  0.00  0.00    +0.251 A 
ATOM     11  O   UNL     1       1.931   3.979  -0.072  0.00  0.00    -0.268 OA
ATOM     12  N   UNL     1      -0.156   3.866  -0.796  0.00  0.00    -0.322 N 
ATOM     13  H   UNL     1      -0.265   4.853  -0.676  0.00  0.00    +0.169 HD
BRANCH   2  15
ATOM     14  C   UNL     1      -4.397   0.689  -4.275  0.00  0.00    +0.009 C 
ATOM     15  C   UNL     1      -4.465   0.753  -2.748  0.00  0.00    +0.032 C 
ENDBRANCH   2  15
ENDBRANCH   1   9
BRANCH   1  16
ATOM     16  C   UNL     1       3.612   1.822  -1.219  0.00  0.00    +0.143 A 
ATOM     17  N   UNL     1       4.266   2.952  -1.099  0.00  0.00    -0.115 NA
ATOM     18  N   UNL     1       5.083   3.046  -2.091  0.00  0.00    -0.023 NA
ATOM     19  N   UNL     1       4.963   2.009  -2.844  0.00  0.00    -0.044 NA
ATOM     20  N   UNL     1       4.066   1.231  -2.340  0.00  0.00    -0.228 N 
BRANCH  20  21
ATOM     21  C   UNL     1       3.623  -0.055  -2.885  0.00  0.00    +0.178 C 
BRANCH  21  22
ATOM     22  C   UNL     1       2.526   0.183  -3.925  0.00  0.00    +0.140 C 
ATOM     23  C   UNL     1       1.973  -1.170  -4.422  0.00  0.00    +0.035 C 
ATOM     24  C   UNL     1       1.768  -0.905  -5.938  0.00  0.00    +0.031 C 
ATOM     25  C   UNL     1       2.950   0.052  -6.233  0.00  0.00    +0.160 C 
ATOM     26  O   UNL     1       3.071   0.870  -5.058  0.00  0.00    -0.375 OA
ENDBRANCH  21  22
ENDBRANCH  20  21
ENDBRANCH   1  16
BRANCH   1  27
ATOM     27  N   UNL     1       2.902   1.673   1.099  0.00  0.00    +0.397 N 
ATOM     28  H   UNL     1       2.988   2.695   1.152  0.00  0.00    -0.079 HD
BRANCH  27  29
ATOM     29  C   UNL     1       4.193   1.062   1.482  0.00  0.00    -0.041 C 
BRANCH  29  30
ATOM     30  C   UNL     1       4.107  -0.441   1.414  0.00  0.00    -0.064 A 
ATOM     31  C   UNL     1       3.759  -1.165   2.540  0.00  0.00    +0.002 A 
ATOM     32  C   UNL     1       3.675  -2.543   2.476  0.00  0.00    +0.000 A 
ATOM     33  C   UNL     1       3.950  -3.198   1.291  0.00  0.00    +0.000 A 
ATOM     34  C   UNL     1       4.304  -2.475   0.167  0.00  0.00    +0.000 A 
ATOM     35  C   UNL     1       4.382  -1.097   0.229  0.00  0.00    +0.002 A 
ENDBRANCH  29  30
ENDBRANCH  27  29
BRANCH  27  36
ATOM     36  C   UNL     1       1.840   1.231   2.027  0.00  0.00    -0.001 C 
BRANCH  36  37
ATOM     37  C   UNL     1       2.022   1.939   3.344  0.00  0.00    +0.089 A 
ATOM     38  C   UNL     1       1.453   3.106   3.696  0.00  0.00    +0.042 A 
ATOM     39  C   UNL     1       1.893   3.398   5.008  0.00  0.00    +0.041 A 
ATOM     40  C   UNL     1       2.712   2.396   5.376  0.00  0.00    +0.195 A 
ATOM     41  O   UNL     1       2.786   1.516   4.364  0.00  0.00    -0.470 OA
ENDBRANCH  36  37
ENDBRANCH  27  36
ENDBRANCH   1  27
TORSDOF 10
