REMARK  Name = ZINC20380335
REMARK  3 active torsions:
REMARK  status: ('A' for Active; 'I' for Inactive)
REMARK    1  A    between atoms: C_1  and  S_2
REMARK    2  A    between atoms: S_2  and  C_3
REMARK    3  A    between atoms: C_6  and  C_9
REMARK                            x       y       z     vdW  Elec       q    Type
REMARK                         _______ _______ _______ _____ _____    ______ ____
ROOT
ATOM      1  C   UNL     1      -2.501   1.007   0.020  0.00  0.00    +0.143 A 
ATOM      2  N   UNL     1      -3.683   1.689   0.035  0.00  0.00    -0.333 N 
ATOM      3  H   UNL     1      -3.683   2.789   0.047  0.00  0.00    +0.168 HD
ATOM      4  C   UNL     1      -4.850   1.012   0.035  0.00  0.00    +0.094 A 
ATOM      5  S   UNL     1      -6.343   1.851   0.050  0.00  0.00    -0.032 S 
ATOM      6  C   UNL     1      -4.819  -0.389   0.026  0.00  0.00    +0.050 A 
ATOM      7  C   UNL     1      -3.598  -1.032   0.015  0.00  0.00    +0.228 A 
ATOM      8  N   UNL     1      -2.470  -0.308   0.013  0.00  0.00    -0.194 NA
ATOM      9  O   UNL     1      -3.521  -2.379   0.005  0.00  0.00    -0.437 OA
ATOM     10  C   UNL     1      -4.580  -3.126   0.402  0.00  0.00    +0.134 A 
ATOM     11  C   UNL     1      -4.374  -4.447   0.781  0.00  0.00    +0.048 A 
ATOM     12  C   UNL     1      -5.438  -5.226   1.189  0.00  0.00    +0.023 A 
ATOM     13  C   UNL     1      -6.714  -4.691   1.221  0.00  0.00    +0.041 A 
ATOM     14  C   UNL     1      -6.922  -3.377   0.844  0.00  0.00    +0.027 A 
ATOM     15  C   UNL     1      -5.858  -2.593   0.435  0.00  0.00    +0.001 A 
ATOM     16  C   UNL     1      -6.106  -1.165   0.028  0.00  0.00    +0.082 C 
ATOM     17 CL   UNL     1      -8.053  -5.669   1.734  0.00  0.00    -0.084 Cl
ENDROOT
BRANCH   1  21
ATOM     18  C   UNL     1       1.147   3.171   0.008  0.00  0.00    +0.008 A 
ATOM     19  C   UNL     1       1.165   1.778   0.001  0.00  0.00    +0.015 A 
ATOM     20  C   UNL     1      -0.013   1.076   0.008  0.00  0.00    +0.012 A 
ATOM     21  C   UNL     1      -1.233   1.759   0.017  0.00  0.00    +0.017 A 
ATOM     22  C   UNL     1      -1.247   3.158   0.030  0.00  0.00    +0.012 A 
ATOM     23  C   UNL     1      -0.067   3.854   0.022  0.00  0.00    +0.015 A 
BRANCH  18  25
ATOM     24  C   UNL     1       2.142   5.808   0.013  0.00  0.00    +0.090 C 
ATOM     25  S   UNL     1       2.662   4.070  -0.001  0.00  0.00    -0.129 S 
ENDBRANCH  18  25
ENDBRANCH   1  21
TORSDOF 2
