REMARK  Name = ZINC11978950
REMARK  10 active torsions:
REMARK  status: ('A' for Active; 'I' for Inactive)
REMARK    1  A    between atoms: C_1  and  C_2
REMARK    2  A    between atoms: C_2  and  C_3
REMARK    3  A    between atoms: C_10  and  C_11
REMARK    4  A    between atoms: C_10  and  N_64
REMARK    5  A    between atoms: C_21  and  C_22
REMARK    6  A    between atoms: C_21  and  N_66
REMARK    7  A    between atoms: C_25  and  O_30
REMARK    8  A    between atoms: C_27  and  O_28
REMARK    9  A    between atoms: O_28  and  C_29
REMARK   10  A    between atoms: O_30  and  C_31
REMARK                            x       y       z     vdW  Elec       q    Type
REMARK                         _______ _______ _______ _____ _____    ______ ____
ROOT
ATOM      1  C   UNL     1      -2.568   2.301  -2.493  0.00  0.00    -0.064 A 
ATOM      2  C   UNL     1      -2.330   1.694  -3.712  0.00  0.00    +0.005 A 
ATOM      3  C   UNL     1      -2.823   2.252  -4.876  0.00  0.00    +0.046 A 
ATOM      4  C   UNL     1      -3.565   3.423  -4.816  0.00  0.00    +0.122 A 
ATOM      5  C   UNL     1      -3.811   4.019  -3.593  0.00  0.00    -0.022 A 
ATOM      6  C   UNL     1      -3.313   3.466  -2.432  0.00  0.00    +0.007 A 
ATOM      7  C   UNL     1      -4.653   5.279  -3.538  0.00  0.00    -0.039 C 
ATOM      8  C   UNL     1      -4.070   6.397  -5.621  0.00  0.00    -0.036 C 
ATOM      9  C   UNL     1      -3.406   5.233  -6.324  0.00  0.00    +0.210 C 
ATOM     10  O   UNL     1      -4.032   3.996  -5.958  0.00  0.00    -0.494 OA
ATOM     11  N   UNL     1      -3.871   6.376  -4.156  0.00  0.00    +0.387 N 
ATOM     12  H   UNL     1      -2.875   6.220  -3.961  0.00  0.00    -0.081 HD
ENDROOT
BRANCH   1  13
ATOM     13  C   UNL     1      -2.020   1.691  -1.228  0.00  0.00    -0.042 C 
BRANCH  13  21
ATOM     14  C   UNL     1      -0.168   1.762   0.330  0.00  0.00    +0.019 C 
ATOM     15  C   UNL     1       1.128   2.451   0.651  0.00  0.00    +0.199 C 
ATOM     16  O   UNL     1       1.847   1.970   1.502  0.00  0.00    -0.278 OA
ATOM     17  N   UNL     1       1.522   3.573   0.040  0.00  0.00    -0.318 N 
ATOM     18  C   UNL     1       0.748   4.212  -1.021  0.00  0.00    +0.085 C 
ATOM     19  C   UNL     1      -0.696   3.708  -0.993  0.00  0.00    -0.058 C 
ATOM     20  H   UNL     1       2.359   3.980   0.313  0.00  0.00    +0.149 HD
ATOM     21  N   UNL     1      -0.664   2.232  -0.977  0.00  0.00    +0.391 N 
ATOM     22  H   UNL     1      -0.031   1.902  -1.715  0.00  0.00    -0.080 HD
BRANCH  14  24
ATOM     23  C   UNL     1       1.070  -0.060  -0.849  0.00  0.00    +0.002 C 
ATOM     24  C   UNL     1       0.064   0.251   0.261  0.00  0.00    -0.010 C 
ENDBRANCH  14  24
ENDBRANCH  13  21
ENDBRANCH   1  13
BRANCH  11  25
ATOM     25  C   UNL     1      -4.273   7.669  -3.579  0.00  0.00    -0.039 C 
BRANCH  25  26
ATOM     26  C   UNL     1      -4.163   7.585  -2.079  0.00  0.00    -0.022 A 
ATOM     27  C   UNL     1      -5.306   7.521  -1.305  0.00  0.00    +0.009 A 
ATOM     28  C   UNL     1      -5.208   7.443   0.071  0.00  0.00    +0.046 A 
ATOM     29  C   UNL     1      -3.961   7.429   0.680  0.00  0.00    +0.124 A 
ATOM     30  C   UNL     1      -2.813   7.493  -0.094  0.00  0.00    +0.091 A 
ATOM     31  C   UNL     1      -2.913   7.566  -1.475  0.00  0.00    +0.125 A 
BRANCH  31  32
ATOM     32  O   UNL     1      -1.789   7.623  -2.237  0.00  0.00    -0.495 OA
ATOM     33  C   UNL     1      -0.537   7.599  -1.548  0.00  0.00    +0.277 C 
ENDBRANCH  31  32
BRANCH  29  34
ATOM     34  O   UNL     1      -3.866   7.353   2.033  0.00  0.00    -0.495 OA
ATOM     35  C   UNL     1      -5.090   7.291   2.767  0.00  0.00    +0.277 C 
ENDBRANCH  29  34
ENDBRANCH  25  26
ENDBRANCH  11  25
TORSDOF 7
