REMARK  Name = ZINC32429416
REMARK  6 active torsions:
REMARK  status: ('A' for Active; 'I' for Inactive)
REMARK    1  A    between atoms: C_1  and  C_2
REMARK    2  A    between atoms: C_2  and  C_4
REMARK    3  A    between atoms: C_2  and  N_26
REMARK    4  A    between atoms: C_4  and  N_5
REMARK    5  A    between atoms: C_6  and  C_8
REMARK    6  A    between atoms: C_19  and  C_21
REMARK                            x       y       z     vdW  Elec       q    Type
REMARK                         _______ _______ _______ _____ _____    ______ ____
ROOT
ATOM      1  N   UNL     1      -3.453   2.260   1.881  0.00  0.00    -0.315 N 
ATOM      2  C   UNL     1      -4.682   1.886   1.473  0.00  0.00    +0.234 C 
ATOM      3  O   UNL     1      -5.574   2.705   1.406  0.00  0.00    -0.274 OA
ATOM      4  H   UNL     1      -2.644   1.517   1.942  0.00  0.00    +0.149 HD
ENDROOT
BRANCH   2   5
ATOM      5  C   UNL     1      -4.948   0.450   1.101  0.00  0.00    +0.167 C 
ATOM      6  C   UNL     1      -3.684  -0.382   1.313  0.00  0.00    +0.067 C 
ATOM      7  C   UNL     1      -3.995  -1.854   1.254  0.00  0.00    -0.040 A 
ATOM      8  C   UNL     1      -2.942  -2.725   1.002  0.00  0.00    +0.004 A 
ATOM      9  C   UNL     1      -3.156  -4.087   0.946  0.00  0.00    +0.000 A 
ATOM     10  C   UNL     1      -4.428  -4.592   1.143  0.00  0.00    +0.000 A 
ATOM     11  C   UNL     1      -5.475  -3.729   1.389  0.00  0.00    +0.005 A 
ATOM     12  C   UNL     1      -5.262  -2.358   1.440  0.00  0.00    -0.027 A 
ATOM     13  C   UNL     1      -6.456  -1.469   1.688  0.00  0.00    +0.144 C 
ATOM     14  N   UNL     1      -6.005  -0.101   1.965  0.00  0.00    -0.279 N 
ATOM     15  C   UNL     1      -6.535   0.621   2.971  0.00  0.00    +0.283 C 
ATOM     16  O   UNL     1      -6.182   1.773   3.145  0.00  0.00    -0.267 OA
BRANCH  15  17
ATOM     17  C   UNL     1      -7.537   0.019   3.857  0.00  0.00    +0.189 A 
ATOM     18  C   UNL     1      -8.214   0.660   4.855  0.00  0.00    +0.054 A 
ATOM     19  C   UNL     1      -9.067  -0.290   5.438  0.00  0.00    +0.042 A 
ATOM     20  C   UNL     1      -8.870  -1.456   4.785  0.00  0.00    +0.196 A 
ATOM     21  O   UNL     1      -7.948  -1.266   3.833  0.00  0.00    -0.458 OA
ENDBRANCH  15  17
ENDBRANCH   2   5
BRANCH   1  22
ATOM     22  C   UNL     1      -3.195   3.655   2.244  0.00  0.00    +0.089 C 
BRANCH  22  24
ATOM     23  C   UNL     1      -1.344   3.034   3.803  0.00  0.00    -0.012 C 
ATOM     24  C   UNL     1      -1.707   3.835   2.551  0.00  0.00    -0.054 C 
BRANCH  24  25
ATOM     25  N   UNL     1      -0.910   3.354   1.414  0.00  0.00    +0.385 N 
ATOM     26  C   UNL     1       0.520   3.622   1.623  0.00  0.00    -0.073 C 
ATOM     27  C   UNL     1       1.333   2.759   0.643  0.00  0.00    +0.024 C 
ATOM     28  C   UNL     1       0.706   2.889  -0.707  0.00  0.00    -0.011 A 
ATOM     29  C   UNL     1      -0.523   3.408  -0.986  0.00  0.00    -0.054 A 
ATOM     30  C   UNL     1      -0.898   3.429  -2.327  0.00  0.00    +0.009 A 
ATOM     31  C   UNL     1      -0.059   2.948  -3.273  0.00  0.00    +0.045 A 
ATOM     32  S   UNL     1       1.342   2.428  -2.293  0.00  0.00    -0.101 S 
ATOM     33  C   UNL     1      -1.401   3.919   0.152  0.00  0.00    -0.042 C 
ATOM     34  H   UNL     1      -1.029   2.263   1.345  0.00  0.00    -0.081 HD
ENDBRANCH  24  25
ENDBRANCH  22  24
ENDBRANCH   1  22
TORSDOF 5
