REMARK  Name = ZINC63764616
REMARK  8 active torsions:
REMARK  status: ('A' for Active; 'I' for Inactive)
REMARK    1  A    between atoms: C_1  and  C_2
REMARK    2  A    between atoms: C_4  and  C_25
REMARK    3  A    between atoms: C_5  and  C_9
REMARK    4  A    between atoms: C_6  and  C_8
REMARK    5  A    between atoms: C_9  and  N_10
REMARK    6  A    between atoms: N_10  and  S_11
REMARK    7  A    between atoms: S_11  and  C_14
REMARK    8  A    between atoms: N_23  and  C_24
REMARK                            x       y       z     vdW  Elec       q    Type
REMARK                         _______ _______ _______ _____ _____    ______ ____
ROOT
ATOM      1  S   UNL     1       1.788  -6.325   0.329  0.00  0.00    +0.059 S 
ATOM      2  O   UNL     1       3.196  -6.474   0.209  0.00  0.00    -0.153 OA
ATOM      3  O   UNL     1       1.090  -6.628   1.529  0.00  0.00    -0.153 OA
ENDROOT
BRANCH   1   4
ATOM      4  C   UNL     1       1.067  -7.316  -0.937  0.00  0.00    +0.109 A 
ATOM      5  C   UNL     1      -0.232  -7.773  -0.799  0.00  0.00    +0.031 A 
ATOM      6  C   UNL     1      -0.804  -8.550  -1.787  0.00  0.00    +0.031 A 
ATOM      7  C   UNL     1      -0.073  -8.873  -2.920  0.00  0.00    +0.090 A 
ATOM      8  C   UNL     1       1.236  -8.412  -3.061  0.00  0.00    +0.159 A 
ATOM      9  C   UNL     1       1.800  -7.629  -2.066  0.00  0.00    +0.077 A 
ATOM     10  O   UNL     1       1.699  -8.874  -4.248  0.00  0.00    -0.407 OA
ATOM     11  C   UNL     1       0.739  -9.597  -4.845  0.00  0.00    +0.421 A 
ATOM     12  O   UNL     1       0.843 -10.148  -5.925  0.00  0.00    -0.223 OA
ATOM     13  N   UNL     1      -0.359  -9.618  -4.063  0.00  0.00    -0.277 N 
ATOM     14  C   UNL     1      -1.621 -10.299  -4.361  0.00  0.00    +0.156 C 
ENDBRANCH   1   4
BRANCH   1  15
ATOM     15  N   UNL     1       1.447  -4.746  -0.032  0.00  0.00    -0.186 NA
ATOM     16  H   UNL     1       2.166  -4.132  -0.250  0.00  0.00    +0.148 HD
BRANCH  15  17
ATOM     17  C   UNL     1       0.059  -4.275  -0.021  0.00  0.00    +0.141 C 
BRANCH  17  22
ATOM     18  C   UNL     1      -0.018   1.503   0.010  0.00  0.00    +0.044 C 
ATOM     19  C   UNL     1       0.002  -0.004   0.002  0.00  0.00    -0.050 A 
ATOM     20  C   UNL     1       0.006  -0.689  -1.199  0.00  0.00    +0.007 A 
ATOM     21  C   UNL     1       0.025  -2.071  -1.206  0.00  0.00    -0.046 A 
ATOM     22  C   UNL     1       0.040  -2.768  -0.013  0.00  0.00    -0.026 A 
ATOM     23  C   UNL     1       0.037  -2.084   1.188  0.00  0.00    -0.046 A 
ATOM     24  C   UNL     1       0.023  -0.702   1.195  0.00  0.00    +0.007 A 
ATOM     25  C   UNL     1       0.054  -2.844   2.489  0.00  0.00    +0.044 C 
ATOM     26  C   UNL     1       0.027  -2.817  -2.516  0.00  0.00    +0.044 C 
ENDBRANCH  17  22
ENDBRANCH  15  17
ENDBRANCH   1  15
TORSDOF 4
