REMARK  Name = ZINC39668691
REMARK  9 active torsions:
REMARK  status: ('A' for Active; 'I' for Inactive)
REMARK    1  A    between atoms: C_1  and  C_2
REMARK    2  A    between atoms: C_2  and  C_4
REMARK    3  A    between atoms: C_2  and  O_34
REMARK    4  A    between atoms: C_4  and  N_5
REMARK    5  A    between atoms: C_6  and  C_8
REMARK    6  A    between atoms: C_19  and  C_21
REMARK    7  A    between atoms: C_26  and  S_27
REMARK    8  A    between atoms: S_27  and  C_28
REMARK    9  A    between atoms: O_34  and  C_35
REMARK                            x       y       z     vdW  Elec       q    Type
REMARK                         _______ _______ _______ _____ _____    ______ ____
ROOT
ATOM      1  C   UNL     1      -2.108  -2.939  -0.271  0.00  0.00    +0.100 C 
ATOM      2  C   UNL     1      -1.534  -3.502   1.048  0.00  0.00    +0.121 C 
ATOM      3  N   UNL     1      -2.722  -3.946   1.815  0.00  0.00    -0.296 N 
ATOM      4  C   UNL     1      -3.615  -4.548   0.795  0.00  0.00    +0.115 C 
ATOM      5  C   UNL     1      -3.472  -3.630  -0.435  0.00  0.00    -0.004 C 
ATOM      6  C   UNL     1      -4.592  -2.594  -0.451  0.00  0.00    -0.010 C 
ATOM      7  C   UNL     1      -5.932  -3.300  -0.672  0.00  0.00    -0.082 C 
ATOM      8  N   UNL     1      -5.897  -4.032  -1.944  0.00  0.00    +0.379 N 
ATOM      9  C   UNL     1      -4.880  -5.089  -1.887  0.00  0.00    -0.082 C 
ATOM     10  C   UNL     1      -3.495  -4.458  -1.716  0.00  0.00    -0.010 C 
ATOM     11  C   UNL     1      -2.942  -3.828   3.139  0.00  0.00    +0.249 C 
ATOM     12  O   UNL     1      -2.147  -3.228   3.837  0.00  0.00    -0.270 OA
ATOM     13  H   UNL     1      -6.801  -4.447  -2.117  0.00  0.00    -0.086 HD
ATOM     14  H   UNL     1      -5.675  -3.393  -2.692  0.00  0.00    -0.086 HD
ENDROOT
BRANCH  11  15
ATOM     15  C   UNL     1      -4.147  -4.426   3.742  0.00  0.00    +0.069 A 
ATOM     16  C   UNL     1      -4.648  -5.646   3.274  0.00  0.00    +0.017 A 
ATOM     17  C   UNL     1      -5.781  -6.166   3.874  0.00  0.00    +0.020 A 
ATOM     18  C   UNL     1      -6.382  -5.473   4.910  0.00  0.00    +0.112 A 
ATOM     19  N   UNL     1      -5.896  -4.324   5.337  0.00  0.00    -0.248 NA
ATOM     20  C   UNL     1      -4.811  -3.784   4.803  0.00  0.00    +0.114 A 
BRANCH  20  21
ATOM     21  S   UNL     1      -4.200  -2.251   5.418  0.00  0.00    -0.069 S 
BRANCH  21  22
ATOM     22  C   UNL     1      -5.231  -1.908   6.806  0.00  0.00    +0.014 A 
ATOM     23  C   UNL     1      -4.825  -2.277   8.083  0.00  0.00    +0.015 A 
ATOM     24  C   UNL     1      -5.635  -2.007   9.168  0.00  0.00    +0.001 A 
ATOM     25  C   UNL     1      -6.849  -1.370   8.985  0.00  0.00    +0.000 A 
ATOM     26  C   UNL     1      -7.256  -1.002   7.716  0.00  0.00    +0.001 A 
ATOM     27  C   UNL     1      -6.449  -1.264   6.627  0.00  0.00    +0.015 A 
ENDBRANCH  21  22
ENDBRANCH  20  21
ENDBRANCH  11  15
BRANCH   1  29
ATOM     28  N   UNL     1      -2.274  -0.689  -1.286  0.00  0.00    -0.312 N 
ATOM     29  C   UNL     1      -2.286  -1.446  -0.171  0.00  0.00    +0.218 C 
ATOM     30  O   UNL     1      -2.439  -0.924   0.913  0.00  0.00    -0.275 OA
ATOM     31  H   UNL     1      -2.152  -1.106  -2.154  0.00  0.00    +0.149 HD
BRANCH  28  32
ATOM     32  C   UNL     1      -2.446   0.762  -1.189  0.00  0.00    +0.148 C 
BRANCH  32  34
ATOM     33  C   UNL     1      -2.574   2.893  -2.488  0.00  0.00    +0.053 C 
ATOM     34  C   UNL     1      -2.394   1.377  -2.589  0.00  0.00    +0.187 C 
BRANCH  34  35
ATOM     35  O   UNL     1      -1.130   1.087  -3.190  0.00  0.00    -0.486 OA
BRANCH  35  36
ATOM     36  C   UNL     1      -1.079   1.083  -4.548  0.00  0.00    +0.139 A 
ATOM     37  C   UNL     1      -2.186   1.471  -5.297  0.00  0.00    +0.049 A 
ATOM     38  C   UNL     1      -2.086   1.450  -6.679  0.00  0.00    +0.023 A 
ATOM     39  C   UNL     1      -0.899   1.048  -7.263  0.00  0.00    +0.111 A 
ATOM     40  N   UNL     1       0.131   0.686  -6.525  0.00  0.00    -0.260 NA
ATOM     41  C   UNL     1       0.079   0.697  -5.207  0.00  0.00    +0.156 A 
ENDBRANCH  35  36
ENDBRANCH  34  35
ENDBRANCH  32  34
ENDBRANCH  28  32
ENDBRANCH   1  29
TORSDOF 8
