REMARK  Name = ZINC07003219
REMARK  7 active torsions:
REMARK  status: ('A' for Active; 'I' for Inactive)
REMARK    1  A    between atoms: C_1  and  C_2
REMARK    2  A    between atoms: C_2  and  C_4
REMARK    3  A    between atoms: C_2  and  N_15
REMARK    4  A    between atoms: N_6  and  C_7
REMARK    5  A    between atoms: C_10  and  C_13
REMARK    6  A    between atoms: N_15  and  C_16
REMARK    7  A    between atoms: C_19  and  N_22
REMARK                            x       y       z     vdW  Elec       q    Type
REMARK                         _______ _______ _______ _____ _____    ______ ____
ROOT
ATOM      1  C   UNL     1      -0.539   1.629   1.159  0.00  0.00    +0.038 C 
ATOM      2  C   UNL     1       0.040   0.963  -0.090  0.00  0.00    +0.154 C 
ENDROOT
BRANCH   2   3
ATOM      3  C   UNL     1      -0.702   1.449  -1.308  0.00  0.00    +0.237 C 
ATOM      4  O   UNL     1      -0.104   2.025  -2.192  0.00  0.00    -0.273 OA
ATOM      5  N   UNL     1      -2.029   1.243  -1.416  0.00  0.00    -0.284 N 
ATOM      6  H   UNL     1      -2.494   0.716  -0.747  0.00  0.00    +0.155 HD
BRANCH   5   7
ATOM      7  C   UNL     1      -2.735   1.788  -2.489  0.00  0.00    +0.034 A 
ATOM      8  C   UNL     1      -2.353   3.016  -3.019  0.00  0.00    +0.024 A 
ATOM      9  C   UNL     1      -3.043   3.554  -4.082  0.00  0.00    +0.020 A 
ATOM     10  C   UNL     1      -4.137   2.871  -4.621  0.00  0.00    +0.052 A 
ATOM     11  C   UNL     1      -4.522   1.640  -4.082  0.00  0.00    +0.020 A 
ATOM     12  C   UNL     1      -3.823   1.105  -3.022  0.00  0.00    +0.024 A 
BRANCH  10  13
ATOM     13  C   UNL     1      -4.861   3.429  -5.723  0.00  0.00    +0.099 C 
ATOM     14  N   UNL     1      -5.435   3.873  -6.597  0.00  0.00    -0.191 NA
ENDBRANCH  10  13
ENDBRANCH   5   7
ENDBRANCH   2   3
BRANCH   2  15
ATOM     15  N   UNL     1       1.459   1.306  -0.213  0.00  0.00    -0.333 N 
ATOM     16  H   UNL     1       1.731   2.053  -0.768  0.00  0.00    +0.147 HD
BRANCH  15  17
ATOM     17  C   UNL     1       2.422   0.554   0.471  0.00  0.00    +0.028 A 
ATOM     18  C   UNL     1       2.033  -0.512   1.270  0.00  0.00    +0.025 A 
ATOM     19  C   UNL     1       2.984  -1.257   1.940  0.00  0.00    +0.025 A 
ATOM     20  C   UNL     1       4.329  -0.932   1.823  0.00  0.00    +0.030 A 
ATOM     21  C   UNL     1       4.718   0.139   1.028  0.00  0.00    +0.025 A 
ATOM     22  C   UNL     1       3.767   0.880   0.354  0.00  0.00    +0.025 A 
BRANCH  20  23
ATOM     23  N   UNL     1       5.292  -1.683   2.506  0.00  0.00    -0.330 N 
ATOM     24  C   UNL     1       6.300  -2.213   1.579  0.00  0.00    +0.105 C 
ATOM     25  C   UNL     1       7.412  -2.904   2.372  0.00  0.00    +0.019 C 
ATOM     26  C   UNL     1       6.809  -4.039   3.204  0.00  0.00    +0.003 C 
ATOM     27  C   UNL     1       5.729  -3.467   4.127  0.00  0.00    +0.019 C 
ATOM     28  C   UNL     1       4.666  -2.761   3.282  0.00  0.00    +0.105 C 
ENDBRANCH  20  23
ENDBRANCH  15  17
ENDBRANCH   2  15
TORSDOF 6
