REMARK  Name = ZINC16343419
REMARK  8 active torsions:
REMARK  status: ('A' for Active; 'I' for Inactive)
REMARK    1  A    between atoms: C_1  and  C_2
REMARK    2  A    between atoms: C_5  and  C_31
REMARK    3  A    between atoms: C_11  and  C_30
REMARK    4  A    between atoms: C_16  and  C_28
REMARK    5  A    between atoms: C_22  and  C_26
REMARK    6  A    between atoms: C_22  and  O_27
REMARK    7  A    between atoms: C_32  and  C_33
REMARK    8  A    between atoms: C_32  and  C_34
REMARK                            x       y       z     vdW  Elec       q    Type
REMARK                         _______ _______ _______ _____ _____    ______ ____
ROOT
ATOM      1  C   UNL     1       0.338   0.530  -3.232  0.00  0.00    +0.010 C 
ATOM      2  C   UNL     1       0.714   1.627  -2.236  0.00  0.00    +0.021 C 
ATOM      3  C   UNL     1      -0.494   1.890  -1.289  0.00  0.00    +0.042 C 
ATOM      4  C   UNL     1      -0.075   1.086  -0.032  0.00  0.00    +0.142 C 
ATOM      5  O   UNL     1       1.342   1.347   0.054  0.00  0.00    -0.366 OA
ATOM      6  C   UNL     1       1.855   1.263  -1.300  0.00  0.00    +0.077 C 
ATOM      7  C   UNL     1       2.422  -0.153  -1.487  0.00  0.00    +0.036 C 
ATOM      8  C   UNL     1       3.937   0.013  -1.144  0.00  0.00    +0.010 C 
ATOM      9  C   UNL     1       4.249   1.336  -1.907  0.00  0.00    -0.026 C 
ATOM     10  C   UNL     1       3.043   2.221  -1.406  0.00  0.00    +0.031 C 
ATOM     11  C   UNL     1       2.798   3.443  -2.296  0.00  0.00    +0.034 C 
ATOM     12  C   UNL     1       4.116   4.165  -1.994  0.00  0.00    -0.019 C 
ATOM     13  C   UNL     1       4.981   4.044  -2.982  0.00  0.00    -0.002 C 
ATOM     14  C   UNL     1       6.458   3.904  -2.744  0.00  0.00    +0.094 C 
ATOM     15  C   UNL     1       6.591   2.390  -2.323  0.00  0.00    +0.036 C 
ATOM     16  C   UNL     1       5.527   1.969  -1.283  0.00  0.00    +0.014 C 
ATOM     17  C   UNL     1       7.946   2.459  -1.558  0.00  0.00    +0.074 C 
ATOM     18  C   UNL     1       7.829   3.758  -0.736  0.00  0.00    +0.109 C 
ATOM     19  C   UNL     1       6.867   4.652  -1.493  0.00  0.00    +0.144 C 
ATOM     20  O   UNL     1       6.505   5.749  -1.156  0.00  0.00    -0.297 OA
ATOM     21  C   UNL     1       9.098   2.563  -2.557  0.00  0.00    +0.042 C 
ATOM     22  C   UNL     1       4.277   1.092  -3.411  0.00  0.00    +0.011 C 
ENDROOT
BRANCH   4  23
ATOM     23  C   UNL     1      -0.789   1.596   1.191  0.00  0.00    +0.003 C 
ATOM     24  C   UNL     1      -1.346   0.752   2.024  0.00  0.00    -0.077 C 
ATOM     25  C   UNL     1      -1.134  -0.730   1.849  0.00  0.00    +0.038 C 
ATOM     26  C   UNL     1      -2.199   1.263   3.156  0.00  0.00    +0.038 C 
ENDBRANCH   4  23
BRANCH  17  27
ATOM     27  O   UNL     1       8.113   1.333  -0.707  0.00  0.00    -0.388 OA
ATOM     28  H   UNL     1       8.943   1.334  -0.211  0.00  0.00    +0.210 HD
ENDBRANCH  17  27
BRANCH  13  29
ATOM     29  C   UNL     1       4.550   4.180  -4.385  0.00  0.00    +0.254 C 
ATOM     30  O   UNL     1       5.373   4.176  -5.276  0.00  0.00    -0.296 OA
ENDBRANCH  13  29
TORSDOF 3
