REMARK  Name = ZINC40289743
REMARK  6 active torsions:
REMARK  status: ('A' for Active; 'I' for Inactive)
REMARK    1  A    between atoms: C_1  and  O_2
REMARK    2  A    between atoms: O_2  and  C_3
REMARK    3  A    between atoms: C_6  and  C_10
REMARK    4  A    between atoms: C_10  and  C_12
REMARK    5  A    between atoms: C_15  and  O_18
REMARK    6  A    between atoms: O_18  and  C_19
REMARK                            x       y       z     vdW  Elec       q    Type
REMARK                         _______ _______ _______ _____ _____    ______ ____
ROOT
ATOM      1  C   UNL     1       2.505  -2.502  -4.385  0.00  0.00    +0.116 C 
ATOM      2 BR   UNL     1       3.874  -3.640  -3.552  0.00  0.00    -0.078 Br
ENDROOT
BRANCH   1   6
ATOM      3  C   UNL     1       0.504  -0.238  -1.361  0.00  0.00    +0.155 A 
ATOM      4  C   UNL     1       0.601  -1.616  -1.247  0.00  0.00    +0.049 A 
ATOM      5  C   UNL     1       1.248  -2.346  -2.226  0.00  0.00    +0.009 A 
ATOM      6  C   UNL     1       1.800  -1.703  -3.319  0.00  0.00    -0.027 A 
ATOM      7  C   UNL     1       1.706  -0.329  -3.436  0.00  0.00    +0.047 A 
ATOM      8  C   UNL     1       1.054   0.406  -2.462  0.00  0.00    +0.165 A 
ATOM      9  F   UNL     1       0.957   1.748  -2.579  0.00  0.00    -0.202 F 
BRANCH   3  11
ATOM     10  C   UNL     1      -0.672  -0.247   0.706  0.00  0.00    +0.277 C 
ATOM     11  O   UNL     1      -0.132   0.482  -0.398  0.00  0.00    -0.492 OA
ENDBRANCH   3  11
ENDBRANCH   1   6
BRANCH   1  12
ATOM     12  C   UNL     1       1.505  -3.367  -5.108  0.00  0.00    -0.029 A 
ATOM     13  C   UNL     1       0.878  -4.403  -4.441  0.00  0.00    +0.008 A 
ATOM     14  C   UNL     1      -0.039  -5.198  -5.102  0.00  0.00    +0.046 A 
ATOM     15  C   UNL     1      -0.330  -4.955  -6.436  0.00  0.00    +0.127 A 
ATOM     16  C   UNL     1       0.299  -3.914  -7.103  0.00  0.00    +0.046 A 
ATOM     17  C   UNL     1       1.212  -3.120  -6.436  0.00  0.00    +0.008 A 
BRANCH  15  18
ATOM     18  O   UNL     1      -1.231  -5.736  -7.089  0.00  0.00    -0.434 OA
BRANCH  18  19
ATOM     19  C   UNL     1      -1.482  -5.428  -8.461  0.00  0.00    +0.541 C 
ATOM     20  F   UNL     1      -1.972  -4.121  -8.564  0.00  0.00    -0.166 F 
ATOM     21  F   UNL     1      -0.293  -5.538  -9.189  0.00  0.00    -0.166 F 
ENDBRANCH  18  19
ENDBRANCH  15  18
ENDBRANCH   1  12
TORSDOF 5
