REMARK  Name = ZINC07127761
REMARK  2 active torsions:
REMARK  status: ('A' for Active; 'I' for Inactive)
REMARK    1  A    between atoms: C_4  and  C_7
REMARK    2  A    between atoms: C_10  and  C_12
REMARK                            x       y       z     vdW  Elec       q    Type
REMARK                         _______ _______ _______ _____ _____    ______ ____
ROOT
ATOM      1  C   UNL     1       0.862   9.407   0.049  0.00  0.00    +0.216 C 
ATOM      2  N   UNL     1       2.041   9.530  -0.826  0.00  0.00    -0.292 N 
ATOM      3  C   UNL     1       3.279   9.178  -0.358  0.00  0.00    +0.183 C 
ATOM      4  N   UNL     1       3.586   9.288   0.923  0.00  0.00    -0.183 NA
ATOM      5  C   UNL     1       2.627   9.702   1.783  0.00  0.00    +0.236 A 
ATOM      6  N   UNL     1       1.295   9.783   1.401  0.00  0.00    -0.285 N 
ATOM      7  C   UNL     1       0.590  10.237   2.471  0.00  0.00    +0.072 A 
ATOM      8  C   UNL     1      -0.756  10.523   2.665  0.00  0.00    +0.028 A 
ATOM      9  C   UNL     1      -1.133  10.976   3.919  0.00  0.00    +0.002 A 
ATOM     10  C   UNL     1      -0.219  11.142   4.945  0.00  0.00    +0.002 A 
ATOM     11  C   UNL     1       1.126  10.866   4.779  0.00  0.00    +0.030 A 
ATOM     12  C   UNL     1       1.531  10.408   3.520  0.00  0.00    +0.091 A 
ATOM     13  N   UNL     1       2.740  10.057   3.041  0.00  0.00    -0.210 NA
ATOM     14  N   UNL     1       4.216   8.702  -1.233  0.00  0.00    -0.331 N 
ATOM     15  H   UNL     1       1.941   9.861  -1.732  0.00  0.00    +0.151 HD
ATOM     16  H   UNL     1       4.002   8.617  -2.175  0.00  0.00    +0.145 HD
ATOM     17  H   UNL     1       5.096   8.449  -0.912  0.00  0.00    +0.145 HD
ENDROOT
BRANCH   1  21
ATOM     18  C   UNL     1      -0.070   5.323   0.031  0.00  0.00    +0.020 A 
ATOM     19  C   UNL     1      -1.145   6.171   0.046  0.00  0.00    +0.016 A 
ATOM     20  C   UNL     1      -0.916   7.530   0.052  0.00  0.00    +0.015 A 
ATOM     21  C   UNL     1       0.363   7.985   0.044  0.00  0.00    +0.031 A 
ATOM     22  S   UNL     1       1.301   6.467   0.034  0.00  0.00    -0.089 S 
BRANCH  18  26
ATOM     23  C   UNL     1      -0.013   1.076   0.008  0.00  0.00    +0.000 A 
ATOM     24  C   UNL     1      -1.222   1.748   0.017  0.00  0.00    +0.001 A 
ATOM     25  C   UNL     1      -1.247   3.127   0.030  0.00  0.00    +0.009 A 
ATOM     26  C   UNL     1      -0.050   3.845   0.023  0.00  0.00    -0.011 A 
ATOM     27  C   UNL     1       1.166   3.160   0.008  0.00  0.00    +0.009 A 
ATOM     28  C   UNL     1       1.178   1.781   0.000  0.00  0.00    +0.001 A 
ENDBRANCH  18  26
ENDBRANCH   1  21
TORSDOF 2
