REMARK  Name = ZINC12833864
REMARK  11 active torsions:
REMARK  status: ('A' for Active; 'I' for Inactive)
REMARK    1  A    between atoms: C_1  and  C_2
REMARK    2  A    between atoms: C_12  and  C_14
REMARK    3  A    between atoms: C_14  and  C_16
REMARK    4  A    between atoms: C_14  and  N_75
REMARK    5  A    between atoms: N_20  and  C_21
REMARK    6  A    between atoms: C_26  and  C_27
REMARK    7  A    between atoms: C_26  and  N_75
REMARK    8  A    between atoms: C_30  and  O_33
REMARK    9  A    between atoms: O_33  and  C_34
REMARK   10  A    between atoms: C_35  and  C_36
REMARK   11  A    between atoms: C_35  and  N_75
REMARK                            x       y       z     vdW  Elec       q    Type
REMARK                         _______ _______ _______ _____ _____    ______ ____
ROOT
ATOM      1  C   UNL     1      -2.475   4.184  -0.051  0.00  0.00    +0.039 C 
ENDROOT
BRANCH   1  13
ATOM      2  C   UNL     1       3.975   2.938  -0.254  0.00  0.00    +0.046 C 
ATOM      3  C   UNL     1       2.782   2.044  -0.468  0.00  0.00    -0.026 A 
ATOM      4  C   UNL     1       2.962   0.710  -0.764  0.00  0.00    +0.005 A 
ATOM      5  C   UNL     1       1.871  -0.125  -0.964  0.00  0.00    +0.001 A 
ATOM      6  C   UNL     1       0.597   0.361  -0.870  0.00  0.00    +0.010 A 
ATOM      7  C   UNL     1       0.391   1.711  -0.570  0.00  0.00    -0.001 A 
ATOM      8  C   UNL     1       1.495   2.561  -0.367  0.00  0.00    +0.052 A 
ATOM      9  N   UNL     1       1.286   3.891  -0.073  0.00  0.00    -0.322 N 
ATOM     10  H   UNL     1       2.048   4.476   0.067  0.00  0.00    +0.169 HD
ATOM     11  C   UNL     1       0.041   4.391   0.024  0.00  0.00    +0.251 A 
ATOM     12  O   UNL     1      -0.106   5.572   0.286  0.00  0.00    -0.268 OA
ATOM     13  C   UNL     1      -1.099   3.582  -0.169  0.00  0.00    +0.011 A 
ATOM     14  C   UNL     1      -0.960   2.264  -0.456  0.00  0.00    +0.017 A 
ENDBRANCH   1  13
BRANCH   1  15
ATOM     15  C   UNL     1      -2.675   5.199  -1.146  0.00  0.00    +0.143 A 
ATOM     16  N   UNL     1      -2.375   6.474  -1.096  0.00  0.00    -0.115 NA
ATOM     17  N   UNL     1      -2.693   7.003  -2.227  0.00  0.00    -0.023 NA
ATOM     18  N   UNL     1      -3.196   6.101  -2.994  0.00  0.00    -0.044 NA
ATOM     19  N   UNL     1      -3.202   4.975  -2.364  0.00  0.00    -0.227 N 
BRANCH  19  20
ATOM     20  C   UNL     1      -3.690   3.693  -2.878  0.00  0.00    +0.111 C 
ATOM     21  C   UNL     1      -2.834   3.245  -4.080  0.00  0.00    +0.027 C 
ATOM     22  C   UNL     1      -3.851   2.584  -5.045  0.00  0.00    +0.002 C 
ATOM     23  C   UNL     1      -5.101   3.487  -4.896  0.00  0.00    +0.002 C 
ATOM     24  C   UNL     1      -5.131   3.846  -3.396  0.00  0.00    +0.027 C 
ENDBRANCH  19  20
ENDBRANCH   1  15
BRANCH   1  25
ATOM     25  N   UNL     1      -2.594   4.862   1.257  0.00  0.00    +0.394 N 
ATOM     26  H   UNL     1      -1.931   5.645   1.288  0.00  0.00    -0.080 HD
BRANCH  25  27
ATOM     27  C   UNL     1      -3.965   5.386   1.432  0.00  0.00    -0.041 C 
BRANCH  27  28
ATOM     28  C   UNL     1      -4.962   4.257   1.460  0.00  0.00    -0.064 A 
ATOM     29  C   UNL     1      -5.546   3.822   0.285  0.00  0.00    +0.005 A 
ATOM     30  C   UNL     1      -6.457   2.784   0.307  0.00  0.00    +0.046 A 
ATOM     31  C   UNL     1      -6.794   2.184   1.512  0.00  0.00    +0.120 A 
ATOM     32  C   UNL     1      -6.211   2.626   2.691  0.00  0.00    +0.046 A 
ATOM     33  C   UNL     1      -5.296   3.661   2.663  0.00  0.00    +0.005 A 
BRANCH  31  34
ATOM     34  O   UNL     1      -7.694   1.166   1.538  0.00  0.00    -0.495 OA
ATOM     35  C   UNL     1      -8.254   0.764   0.286  0.00  0.00    +0.277 C 
ENDBRANCH  31  34
ENDBRANCH  27  28
ENDBRANCH  25  27
BRANCH  25  36
ATOM     36  C   UNL     1      -2.271   3.917   2.347  0.00  0.00    -0.045 C 
BRANCH  36  37
ATOM     37  C   UNL     1      -2.140   4.699   3.655  0.00  0.00    +0.102 C 
ATOM     38  C   UNL     1      -1.865   3.729   4.821  0.00  0.00    +0.032 C 
ATOM     39  C   UNL     1      -0.517   4.213   5.408  0.00  0.00    +0.030 C 
ATOM     40  C   UNL     1      -0.448   5.676   4.899  0.00  0.00    +0.160 C 
ATOM     41  O   UNL     1      -1.024   5.602   3.575  0.00  0.00    -0.378 OA
ENDBRANCH  36  37
ENDBRANCH  25  36
ENDBRANCH   1  25
TORSDOF 9
