REMARK  Name = ZINC06177906
REMARK  10 active torsions:
REMARK  status: ('A' for Active; 'I' for Inactive)
REMARK    1  A    between atoms: C_1  and  C_2
REMARK    2  A    between atoms: C_4  and  C_39
REMARK    3  A    between atoms: C_9  and  C_14
REMARK    4  A    between atoms: C_14  and  C_16
REMARK    5  A    between atoms: C_14  and  N_69
REMARK    6  A    between atoms: N_20  and  C_21
REMARK    7  A    between atoms: C_26  and  C_27
REMARK    8  A    between atoms: C_26  and  N_69
REMARK    9  A    between atoms: C_33  and  C_34
REMARK   10  A    between atoms: C_33  and  N_69
REMARK                            x       y       z     vdW  Elec       q    Type
REMARK                         _______ _______ _______ _____ _____    ______ ____
ROOT
ATOM      1  C   UNL     1      -1.721   4.081  -0.302  0.00  0.00    +0.040 C 
ENDROOT
BRANCH   1  10
ATOM      2  C   UNL     1       4.110   0.247  -2.932  0.00  0.00    +0.044 C 
ATOM      3  C   UNL     1       3.536   1.459  -2.245  0.00  0.00    -0.050 A 
ATOM      4  C   UNL     1       4.383   2.474  -1.820  0.00  0.00    +0.008 A 
ATOM      5  C   UNL     1       3.880   3.592  -1.189  0.00  0.00    -0.026 A 
ATOM      6  C   UNL     1       2.510   3.706  -0.975  0.00  0.00    +0.052 A 
ATOM      7  C   UNL     1       1.655   2.674  -1.407  0.00  0.00    -0.001 A 
ATOM      8  C   UNL     1       2.188   1.549  -2.045  0.00  0.00    +0.013 A 
ATOM      9  C   UNL     1       0.215   2.801  -1.171  0.00  0.00    +0.017 A 
ATOM     10  C   UNL     1      -0.244   3.917  -0.554  0.00  0.00    +0.011 A 
ATOM     11  C   UNL     1       0.656   4.922  -0.140  0.00  0.00    +0.251 A 
ATOM     12  O   UNL     1       0.222   5.915   0.419  0.00  0.00    -0.268 OA
ATOM     13  N   UNL     1       1.980   4.812  -0.347  0.00  0.00    -0.322 N 
ATOM     14  H   UNL     1       2.570   5.522  -0.050  0.00  0.00    +0.169 HD
ATOM     15  C   UNL     1       4.810   4.686  -0.733  0.00  0.00    +0.046 C 
ENDBRANCH   1  10
BRANCH   1  16
ATOM     16  C   UNL     1      -1.978   4.109   1.183  0.00  0.00    +0.143 A 
ATOM     17  N   UNL     1      -1.732   5.104   2.001  0.00  0.00    -0.115 NA
ATOM     18  N   UNL     1      -2.089   4.742   3.185  0.00  0.00    -0.023 NA
ATOM     19  N   UNL     1      -2.556   3.543   3.143  0.00  0.00    -0.044 NA
ATOM     20  N   UNL     1      -2.509   3.120   1.925  0.00  0.00    -0.227 N 
BRANCH  20  21
ATOM     21  C   UNL     1      -2.947   1.809   1.442  0.00  0.00    +0.111 C 
ATOM     22  C   UNL     1      -4.437   1.592   1.780  0.00  0.00    +0.027 C 
ATOM     23  C   UNL     1      -4.529   0.088   2.141  0.00  0.00    +0.002 C 
ATOM     24  C   UNL     1      -3.208  -0.161   2.910  0.00  0.00    +0.002 C 
ATOM     25  C   UNL     1      -2.166   0.694   2.159  0.00  0.00    +0.027 C 
ENDBRANCH  20  21
ENDBRANCH   1  16
BRANCH   1  26
ATOM     26  N   UNL     1      -2.172   5.362  -0.887  0.00  0.00    +0.397 N 
ATOM     27  H   UNL     1      -1.795   6.135  -0.327  0.00  0.00    -0.079 HD
BRANCH  26  28
ATOM     28  C   UNL     1      -1.676   5.486  -2.274  0.00  0.00    -0.039 C 
BRANCH  28  29
ATOM     29  C   UNL     1      -1.824   6.920  -2.714  0.00  0.00    -0.046 A 
ATOM     30  C   UNL     1      -2.977   7.341  -3.359  0.00  0.00    +0.005 A 
ATOM     31  C   UNL     1      -3.070   8.670  -3.742  0.00  0.00    +0.020 A 
ATOM     32  C   UNL     1      -2.015   9.523  -3.478  0.00  0.00    +0.111 A 
ATOM     33  N   UNL     1      -0.931   9.086  -2.867  0.00  0.00    -0.263 NA
ATOM     34  C   UNL     1      -0.810   7.830  -2.485  0.00  0.00    +0.112 A 
ENDBRANCH  28  29
ENDBRANCH  26  28
BRANCH  26  35
ATOM     35  C   UNL     1      -3.649   5.432  -0.870  0.00  0.00    -0.001 C 
BRANCH  35  36
ATOM     36  C   UNL     1      -4.097   5.818   0.516  0.00  0.00    +0.089 A 
ATOM     37  C   UNL     1      -4.142   7.069   1.008  0.00  0.00    +0.042 A 
ATOM     38  C   UNL     1      -4.620   6.971   2.335  0.00  0.00    +0.041 A 
ATOM     39  C   UNL     1      -4.838   5.665   2.574  0.00  0.00    +0.195 A 
ATOM     40  O   UNL     1      -4.525   4.972   1.467  0.00  0.00    -0.470 OA
ENDBRANCH  35  36
ENDBRANCH  26  35
ENDBRANCH   1  26
TORSDOF 8
