REMARK  Name = ZINC20732878
REMARK  5 active torsions:
REMARK  status: ('A' for Active; 'I' for Inactive)
REMARK    1  A    between atoms: C_1  and  O_2
REMARK    2  A    between atoms: O_2  and  C_3
REMARK    3  A    between atoms: C_3  and  C_5
REMARK    4  A    between atoms: C_5  and  N_6
REMARK    5  A    between atoms: C_18  and  C_20
REMARK                            x       y       z     vdW  Elec       q    Type
REMARK                         _______ _______ _______ _____ _____    ______ ____
ROOT
ATOM      1  N   UNL     1      -2.061  -4.531   0.024  0.00  0.00    -0.289 N 
ATOM      2  C   UNL     1      -3.139  -3.723  -0.029  0.00  0.00    +0.303 C 
ATOM      3  O   UNL     1      -2.997  -2.517   0.021  0.00  0.00    -0.253 OA
ATOM      4  N   UNL     1      -4.373  -4.253  -0.138  0.00  0.00    -0.273 N 
ATOM      5  C   UNL     1      -5.550  -3.389  -0.315  0.00  0.00    +0.116 C 
ATOM      6  C   UNL     1      -6.178  -3.672  -1.686  0.00  0.00    +0.074 C 
ATOM      7  C   UNL     1      -6.252  -5.163  -1.888  0.00  0.00    +0.040 A 
ATOM      8  C   UNL     1      -5.543  -6.073  -1.186  0.00  0.00    +0.062 A 
ATOM      9  N   UNL     1      -5.861  -7.287  -1.639  0.00  0.00    -0.348 N 
ATOM     10  C   UNL     1      -6.744  -7.169  -2.596  0.00  0.00    +0.171 A 
ATOM     11  N   UNL     1      -7.014  -5.856  -2.780  0.00  0.00    -0.349 N 
ATOM     12  H   UNL     1      -7.633  -5.479  -3.424  0.00  0.00    +0.166 HD
ATOM     13  C   UNL     1      -4.576  -5.712  -0.089  0.00  0.00    +0.159 C 
ATOM     14  H   UNL     1      -2.178  -5.494   0.059  0.00  0.00    +0.151 HD
ATOM     15  H   UNL     1      -5.495  -8.123  -1.311  0.00  0.00    +0.167 HD
ENDROOT
BRANCH  13  16
ATOM     16  C   UNL     1      -5.152  -6.105   1.247  0.00  0.00    +0.017 A 
ATOM     17  C   UNL     1      -6.495  -6.416   1.356  0.00  0.00    +0.009 A 
ATOM     18  C   UNL     1      -7.026  -6.777   2.580  0.00  0.00    +0.003 A 
ATOM     19  C   UNL     1      -6.215  -6.827   3.698  0.00  0.00    +0.041 A 
ATOM     20  C   UNL     1      -4.871  -6.517   3.593  0.00  0.00    +0.159 A 
ATOM     21  C   UNL     1      -4.337  -6.160   2.364  0.00  0.00    +0.164 A 
ATOM     22  F   UNL     1      -3.024  -5.862   2.257  0.00  0.00    -0.202 F 
ATOM     23  F   UNL     1      -4.078  -6.566   4.686  0.00  0.00    -0.202 F 
ENDBRANCH  13  16
BRANCH   1  24
ATOM     24  C   UNL     1      -0.714  -3.956   0.031  0.00  0.00    +0.226 C 
BRANCH  24  25
ATOM     25  C   UNL     1       0.305  -5.064   0.095  0.00  0.00    +0.324 C 
ATOM     26  O   UNL     1      -0.057  -6.216   0.131  0.00  0.00    -0.249 OA
BRANCH  25  28
ATOM     27  C   UNL     1       2.525  -5.871   0.172  0.00  0.00    +0.280 C 
ATOM     28  O   UNL     1       1.615  -4.771   0.111  0.00  0.00    -0.467 OA
ENDBRANCH  25  28
ENDBRANCH  24  25
ENDBRANCH   1  24
TORSDOF 4
