REMARK  Name = ZINC40921215
REMARK  6 active torsions:
REMARK  status: ('A' for Active; 'I' for Inactive)
REMARK    1  A    between atoms: C_1  and  C_2
REMARK    2  A    between atoms: C_3  and  C_27
REMARK    3  A    between atoms: C_4  and  C_12
REMARK    4  A    between atoms: C_15  and  O_18
REMARK    5  A    between atoms: O_18  and  C_19
REMARK    6  A    between atoms: C_19  and  C_20
REMARK                            x       y       z     vdW  Elec       q    Type
REMARK                         _______ _______ _______ _____ _____    ______ ____
ROOT
ATOM      1  C   UNL     1      -0.018   1.503   0.010  0.00  0.00    +0.061 C 
ATOM      2  C   UNL     1       0.002  -0.004   0.002  0.00  0.00    +0.018 C 
ATOM      3  C   UNL     1      -1.163  -0.667   0.004  0.00  0.00    +0.060 C 
ATOM      4  C   UNL     1      -1.255  -2.170   0.009  0.00  0.00    +0.179 C 
ATOM      5  N   UNL     1       0.059  -2.736  -0.276  0.00  0.00    -0.201 N 
ATOM      6  C   UNL     1       1.208  -2.012  -0.274  0.00  0.00    +0.240 A 
ATOM      7  N   UNL     1       2.180  -2.830  -0.559  0.00  0.00    -0.092 NA
ATOM      8  N   UNL     1       1.722  -4.021  -0.745  0.00  0.00    -0.021 NA
ATOM      9  N   UNL     1       0.438  -4.040  -0.590  0.00  0.00    -0.042 NA
ATOM     10  N   UNL     1       1.214  -0.651  -0.013  0.00  0.00    -0.286 N 
ATOM     11  H   UNL     1       2.042  -0.174   0.156  0.00  0.00    +0.155 HD
ENDROOT
BRANCH   4  12
ATOM     12  C   UNL     1      -1.723  -2.641   1.362  0.00  0.00    -0.018 A 
ATOM     13  C   UNL     1      -0.983  -2.343   2.491  0.00  0.00    +0.009 A 
ATOM     14  C   UNL     1      -1.409  -2.774   3.732  0.00  0.00    +0.046 A 
ATOM     15  C   UNL     1      -2.582  -3.506   3.845  0.00  0.00    +0.121 A 
ATOM     16  C   UNL     1      -3.324  -3.803   2.711  0.00  0.00    +0.046 A 
ATOM     17  C   UNL     1      -2.895  -3.366   1.472  0.00  0.00    +0.009 A 
BRANCH  15  18
ATOM     18  O   UNL     1      -3.004  -3.931   5.065  0.00  0.00    -0.487 OA
BRANCH  18  19
ATOM     19  C   UNL     1      -4.220  -4.680   5.106  0.00  0.00    +0.267 C 
BRANCH  19  20
ATOM     20  C   UNL     1      -4.527  -5.063   6.531  0.00  0.00    +0.025 A 
ATOM     21  C   UNL     1      -3.675  -4.676   7.549  0.00  0.00    +0.010 A 
ATOM     22  C   UNL     1      -3.956  -5.027   8.856  0.00  0.00    +0.001 A 
ATOM     23  C   UNL     1      -5.088  -5.766   9.147  0.00  0.00    +0.003 A 
ATOM     24  C   UNL     1      -5.941  -6.153   8.131  0.00  0.00    +0.039 A 
ATOM     25  C   UNL     1      -5.664  -5.798   6.822  0.00  0.00    +0.130 A 
ATOM     26  F   UNL     1      -6.499  -6.172   5.828  0.00  0.00    -0.205 F 
ENDBRANCH  19  20
ENDBRANCH  18  19
ENDBRANCH  15  18
ENDBRANCH   4  12
BRANCH   3  27
ATOM     27  C   UNL     1      -2.364   0.081   0.002  0.00  0.00    +0.241 C 
ATOM     28  O   UNL     1      -2.324   1.298  -0.001  0.00  0.00    -0.271 OA
ATOM     29  N   UNL     1      -3.554  -0.553   0.004  0.00  0.00    -0.325 N 
ATOM     30  H   UNL     1      -3.586  -1.522   0.007  0.00  0.00    +0.145 HD
ATOM     31  H   UNL     1      -4.377  -0.040   0.003  0.00  0.00    +0.145 HD
ENDBRANCH   3  27
TORSDOF 5
