REMARK  Name = ZINC59850313
REMARK  15 active torsions:
REMARK  status: ('A' for Active; 'I' for Inactive)
REMARK    1  A    between atoms: C_1  and  C_2
REMARK    2  A    between atoms: C_2  and  O_3
REMARK    3  A    between atoms: O_3  and  C_4
REMARK    4  A    between atoms: N_6  and  C_7
REMARK    5  A    between atoms: C_7  and  C_9
REMARK    6  A    between atoms: C_7  and  C_13
REMARK    7  A    between atoms: C_9  and  C_10
REMARK    8  A    between atoms: C_10  and  C_11
REMARK    9  A    between atoms: C_10  and  C_12
REMARK   10  A    between atoms: C_13  and  N_14
REMARK   11  A    between atoms: C_15  and  C_17
REMARK   12  A    between atoms: C_17  and  C_18
REMARK   13  A    between atoms: C_18  and  S_19
REMARK   14  A    between atoms: S_19  and  C_20
REMARK   15  A    between atoms: C_20  and  C_21
REMARK                            x       y       z     vdW  Elec       q    Type
REMARK                         _______ _______ _______ _____ _____    ______ ____
ROOT
ATOM      1  C   UNL     1      -5.643  -3.113  -4.003  0.00  0.00    +0.106 C 
ENDROOT
BRANCH   1   3
ATOM      2  N   UNL     1      -4.393  -3.564  -1.917  0.00  0.00    -0.314 N 
ATOM      3  C   UNL     1      -5.518  -3.738  -2.637  0.00  0.00    +0.214 C 
ATOM      4  O   UNL     1      -6.430  -4.399  -2.187  0.00  0.00    -0.276 OA
ATOM      5  H   UNL     1      -3.663  -3.036  -2.276  0.00  0.00    +0.149 HD
BRANCH   2   6
ATOM      6  C   UNL     1      -4.271  -4.172  -0.589  0.00  0.00    +0.126 C 
BRANCH   6   7
ATOM      7  C   UNL     1      -2.907  -3.823   0.009  0.00  0.00    +0.093 C 
BRANCH   7  10
ATOM      8  C   UNL     1      -1.497  -1.836   0.006  0.00  0.00    +0.401 C 
ATOM      9  O   UNL     1      -0.523  -2.563  -0.007  0.00  0.00    -0.226 OA
ATOM     10  N   UNL     1      -2.735  -2.368   0.015  0.00  0.00    -0.277 N 
ATOM     11  H   UNL     1      -3.512  -1.787   0.026  0.00  0.00    +0.152 HD
BRANCH   8  12
ATOM     12  O   UNL     1      -1.339  -0.499   0.012  0.00  0.00    -0.451 OA
BRANCH  12  14
ATOM     13  C   UNL     1      -0.019   1.526   0.010  0.00  0.00    +0.048 C 
ATOM     14  C   UNL     1       0.002  -0.004   0.002  0.00  0.00    +0.230 C 
ENDBRANCH  12  14
ENDBRANCH   8  12
ENDBRANCH   7  10
BRANCH   7  15
ATOM     15  C   UNL     1      -2.829  -4.351   1.443  0.00  0.00    +0.027 C 
BRANCH  15  16
ATOM     16  C   UNL     1      -1.423  -4.113   1.998  0.00  0.00    -0.015 C 
ATOM     17  C   UNL     1      -1.379  -4.527   3.470  0.00  0.00    +0.007 C 
ATOM     18  C   UNL     1      -0.413  -4.944   1.204  0.00  0.00    +0.007 C 
ENDBRANCH  15  16
ENDBRANCH   7  15
ENDBRANCH   6   7
ENDBRANCH   2   6
ENDBRANCH   1   3
BRANCH   1  19
ATOM     19  C   UNL     1      -7.007  -3.462  -4.601  0.00  0.00    +0.079 C 
BRANCH  19  20
ATOM     20  S   UNL     1      -7.157  -2.709  -6.245  0.00  0.00    -0.153 S 
BRANCH  20  21
ATOM     21  C   UNL     1      -8.806  -3.212  -6.809  0.00  0.00    +0.143 C 
BRANCH  21  22
ATOM     22  C   UNL     1      -9.062  -2.645  -8.181  0.00  0.00    +0.121 A 
ATOM     23  N   UNL     1     -10.247  -2.895  -8.795  0.00  0.00    -0.310 N 
ATOM     24  H   UNL     1     -10.913  -3.435  -8.341  0.00  0.00    +0.170 HD
ATOM     25  C   UNL     1     -10.517  -2.408 -10.021  0.00  0.00    +0.260 A 
ATOM     26  O   UNL     1     -11.585  -2.640 -10.560  0.00  0.00    -0.267 OA
ATOM     27  C   UNL     1      -9.524  -1.612 -10.681  0.00  0.00    +0.075 A 
ATOM     28  C   UNL     1      -9.601  -0.984 -12.008  0.00  0.00    -0.023 A 
ATOM     29  C   UNL     1      -8.529  -0.280 -12.410  0.00  0.00    -0.004 A 
ATOM     30  S   UNL     1      -7.369  -0.404 -11.068  0.00  0.00    -0.073 S 
ATOM     31  C   UNL     1      -8.334  -1.408  -9.970  0.00  0.00    +0.116 A 
ATOM     32  N   UNL     1      -8.141  -1.918  -8.756  0.00  0.00    -0.226 NA
ATOM     33  C   UNL     1      -8.718   0.311 -13.781  0.00  0.00    +0.043 C 
ATOM     34  C   UNL     1      -9.904  -0.475 -14.382  0.00  0.00    +0.010 C 
ATOM     35  C   UNL     1     -10.659  -0.921 -13.114  0.00  0.00    +0.037 C 
ENDBRANCH  21  22
ENDBRANCH  20  21
ENDBRANCH  19  20
ENDBRANCH   1  19
TORSDOF 12
