REMARK  Name = ZINC19336446
REMARK  5 active torsions:
REMARK  status: ('A' for Active; 'I' for Inactive)
REMARK    1  A    between atoms: C_6  and  C_7
REMARK    2  A    between atoms: C_8  and  C_13
REMARK    3  A    between atoms: C_13  and  N_14
REMARK    4  A    between atoms: N_17  and  C_20
REMARK    5  A    between atoms: C_20  and  C_21
REMARK                            x       y       z     vdW  Elec       q    Type
REMARK                         _______ _______ _______ _____ _____    ______ ____
ROOT
ATOM      1  N   UNL     1      -0.654  -1.707   3.042  0.00  0.00    -0.302 NA
ATOM      2  C   UNL     1      -1.973  -1.776   3.687  0.00  0.00    +0.066 C 
ATOM      3  C   UNL     1      -1.968  -0.904   4.945  0.00  0.00    -0.063 C 
ATOM      4  N   UNL     1      -0.927  -1.379   5.866  0.00  0.00    +0.384 N 
ATOM      5  C   UNL     1       0.387  -1.282   5.216  0.00  0.00    -0.063 C 
ATOM      6  C   UNL     1       0.401  -2.157   3.961  0.00  0.00    +0.066 C 
ATOM      7  H   UNL     1      -1.110  -2.341   6.112  0.00  0.00    -0.081 HD
ENDROOT
BRANCH   1   8
ATOM      8  C   UNL     1      -0.636  -2.488   1.797  0.00  0.00    +0.123 C 
BRANCH   8  10
ATOM      9  C   UNL     1      -1.268  -0.764   0.011  0.00  0.00    +0.070 A 
ATOM     10  C   UNL     1      -1.557  -1.848   0.790  0.00  0.00    +0.012 A 
ATOM     11  C   UNL     1      -2.855  -2.259   0.486  0.00  0.00    +0.139 A 
ATOM     12  N   UNL     1      -3.340  -1.465  -0.434  0.00  0.00    -0.181 NA
ATOM     13  N   UNL     1      -2.367  -0.508  -0.753  0.00  0.00    -0.277 N 
ATOM     14  H   UNL     1      -2.459   0.206  -1.403  0.00  0.00    +0.189 HD
BRANCH   9  20
ATOM     15  C   UNL     1      -0.017   1.391   0.010  0.00  0.00    +0.011 A 
ATOM     16  C   UNL     1       1.170   2.094   0.002  0.00  0.00    +0.020 A 
ATOM     17  C   UNL     1       2.378   1.418  -0.013  0.00  0.00    +0.041 A 
ATOM     18  C   UNL     1       2.403   0.034  -0.022  0.00  0.00    +0.020 A 
ATOM     19  C   UNL     1       1.222  -0.680  -0.014  0.00  0.00    +0.011 A 
ATOM     20  C   UNL     1       0.002  -0.004   0.002  0.00  0.00    +0.000 A 
ATOM     21 CL   UNL     1       3.868   2.310  -0.024  0.00  0.00    -0.084 Cl
ENDBRANCH   9  20
ENDBRANCH   8  10
ENDBRANCH   1   8
BRANCH   4  22
ATOM     22  C   UNL     1      -0.934  -0.553   7.081  0.00  0.00    -0.043 C 
BRANCH  22  23
ATOM     23  C   UNL     1       0.048  -1.115   8.076  0.00  0.00    -0.060 A 
ATOM     24  C   UNL     1      -0.365  -2.066   8.991  0.00  0.00    +0.005 A 
ATOM     25  C   UNL     1       0.532  -2.584   9.906  0.00  0.00    +0.050 A 
ATOM     26  C   UNL     1       1.849  -2.152   9.908  0.00  0.00    +0.166 A 
ATOM     27  C   UNL     1       2.264  -1.195   8.986  0.00  0.00    +0.166 A 
ATOM     28  C   UNL     1       1.361  -0.683   8.069  0.00  0.00    +0.051 A 
ATOM     29  O   UNL     1       3.590  -0.939   9.190  0.00  0.00    -0.453 OA
ATOM     30  C   UNL     1       3.881  -1.446  10.506  0.00  0.00    +0.466 C 
ATOM     31  O   UNL     1       2.913  -2.497  10.690  0.00  0.00    -0.453 OA
ENDBRANCH  22  23
ENDBRANCH   4  22
TORSDOF 5
