REMARK  Name = ZINC37089387
REMARK  8 active torsions:
REMARK  status: ('A' for Active; 'I' for Inactive)
REMARK    1  A    between atoms: C_1  and  C_2
REMARK    2  A    between atoms: C_4  and  C_8
REMARK    3  A    between atoms: C_5  and  C_7
REMARK    4  A    between atoms: C_8  and  C_10
REMARK    5  A    between atoms: C_8  and  N_11
REMARK    6  A    between atoms: N_11  and  C_12
REMARK    7  A    between atoms: C_14  and  C_20
REMARK    8  A    between atoms: C_17  and  C_18
REMARK                            x       y       z     vdW  Elec       q    Type
REMARK                         _______ _______ _______ _____ _____    ______ ____
ROOT
ATOM      1  N   UNL     1      -2.786  -3.079   0.471  0.00  0.00    -0.337 N 
ATOM      2  H   UNL     1      -3.135  -2.178   0.387  0.00  0.00    +0.147 HD
ENDROOT
BRANCH   1   3
ATOM      3  C   UNL     1      -3.569  -4.080   1.050  0.00  0.00    +0.034 A 
ATOM      4  C   UNL     1      -3.068  -5.367   1.176  0.00  0.00    +0.042 A 
ATOM      5  C   UNL     1      -3.853  -6.364   1.755  0.00  0.00    +0.056 A 
ATOM      6  C   UNL     1      -5.140  -6.059   2.205  0.00  0.00    +0.057 A 
ATOM      7  C   UNL     1      -5.631  -4.774   2.076  0.00  0.00    +0.129 A 
ATOM      8  C   UNL     1      -4.848  -3.784   1.506  0.00  0.00    +0.006 A 
ATOM      9  C   UNL     1      -5.388  -2.383   1.373  0.00  0.00    +0.048 C 
ATOM     10  F   UNL     1      -6.875  -4.481   2.512  0.00  0.00    -0.205 F 
BRANCH   5  11
ATOM     11  C   UNL     1      -3.342  -7.695   1.887  0.00  0.00    +0.099 C 
ATOM     12  N   UNL     1      -2.937  -8.751   1.992  0.00  0.00    -0.191 NA
ENDBRANCH   5  11
ENDBRANCH   1   3
BRANCH   1  13
ATOM     13  C   UNL     1      -1.437  -3.390  -0.009  0.00  0.00    +0.101 C 
ATOM     14  C   UNL     1      -1.518  -3.946  -1.432  0.00  0.00    +0.033 C 
BRANCH  13  18
ATOM     15  C   UNL     1      -0.018   1.503   0.010  0.00  0.00    +0.086 C 
ATOM     16  C   UNL     1       0.002  -0.004   0.002  0.00  0.00    +0.103 A 
ATOM     17  C   UNL     1      -1.078  -0.805   0.003  0.00  0.00    +0.050 A 
ATOM     18  C   UNL     1      -0.601  -2.136  -0.007  0.00  0.00    +0.013 A 
ATOM     19  C   UNL     1       0.742  -2.069  -0.013  0.00  0.00    +0.107 A 
ATOM     20  O   UNL     1       1.102  -0.775  -0.013  0.00  0.00    -0.465 OA
ATOM     21  C   UNL     1       1.684  -3.245  -0.023  0.00  0.00    +0.086 C 
ENDBRANCH  13  18
ENDBRANCH   1  13
TORSDOF 4
