REMARK  Name = ZINC38806152
REMARK  12 active torsions:
REMARK  status: ('A' for Active; 'I' for Inactive)
REMARK    1  A    between atoms: C_1  and  C_2
REMARK    2  A    between atoms: C_2  and  O_3
REMARK    3  A    between atoms: O_3  and  C_4
REMARK    4  A    between atoms: C_4  and  C_6
REMARK    5  A    between atoms: C_10  and  N_11
REMARK    6  A    between atoms: C_12  and  C_14
REMARK    7  A    between atoms: C_14  and  O_15
REMARK    8  A    between atoms: O_15  and  C_16
REMARK    9  A    between atoms: C_23  and  C_29
REMARK   10  A    between atoms: C_23  and  C_30
REMARK   11  A    between atoms: C_25  and  C_27
REMARK   12  A    between atoms: C_25  and  C_28
REMARK                            x       y       z     vdW  Elec       q    Type
REMARK                         _______ _______ _______ _____ _____    ______ ____
ROOT
ATOM      1  C   UNL     1       1.449  -2.344  -2.516  0.00  0.00    +0.091 A 
ATOM      2  C   UNL     1       2.869  -2.615  -2.533  0.00  0.00    -0.024 A 
ATOM      3  C   UNL     1       3.335  -3.111  -3.703  0.00  0.00    -0.016 A 
ATOM      4  S   UNL     1       1.904  -3.216  -4.736  0.00  0.00    -0.079 S 
ATOM      5  C   UNL     1       0.742  -2.622  -3.680  0.00  0.00    +0.086 A 
ATOM      6  C   UNL     1       4.751  -3.465  -4.014  0.00  0.00    -0.041 C 
ATOM      7  N   UNL     1       5.609  -3.406  -2.832  0.00  0.00    +0.389 N 
ATOM      8  C   UNL     1       4.944  -3.475  -1.538  0.00  0.00    -0.069 C 
ATOM      9  C   UNL     1       3.853  -2.407  -1.392  0.00  0.00    +0.024 C 
ATOM     10  C   UNL     1       4.336  -4.860  -1.302  0.00  0.00    -0.010 C 
ATOM     11  C   UNL     1       5.995  -3.227  -0.439  0.00  0.00    -0.010 C 
ATOM     12  C   UNL     1       4.802  -4.866  -4.639  0.00  0.00    -0.005 C 
ATOM     13  C   UNL     1       5.281  -2.462  -5.058  0.00  0.00    -0.005 C 
ATOM     14  H   UNL     1       6.291  -4.165  -2.887  0.00  0.00    -0.084 HD
ATOM     15  H   UNL     1       6.156  -2.544  -2.870  0.00  0.00    -0.084 HD
ENDROOT
BRANCH   5  16
ATOM     16  N   UNL     1      -0.613  -2.447  -3.913  0.00  0.00    -0.277 N 
ATOM     17  C   UNL     1      -1.138  -2.772  -5.112  0.00  0.00    +0.255 C 
ATOM     18  O   UNL     1      -0.425  -3.217  -5.986  0.00  0.00    -0.272 OA
ATOM     19  H   UNL     1      -1.184  -2.091  -3.215  0.00  0.00    +0.155 HD
BRANCH  17  20
ATOM     20  C   UNL     1      -2.611  -2.581  -5.366  0.00  0.00    +0.324 C 
BRANCH  20  21
ATOM     21  O   UNL     1      -2.922  -2.994  -6.698  0.00  0.00    -0.483 OA
BRANCH  21  22
ATOM     22  C   UNL     1      -4.220  -2.886  -7.090  0.00  0.00    +0.121 A 
ATOM     23  C   UNL     1      -5.171  -2.388  -6.213  0.00  0.00    +0.048 A 
ATOM     24  C   UNL     1      -6.489  -2.280  -6.613  0.00  0.00    +0.042 A 
ATOM     25  C   UNL     1      -6.860  -2.668  -7.889  0.00  0.00    +0.124 A 
ATOM     26  C   UNL     1      -5.911  -3.166  -8.766  0.00  0.00    +0.042 A 
ATOM     27  C   UNL     1      -4.591  -3.269  -8.371  0.00  0.00    +0.048 A 
ATOM     28  F   UNL     1      -8.149  -2.561  -8.279  0.00  0.00    -0.205 F 
ENDBRANCH  21  22
ENDBRANCH  20  21
ENDBRANCH  17  20
ENDBRANCH   5  16
BRANCH   1  29
ATOM     29  C   UNL     1       0.776  -1.800  -1.335  0.00  0.00    +0.342 C 
ATOM     30  O   UNL     1       0.312  -2.552  -0.499  0.00  0.00    -0.245 OA
BRANCH  29  31
ATOM     31  O   UNL     1       0.671  -0.465  -1.174  0.00  0.00    -0.461 OA
BRANCH  31  33
ATOM     32  C   UNL     1      -0.019   1.526   0.010  0.00  0.00    +0.048 C 
ATOM     33  C   UNL     1       0.002  -0.004   0.002  0.00  0.00    +0.229 C 
ENDBRANCH  31  33
ENDBRANCH  29  31
ENDBRANCH   1  29
TORSDOF 7
