REMARK  Name = ZINC63440653
REMARK  12 active torsions:
REMARK  status: ('A' for Active; 'I' for Inactive)
REMARK    1  A    between atoms: C_1  and  C_2
REMARK    2  A    between atoms: C_2  and  O_3
REMARK    3  A    between atoms: O_3  and  C_4
REMARK    4  A    between atoms: C_4  and  C_6
REMARK    5  A    between atoms: C_8  and  N_18
REMARK    6  A    between atoms: C_11  and  O_16
REMARK    7  A    between atoms: O_16  and  C_17
REMARK    8  A    between atoms: N_18  and  C_19
REMARK    9  A    between atoms: C_19  and  N_21
REMARK   10  A    between atoms: N_24  and  C_27
REMARK   11  A    between atoms: C_29  and  C_34
REMARK   12  A    between atoms: C_32  and  C_33
REMARK                            x       y       z     vdW  Elec       q    Type
REMARK                         _______ _______ _______ _____ _____    ______ ____
ROOT
ATOM      1  N   UNL     1       3.790  -1.256   2.064  0.00  0.00    -0.297 N 
ATOM      2  H   UNL     1       3.420  -1.288   2.960  0.00  0.00    +0.154 HD
ENDROOT
BRANCH   1   4
ATOM      3  C   UNL     1       1.486  -0.767   1.026  0.00  0.00    +0.234 C 
ATOM      4  C   UNL     1       2.985  -0.966   1.005  0.00  0.00    +0.052 C 
ATOM      5  C   UNL     1       3.369  -0.793  -0.314  0.00  0.00    +0.021 A 
ATOM      6  C   UNL     1       4.629  -0.853  -0.957  0.00  0.00    +0.057 A 
ATOM      7  C   UNL     1       4.713  -0.635  -2.296  0.00  0.00    +0.121 A 
ATOM      8  C   UNL     1       3.576  -0.350  -3.064  0.00  0.00    +0.047 A 
ATOM      9  C   UNL     1       2.340  -0.278  -2.513  0.00  0.00    +0.029 A 
ATOM     10  C   UNL     1       2.174  -0.493  -1.120  0.00  0.00    +0.045 A 
ATOM     11  N   UNL     1       1.095  -0.479  -0.358  0.00  0.00    -0.367 N 
ATOM     12  H   UNL     1       0.191  -0.305  -0.663  0.00  0.00    +0.161 HD
BRANCH   3  13
ATOM     13  C   UNL     1       1.129   0.394   1.918  0.00  0.00    +0.336 C 
ATOM     14  O   UNL     1       0.901   1.478   1.437  0.00  0.00    -0.248 OA
BRANCH  13  15
ATOM     15  O   UNL     1       1.064   0.223   3.248  0.00  0.00    -0.463 OA
BRANCH  15  17
ATOM     16  C   UNL     1       0.696   0.980   5.513  0.00  0.00    +0.048 C 
ATOM     17  C   UNL     1       0.720   1.366   4.033  0.00  0.00    +0.229 C 
ENDBRANCH  15  17
ENDBRANCH  13  15
ENDBRANCH   3  13
BRANCH   7  18
ATOM     18  O   UNL     1       5.928  -0.694  -2.905  0.00  0.00    -0.495 OA
ATOM     19  C   UNL     1       5.960  -0.457  -4.314  0.00  0.00    +0.277 C 
ENDBRANCH   7  18
ENDBRANCH   1   4
BRANCH   1  20
ATOM     20  C   UNL     1       5.102  -1.497   1.867  0.00  0.00    +0.137 C 
ATOM     21  S   UNL     1       5.681  -3.107   1.841  0.00  0.00    -0.018 S 
BRANCH  20  22
ATOM     22  N   UNL     1       5.957  -0.470   1.691  0.00  0.00    -0.309 N 
ATOM     23  C   UNL     1       5.496   0.919   1.827  0.00  0.00    +0.125 C 
ATOM     24  C   UNL     1       6.376   1.628   2.864  0.00  0.00    +0.124 C 
ATOM     25  N   UNL     1       7.785   1.379   2.533  0.00  0.00    -0.327 N 
ATOM     26  C   UNL     1       8.246  -0.010   2.396  0.00  0.00    +0.124 C 
ATOM     27  C   UNL     1       7.368  -0.719   1.365  0.00  0.00    +0.125 C 
BRANCH  25  28
ATOM     28  C   UNL     1       8.671   2.443   2.350  0.00  0.00    +0.033 A 
ATOM     29  C   UNL     1       9.389   2.945   3.429  0.00  0.00    +0.026 A 
ATOM     30  C   UNL     1      10.264   3.997   3.245  0.00  0.00    -0.049 A 
ATOM     31  C   UNL     1      10.427   4.551   1.988  0.00  0.00    +0.004 A 
ATOM     32  C   UNL     1       9.715   4.054   0.912  0.00  0.00    +0.005 A 
ATOM     33  C   UNL     1       8.842   2.998   1.088  0.00  0.00    -0.029 A 
ATOM     34  C   UNL     1       8.071   2.453  -0.086  0.00  0.00    +0.045 C 
ATOM     35  C   UNL     1      11.042   4.542   4.415  0.00  0.00    +0.044 C 
ENDBRANCH  25  28
ENDBRANCH  20  22
ENDBRANCH   1  20
TORSDOF 8
