REMARK  Name = ZINC66244531
REMARK  5 active torsions:
REMARK  status: ('A' for Active; 'I' for Inactive)
REMARK    1  A    between atoms: C_6  and  N_7
REMARK    2  A    between atoms: C_10  and  C_13
REMARK    3  A    between atoms: C_13  and  N_14
REMARK    4  A    between atoms: N_16  and  C_17
REMARK    5  A    between atoms: C_17  and  C_18
REMARK                            x       y       z     vdW  Elec       q    Type
REMARK                         _______ _______ _______ _____ _____    ______ ____
ROOT
ATOM      1  N   UNL     1      -4.595  -4.037  -0.688  0.00  0.00    -0.357 N 
ATOM      2  C   UNL     1      -5.283  -5.193  -0.404  0.00  0.00    +0.169 C 
ATOM      3  N   UNL     1      -6.471  -5.384  -0.905  0.00  0.00    -0.355 N 
ATOM      4  N   UNL     1      -4.719  -6.146   0.410  0.00  0.00    -0.371 N 
ATOM      5  H   UNL     1      -4.993  -3.364  -1.262  0.00  0.00    +0.162 HD
ATOM      6  H   UNL     1      -3.835  -6.004   0.783  0.00  0.00    +0.159 HD
ATOM      7  H   UNL     1      -5.204  -6.962   0.611  0.00  0.00    +0.159 HD
ATOM      8  H   UNL     1      -6.869  -4.712  -1.479  0.00  0.00    +0.162 HD
ENDROOT
BRANCH   1   9
ATOM      9  C   UNL     1      -3.260  -3.822  -0.125  0.00  0.00    +0.120 C 
BRANCH   9  13
ATOM     10  N   UNL     1      -1.198  -0.720   0.010  0.00  0.00    -0.330 N 
ATOM     11  C   UNL     1      -2.546  -0.134   0.020  0.00  0.00    +0.105 C 
ATOM     12  C   UNL     1      -3.554  -1.302  -0.002  0.00  0.00    +0.025 C 
ATOM     13  C   UNL     1      -2.720  -2.469  -0.594  0.00  0.00    +0.027 C 
ATOM     14  C   UNL     1      -1.321  -2.189   0.003  0.00  0.00    +0.110 C 
BRANCH  10  20
ATOM     15  C   UNL     1      -0.017   1.385   0.010  0.00  0.00    +0.024 A 
ATOM     16  C   UNL     1       1.171   2.090   0.002  0.00  0.00    +0.017 A 
ATOM     17  C   UNL     1       2.378   1.415  -0.013  0.00  0.00    +0.018 A 
ATOM     18  C   UNL     1       2.400   0.031  -0.021  0.00  0.00    +0.017 A 
ATOM     19  C   UNL     1       1.216  -0.679  -0.014  0.00  0.00    +0.024 A 
ATOM     20  C   UNL     1       0.002  -0.004   0.002  0.00  0.00    +0.030 A 
ATOM     21 BR   UNL     1       4.002   2.384  -0.025  0.00  0.00    -0.050 Br
ENDBRANCH  10  20
ENDBRANCH   9  13
ENDBRANCH   1   9
BRANCH   3  22
ATOM     22  C   UNL     1      -7.204  -6.616  -0.602  0.00  0.00    +0.147 C 
BRANCH  22  23
ATOM     23  C   UNL     1      -8.561  -6.589  -1.309  0.00  0.00    +0.137 C 
ATOM     24  C   UNL     1      -9.389  -7.825  -0.899  0.00  0.00    +0.035 C 
ATOM     25  C   UNL     1     -10.075  -8.220  -2.236  0.00  0.00    +0.031 C 
ATOM     26  C   UNL     1      -8.973  -7.838  -3.256  0.00  0.00    +0.160 C 
ATOM     27  O   UNL     1      -8.370  -6.644  -2.728  0.00  0.00    -0.375 OA
ENDBRANCH  22  23
ENDBRANCH   3  22
TORSDOF 5
