REMARK  Name = ZINC63229072
REMARK  8 active torsions:
REMARK  status: ('A' for Active; 'I' for Inactive)
REMARK    1  A    between atoms: C_11  and  C_13
REMARK    2  A    between atoms: C_13  and  O_14
REMARK    3  A    between atoms: O_14  and  C_15
REMARK    4  A    between atoms: C_15  and  C_17
REMARK    5  A    between atoms: C_17  and  C_19
REMARK    6  A    between atoms: C_17  and  N_29
REMARK    7  A    between atoms: C_19  and  C_20
REMARK    8  A    between atoms: C_30  and  C_32
REMARK                            x       y       z     vdW  Elec       q    Type
REMARK                         _______ _______ _______ _____ _____    ______ ____
ROOT
ATOM      1  C   UNL     1       7.472   3.762  -1.877  0.00  0.00    +0.186 C 
ENDROOT
BRANCH   1   2
ATOM      2  N   UNL     1       7.334   5.170  -2.259  0.00  0.00    -0.298 N 
ATOM      3  C   UNL     1       8.228   5.731  -3.097  0.00  0.00    +0.245 C 
ATOM      4  O   UNL     1       9.148   5.069  -3.536  0.00  0.00    -0.270 OA
ATOM      5  H   UNL     1       6.599   5.698  -1.909  0.00  0.00    +0.150 HD
BRANCH   3   6
ATOM      6  C   UNL     1       8.089   7.151  -3.482  0.00  0.00    +0.037 A 
ATOM      7  C   UNL     1       7.035   7.914  -2.975  0.00  0.00    +0.016 A 
ATOM      8  C   UNL     1       6.910   9.238  -3.337  0.00  0.00    +0.039 A 
ATOM      9  C   UNL     1       7.828   9.812  -4.205  0.00  0.00    +0.123 A 
ATOM     10  C   UNL     1       8.875   9.058  -4.712  0.00  0.00    +0.039 A 
ATOM     11  C   UNL     1       9.013   7.735  -4.351  0.00  0.00    +0.016 A 
ATOM     12  F   UNL     1       7.700  11.110  -4.558  0.00  0.00    -0.205 F 
ENDBRANCH   3   6
ENDBRANCH   1   2
BRANCH   1  13
ATOM     13  C   UNL     1       6.124   3.214  -1.484  0.00  0.00    +0.328 C 
ATOM     14  O   UNL     1       5.149   3.926  -1.520  0.00  0.00    -0.249 OA
BRANCH  13  15
ATOM     15  O   UNL     1       6.007   1.935  -1.095  0.00  0.00    -0.454 OA
BRANCH  15  16
ATOM     16  C   UNL     1       4.700   1.482  -0.737  0.00  0.00    +0.328 C 
BRANCH  16  27
ATOM     17  C   UNL     1       3.776  -4.736   0.701  0.00  0.00    +0.000 A 
ATOM     18  C   UNL     1       4.866  -4.093   0.143  0.00  0.00    +0.002 A 
ATOM     19  C   UNL     1       4.812  -2.737  -0.105  0.00  0.00    +0.024 A 
ATOM     20  C   UNL     1       3.663  -2.018   0.205  0.00  0.00    +0.040 A 
ATOM     21  C   UNL     1       2.570  -2.663   0.761  0.00  0.00    -0.026 A 
ATOM     22  C   UNL     1       2.633  -4.024   1.009  0.00  0.00    +0.005 A 
ATOM     23  C   UNL     1       1.306  -1.919   1.100  0.00  0.00    +0.038 C 
ATOM     24  C   UNL     1       1.585  -0.422   1.239  0.00  0.00    +0.024 C 
ATOM     25  C   UNL     1       2.338   0.059  -0.008  0.00  0.00    +0.114 C 
ATOM     26  N   UNL     1       3.630  -0.640  -0.050  0.00  0.00    -0.268 N 
ATOM     27  C   UNL     1       4.764   0.033  -0.330  0.00  0.00    +0.258 C 
ATOM     28  O   UNL     1       5.837  -0.529  -0.254  0.00  0.00    -0.272 OA
ENDBRANCH  16  27
ENDBRANCH  15  16
ENDBRANCH  13  15
ENDBRANCH   1  13
BRANCH   1  29
ATOM     29  C   UNL     1       8.434   3.647  -0.693  0.00  0.00    +0.067 C 
BRANCH  29  30
ATOM     30  C   UNL     1       9.812   4.080  -1.122  0.00  0.00    -0.039 C 
ATOM     31  C   UNL     1      10.361   5.308  -0.977  0.00  0.00    -0.001 A 
ATOM     32  C   UNL     1       9.857   6.560  -0.399  0.00  0.00    +0.010 A 
ATOM     33  C   UNL     1      10.657   7.650  -0.397  0.00  0.00    +0.001 A 
ATOM     34  C   UNL     1      11.952   7.615  -0.932  0.00  0.00    +0.002 A 
ATOM     35  C   UNL     1      12.484   6.502  -1.480  0.00  0.00    +0.026 A 
ATOM     36  C   UNL     1      11.732   5.297  -1.535  0.00  0.00    +0.043 A 
ATOM     37  N   UNL     1      12.020   4.109  -2.008  0.00  0.00    -0.380 N 
ATOM     38  C   UNL     1      10.864   3.229  -1.797  0.00  0.00    +0.144 C 
ATOM     39  H   UNL     1      12.857   3.853  -2.424  0.00  0.00    +0.160 HD
ENDBRANCH  29  30
ENDBRANCH   1  29
TORSDOF 8
