REMARK  Name = ZINC43619646
REMARK  10 active torsions:
REMARK  status: ('A' for Active; 'I' for Inactive)
REMARK    1  A    between atoms: C_1  and  C_2
REMARK    2  A    between atoms: C_7  and  C_10
REMARK    3  A    between atoms: C_11  and  C_13
REMARK    4  A    between atoms: C_14  and  C_21
REMARK    5  A    between atoms: C_21  and  N_22
REMARK    6  A    between atoms: N_22  and  C_23
REMARK    7  A    between atoms: C_23  and  C_24
REMARK    8  A    between atoms: C_24  and  C_25
REMARK    9  A    between atoms: C_33  and  C_34
REMARK   10  A    between atoms: C_33  and  C_35
REMARK                            x       y       z     vdW  Elec       q    Type
REMARK                         _______ _______ _______ _____ _____    ______ ____
ROOT
ATOM      1  C   UNL     1      -1.920  -4.278  -0.496  0.00  0.00    +0.146 A 
ATOM      2  C   UNL     1      -2.463  -5.216  -1.319  0.00  0.00    +0.039 A 
ATOM      3  N   UNL     1      -2.083  -6.459  -0.849  0.00  0.00    -0.299 N 
ATOM      4  C   UNL     1      -2.270  -7.782  -1.187  0.00  0.00    +0.100 A 
ATOM      5  C   UNL     1      -1.722  -8.757  -0.464  0.00  0.00    +0.067 A 
ATOM      6  S   UNL     1      -0.864  -7.838   0.805  0.00  0.00    -0.058 S 
ATOM      7  C   UNL     1      -1.312  -6.206   0.259  0.00  0.00    +0.178 A 
ATOM      8  N   UNL     1      -1.212  -4.927   0.464  0.00  0.00    -0.216 NA
ENDROOT
BRANCH   1  17
ATOM      9  C   UNL     1      -0.030   1.535  -0.015  0.00  0.00    +0.039 C 
ATOM     10  C   UNL     1      -0.001   0.005  -0.031  0.00  0.00    +0.133 C 
ATOM     11  C   UNL     1      -1.435  -0.535   0.012  0.00  0.00    +0.139 C 
ATOM     12  N   UNL     1      -1.376  -1.995   0.185  0.00  0.00    -0.291 N 
ATOM     13  C   UNL     1      -0.538  -2.530   1.270  0.00  0.00    +0.139 C 
ATOM     14  C   UNL     1       0.852  -1.893   1.166  0.00  0.00    +0.133 C 
ATOM     15  O   UNL     1       0.717  -0.471   1.111  0.00  0.00    -0.371 OA
ATOM     16  C   UNL     1       1.685  -2.280   2.390  0.00  0.00    +0.039 C 
ATOM     17  C   UNL     1      -2.068  -2.818  -0.627  0.00  0.00    +0.267 C 
ATOM     18  O   UNL     1      -2.816  -2.356  -1.468  0.00  0.00    -0.268 OA
ENDBRANCH   1  17
BRANCH   2  19
ATOM     19  C   UNL     1      -3.324  -4.948  -2.526  0.00  0.00    -0.025 C 
BRANCH  19  20
ATOM     20  N   UNL     1      -4.736  -4.904  -2.121  0.00  0.00    +0.383 N 
ATOM     21  H   UNL     1      -4.995  -5.789  -1.712  0.00  0.00    -0.085 HD
ATOM     22  H   UNL     1      -4.868  -4.169  -1.443  0.00  0.00    -0.085 HD
BRANCH  20  23
ATOM     23  C   UNL     1      -5.575  -4.643  -3.298  0.00  0.00    -0.078 C 
BRANCH  23  24
ATOM     24  C   UNL     1      -7.045  -4.598  -2.876  0.00  0.00    +0.012 C 
BRANCH  24  25
ATOM     25  C   UNL     1      -7.906  -4.329  -4.083  0.00  0.00    -0.072 C 
ATOM     26  C   UNL     1      -8.466  -5.310  -4.753  0.00  0.00    -0.027 C 
ATOM     27  C   UNL     1      -9.329  -4.998  -5.952  0.00  0.00    +0.031 C 
ATOM     28  C   UNL     1      -9.321  -3.486  -6.215  0.00  0.00    -0.000 C 
ATOM     29  C   UNL     1      -7.913  -2.873  -6.129  0.00  0.00    +0.012 C 
ATOM     30  C   UNL     1      -8.165  -2.914  -4.569  0.00  0.00    +0.021 C 
ATOM     31  C   UNL     1      -9.643  -2.703  -4.926  0.00  0.00    -0.025 C 
ATOM     32  C   UNL     1     -10.021  -1.240  -5.168  0.00  0.00    +0.012 C 
ATOM     33  C   UNL     1     -10.612  -3.426  -3.989  0.00  0.00    +0.012 C 
ENDBRANCH  24  25
ENDBRANCH  23  24
ENDBRANCH  20  23
ENDBRANCH  19  20
ENDBRANCH   2  19
TORSDOF 6
