REMARK  Name = ZINC21222246
REMARK  2 active torsions:
REMARK  status: ('A' for Active; 'I' for Inactive)
REMARK    1  A    between atoms: C_8  and  C_24
REMARK    2  A    between atoms: C_14  and  C_19
REMARK                            x       y       z     vdW  Elec       q    Type
REMARK                         _______ _______ _______ _____ _____    ______ ____
ROOT
ATOM      1  C   UNL     1      -6.455  -3.049  -3.559  0.00  0.00    +0.002 A 
ATOM      2  C   UNL     1      -5.603  -2.061  -4.018  0.00  0.00    +0.002 A 
ATOM      3  C   UNL     1      -4.287  -2.019  -3.589  0.00  0.00    +0.025 A 
ATOM      4  C   UNL     1      -3.834  -2.974  -2.695  0.00  0.00    +0.052 A 
ATOM      5  C   UNL     1      -4.698  -3.941  -2.204  0.00  0.00    +0.049 A 
ATOM      6  C   UNL     1      -6.008  -3.994  -2.651  0.00  0.00    +0.025 A 
ATOM      7  N   UNL     1      -4.235  -4.800  -1.208  0.00  0.00    -0.331 N 
ATOM      8  C   UNL     1      -3.870  -4.297   0.100  0.00  0.00    +0.139 C 
ATOM      9  C   UNL     1      -2.683  -3.363   0.103  0.00  0.00    +0.037 C 
ATOM     10  C   UNL     1      -2.111  -2.810  -0.980  0.00  0.00    +0.017 C 
ATOM     11  N   UNL     1      -2.515  -3.019  -2.259  0.00  0.00    -0.316 N 
ATOM     12  C   UNL     1      -0.915  -1.885  -0.832  0.00  0.00    +0.060 C 
ATOM     13  C   UNL     1      -1.012  -1.112   0.482  0.00  0.00    +0.039 C 
ATOM     14  C   UNL     1      -1.041  -2.134   1.625  0.00  0.00    +0.088 C 
ATOM     15  C   UNL     1      -2.186  -3.075   1.396  0.00  0.00    +0.163 C 
ATOM     16  O   UNL     1      -2.706  -3.608   2.357  0.00  0.00    -0.292 OA
ATOM     17  H   UNL     1      -4.148  -5.874  -1.428  0.00  0.00    +0.147 HD
ATOM     18  H   UNL     1      -1.707  -3.238  -2.973  0.00  0.00    +0.152 HD
ENDROOT
BRANCH   8  19
ATOM     19  C   UNL     1      -5.054  -3.567   0.678  0.00  0.00    +0.013 A 
ATOM     20  C   UNL     1      -5.081  -2.186   0.681  0.00  0.00    +0.024 A 
ATOM     21  C   UNL     1      -6.168  -1.516   1.212  0.00  0.00    +0.018 A 
ATOM     22  C   UNL     1      -7.230  -2.228   1.740  0.00  0.00    +0.018 A 
ATOM     23  C   UNL     1      -7.205  -3.610   1.738  0.00  0.00    +0.040 A 
ATOM     24  C   UNL     1      -6.119  -4.281   1.202  0.00  0.00    +0.129 A 
ATOM     25  F   UNL     1      -6.096  -5.632   1.195  0.00  0.00    -0.205 F 
ATOM     26 BR   UNL     1      -6.204   0.375   1.215  0.00  0.00    -0.050 Br
ENDBRANCH   8  19
BRANCH  13  27
ATOM     27  C   UNL     1       0.184  -0.209   0.634  0.00  0.00    -0.006 A 
ATOM     28  C   UNL     1       0.225   1.139   0.771  0.00  0.00    +0.011 A 
ATOM     29  C   UNL     1       1.451   1.763   0.896  0.00  0.00    +0.008 A 
ATOM     30  C   UNL     1       2.578   1.009   0.879  0.00  0.00    +0.045 A 
ATOM     31  S   UNL     1       1.917  -0.637   0.680  0.00  0.00    -0.101 S 
ENDBRANCH  13  27
TORSDOF 2
