REMARK  Name = ZINC20601949
REMARK  6 active torsions:
REMARK  status: ('A' for Active; 'I' for Inactive)
REMARK    1  A    between atoms: C_3  and  C_27
REMARK    2  A    between atoms: C_5  and  O_7
REMARK    3  A    between atoms: O_7  and  C_8
REMARK    4  A    between atoms: C_8  and  C_9
REMARK    5  A    between atoms: C_12  and  C_14
REMARK    6  A    between atoms: C_19  and  C_20
REMARK                            x       y       z     vdW  Elec       q    Type
REMARK                         _______ _______ _______ _____ _____    ______ ____
ROOT
ATOM      1  C   UNL     1       0.978   7.358   0.029  0.00  0.00    +0.143 A 
ATOM      2  C   UNL     1       0.870   8.130   1.130  0.00  0.00    +0.049 A 
ATOM      3  C   UNL     1       0.678   9.453   0.690  0.00  0.00    +0.050 A 
ATOM      4  C   UNL     1       0.671   9.415  -0.672  0.00  0.00    +0.137 A 
ATOM      5  O   UNL     1       0.854   8.137  -1.057  0.00  0.00    -0.456 OA
ENDROOT
BRANCH   4   6
ATOM      6  C   UNL     1       0.494  10.572  -1.568  0.00  0.00    +0.043 A 
ATOM      7  C   UNL     1       1.533  10.985  -2.420  0.00  0.00    -0.014 A 
ATOM      8  C   UNL     1       1.338  12.065  -3.244  0.00  0.00    +0.047 A 
ATOM      9  N   UNL     1       0.181  12.722  -3.236  0.00  0.00    -0.236 NA
ATOM     10  C   UNL     1      -0.831  12.384  -2.460  0.00  0.00    +0.135 A 
ATOM     11  C   UNL     1      -0.724  11.284  -1.593  0.00  0.00    +0.102 A 
ATOM     12  N   UNL     1      -2.006  13.115  -2.504  0.00  0.00    -0.342 N 
ATOM     13  C   UNL     1       2.404  12.558  -4.191  0.00  0.00    +0.056 C 
ATOM     14  C   UNL     1       3.774  12.017  -3.788  0.00  0.00    +0.006 C 
ATOM     15  C   UNL     1       3.663  10.497  -3.621  0.00  0.00    +0.005 C 
ATOM     16  C   UNL     1       2.823  10.211  -2.378  0.00  0.00    +0.038 C 
ATOM     17  H   UNL     1      -2.852  12.835  -1.859  0.00  0.00    +0.144 HD
ATOM     18  H   UNL     1      -2.094  13.975  -3.185  0.00  0.00    +0.144 HD
BRANCH  11  19
ATOM     19  C   UNL     1      -1.819  10.899  -0.754  0.00  0.00    +0.103 C 
ATOM     20  N   UNL     1      -2.687  10.594  -0.089  0.00  0.00    -0.191 NA
ENDBRANCH  11  19
ENDBRANCH   4   6
BRANCH   1  21
ATOM     21  C   UNL     1       1.196   5.867   0.020  0.00  0.00    +0.303 C 
BRANCH  21  22
ATOM     22  O   UNL     1      -0.069   5.201   0.029  0.00  0.00    -0.484 OA
BRANCH  22  27
ATOM     23  C   UNL     1       1.176   1.782   0.000  0.00  0.00    +0.004 A 
ATOM     24  C   UNL     1      -0.013   1.076   0.008  0.00  0.00    +0.012 A 
ATOM     25  C   UNL     1      -1.220   1.750   0.017  0.00  0.00    +0.058 A 
ATOM     26  C   UNL     1      -1.241   3.131   0.031  0.00  0.00    +0.058 A 
ATOM     27  C   UNL     1      -0.050   3.842   0.023  0.00  0.00    +0.122 A 
ATOM     28  C   UNL     1       1.160   3.163   0.007  0.00  0.00    +0.046 A 
BRANCH  25  29
ATOM     29  C   UNL     1      -2.513   0.977   0.019  0.00  0.00    +0.418 C 
ATOM     30  F   UNL     1      -2.237  -0.395   0.010  0.00  0.00    -0.166 F 
ATOM     31  F   UNL     1      -3.247   1.297   1.166  0.00  0.00    -0.166 F 
ATOM     32  F   UNL     1      -3.257   1.310  -1.118  0.00  0.00    -0.166 F 
ENDBRANCH  25  29
ENDBRANCH  22  27
ENDBRANCH  21  22
ENDBRANCH   1  21
TORSDOF 6
