REMARK  Name = ZINC01185009
REMARK  6 active torsions:
REMARK  status: ('A' for Active; 'I' for Inactive)
REMARK    1  A    between atoms: C_7  and  C_11
REMARK    2  A    between atoms: C_11  and  C_12
REMARK    3  A    between atoms: C_12  and  N_13
REMARK    4  A    between atoms: N_13  and  C_14
REMARK    5  A    between atoms: C_14  and  N_16
REMARK    6  A    between atoms: N_16  and  C_17
REMARK                            x       y       z     vdW  Elec       q    Type
REMARK                         _______ _______ _______ _____ _____    ______ ____
ROOT
ATOM      1  N   UNL     1      -3.075   3.224   1.407  0.00  0.00    -0.326 N 
ATOM      2  H   UNL     1      -3.317   3.720   0.610  0.00  0.00    +0.148 HD
ENDROOT
BRANCH   1   3
ATOM      3  C   UNL     1      -3.673   3.505   2.583  0.00  0.00    +0.135 C 
ATOM      4  S   UNL     1      -3.247   2.629   3.990  0.00  0.00    -0.019 S 
BRANCH   3   5
ATOM      5  N   UNL     1      -4.606   4.475   2.649  0.00  0.00    -0.296 N 
ATOM      6  H   UNL     1      -4.802   5.014   1.866  0.00  0.00    +0.154 HD
BRANCH   5   7
ATOM      7  C   UNL     1      -5.291   4.707   3.848  0.00  0.00    +0.051 A 
ATOM      8  C   UNL     1      -4.590   4.802   5.043  0.00  0.00    +0.026 A 
ATOM      9  C   UNL     1      -5.268   5.030   6.224  0.00  0.00    +0.022 A 
ATOM     10  C   UNL     1      -6.646   5.164   6.218  0.00  0.00    +0.042 A 
ATOM     11  C   UNL     1      -7.348   5.069   5.029  0.00  0.00    +0.041 A 
ATOM     12  C   UNL     1      -6.673   4.846   3.843  0.00  0.00    +0.063 A 
ATOM     13 CL   UNL     1      -7.553   4.736   2.351  0.00  0.00    -0.082 Cl
ATOM     14 CL   UNL     1      -7.495   5.450   7.705  0.00  0.00    -0.083 Cl
ENDBRANCH   5   7
ENDBRANCH   3   5
ENDBRANCH   1   3
BRANCH   1  15
ATOM     15  C   UNL     1      -2.062   2.168   1.335  0.00  0.00    +0.108 C 
BRANCH  15  16
ATOM     16  C   UNL     1      -1.547   2.054  -0.101  0.00  0.00    +0.056 C 
BRANCH  16  23
ATOM     17  C   UNL     1      -1.790  -2.595  -0.653  0.00  0.00    +0.001 A 
ATOM     18  C   UNL     1      -0.542  -3.204  -0.668  0.00  0.00    +0.002 A 
ATOM     19  C   UNL     1       0.606  -2.456  -0.527  0.00  0.00    +0.026 A 
ATOM     20  C   UNL     1       0.518  -1.077  -0.369  0.00  0.00    +0.047 A 
ATOM     21  C   UNL     1      -0.749  -0.465  -0.355  0.00  0.00    +0.003 A 
ATOM     22  C   UNL     1      -1.900  -1.242  -0.499  0.00  0.00    +0.010 A 
ATOM     23  C   UNL     1      -0.504   0.968  -0.175  0.00  0.00    -0.021 A 
ATOM     24  C   UNL     1       0.826   1.132  -0.095  0.00  0.00    +0.087 A 
ATOM     25  N   UNL     1       1.453  -0.079  -0.209  0.00  0.00    -0.360 N 
ATOM     26  H   UNL     1       2.413  -0.214  -0.181  0.00  0.00    +0.165 HD
ENDBRANCH  16  23
ENDBRANCH  15  16
ENDBRANCH   1  15
TORSDOF 6
