REMARK  Name = ZINC04108685
REMARK  8 active torsions:
REMARK  status: ('A' for Active; 'I' for Inactive)
REMARK    1  A    between atoms: C_1  and  C_2
REMARK    2  A    between atoms: C_6  and  C_8
REMARK    3  A    between atoms: C_11  and  C_22
REMARK    4  A    between atoms: C_14  and  C_21
REMARK    5  A    between atoms: C_27  and  O_28
REMARK    6  A    between atoms: O_28  and  C_29
REMARK    7  A    between atoms: C_29  and  C_31
REMARK    8  A    between atoms: C_35  and  C_37
REMARK                            x       y       z     vdW  Elec       q    Type
REMARK                         _______ _______ _______ _____ _____    ______ ____
ROOT
ATOM      1  C   UNL     1       0.073  -2.961   2.543  0.00  0.00    +0.249 C 
ATOM      2  O   UNL     1       0.156  -2.396   3.616  0.00  0.00    -0.270 OA
ATOM      3  N   UNL     1      -0.033  -4.304   2.495  0.00  0.00    -0.271 N 
ATOM      4  C   UNL     1      -0.042  -5.164   1.275  0.00  0.00    +0.113 C 
ATOM      5  C   UNL     1       0.014  -6.642   1.774  0.00  0.00    +0.038 C 
ATOM      6  C   UNL     1       0.653  -6.468   3.148  0.00  0.00    +0.013 C 
ATOM      7  C   UNL     1      -0.152  -5.194   3.595  0.00  0.00    +0.170 C 
ATOM      8  N   UNL     1       0.147  -5.083   4.976  0.00  0.00    -0.296 N 
ATOM      9  C   UNL     1       0.282  -6.356   5.477  0.00  0.00    +0.215 C 
ATOM     10  O   UNL     1       0.422  -6.643   6.647  0.00  0.00    -0.276 OA
ATOM     11  C   UNL     1       0.215  -7.352   4.313  0.00  0.00    +0.106 C 
ATOM     12  C   UNL     1       2.170  -6.281   3.080  0.00  0.00    +0.015 C 
ATOM     13  H   UNL     1       0.240  -4.258   5.478  0.00  0.00    +0.150 HD
ENDROOT
BRANCH   1  19
ATOM     14  C   UNL     1      -1.462   0.986  -0.095  0.00  0.00    +0.044 C 
ATOM     15  C   UNL     1      -0.649  -0.277   0.017  0.00  0.00    -0.050 A 
ATOM     16  C   UNL     1       0.114  -0.705  -1.055  0.00  0.00    +0.003 A 
ATOM     17  C   UNL     1       0.864  -1.864  -0.961  0.00  0.00    +0.001 A 
ATOM     18  C   UNL     1       0.855  -2.601   0.206  0.00  0.00    +0.013 A 
ATOM     19  C   UNL     1       0.088  -2.176   1.291  0.00  0.00    +0.037 A 
ATOM     20  C   UNL     1      -0.662  -1.002   1.190  0.00  0.00    +0.016 A 
ENDBRANCH   1  19
BRANCH   4  21
ATOM     21  C   UNL     1      -1.305  -4.931   0.488  0.00  0.00    +0.015 A 
ATOM     22  C   UNL     1      -2.396  -4.336   1.092  0.00  0.00    +0.009 A 
ATOM     23  C   UNL     1      -3.556  -4.121   0.370  0.00  0.00    +0.001 A 
ATOM     24  C   UNL     1      -3.627  -4.502  -0.958  0.00  0.00    +0.004 A 
ATOM     25  C   UNL     1      -2.539  -5.097  -1.566  0.00  0.00    +0.047 A 
ATOM     26  C   UNL     1      -1.373  -5.309  -0.845  0.00  0.00    +0.137 A 
BRANCH  26  27
ATOM     27  O   UNL     1      -0.299  -5.889  -1.443  0.00  0.00    -0.422 OA
BRANCH  27  28
ATOM     28  C   UNL     1      -0.174  -7.228  -1.356  0.00  0.00    +0.344 C 
ATOM     29  O   UNL     1      -0.961  -7.870  -0.689  0.00  0.00    -0.245 OA
BRANCH  28  30
ATOM     30  C   UNL     1       0.919  -7.916  -2.073  0.00  0.00    +0.060 A 
ATOM     31  C   UNL     1       1.829  -7.181  -2.837  0.00  0.00    +0.015 A 
ATOM     32  C   UNL     1       2.848  -7.829  -3.502  0.00  0.00    +0.001 A 
ATOM     33  C   UNL     1       2.970  -9.205  -3.415  0.00  0.00    +0.003 A 
ATOM     34  C   UNL     1       2.072  -9.939  -2.661  0.00  0.00    -0.050 A 
ATOM     35  C   UNL     1       1.052  -9.303  -1.985  0.00  0.00    +0.018 A 
ATOM     36  C   UNL     1       2.213 -11.437  -2.572  0.00  0.00    +0.044 C 
ENDBRANCH  28  30
ENDBRANCH  27  28
ENDBRANCH  26  27
ENDBRANCH   4  21
TORSDOF 5
