REMARK  Name = ZINC32095577
REMARK  4 active torsions:
REMARK  status: ('A' for Active; 'I' for Inactive)
REMARK    1  A    between atoms: C_2  and  C_3
REMARK    2  A    between atoms: C_3  and  N_4
REMARK    3  A    between atoms: N_22  and  C_23
REMARK    4  A    between atoms: C_23  and  C_24
REMARK                            x       y       z     vdW  Elec       q    Type
REMARK                         _______ _______ _______ _____ _____    ______ ____
ROOT
ATOM      1  N   UNL     1      -1.318  -1.700  -1.126  0.00  0.00    -0.266 N 
ATOM      2  C   UNL     1      -1.813  -1.375  -2.377  0.00  0.00    +0.041 A 
ATOM      3  C   UNL     1      -2.372  -0.177  -2.824  0.00  0.00    +0.024 A 
ATOM      4  C   UNL     1      -2.792  -0.128  -4.144  0.00  0.00    +0.002 A 
ATOM      5  C   UNL     1      -2.668  -1.210  -4.991  0.00  0.00    +0.000 A 
ATOM      6  C   UNL     1      -2.113  -2.409  -4.558  0.00  0.00    +0.007 A 
ATOM      7  C   UNL     1      -1.694  -2.467  -3.246  0.00  0.00    -0.006 A 
ATOM      8  C   UNL     1      -1.068  -3.567  -2.451  0.00  0.00    +0.112 C 
ATOM      9  C   UNL     1      -0.855  -2.966  -1.078  0.00  0.00    +0.236 C 
ATOM     10  O   UNL     1      -0.364  -3.520  -0.117  0.00  0.00    -0.274 OA
ATOM     11  C   UNL     1      -1.991  -4.780  -2.362  0.00  0.00    +0.122 C 
ATOM     12  C   UNL     1      -1.908  -5.621  -3.606  0.00  0.00    +0.220 C 
ATOM     13  O   UNL     1      -2.918  -6.142  -4.031  0.00  0.00    -0.275 OA
ATOM     14  N   UNL     1      -0.746  -5.814  -4.265  0.00  0.00    -0.270 N 
ATOM     15  C   UNL     1       0.362  -5.055  -3.891  0.00  0.00    +0.128 A 
ATOM     16  C   UNL     1       0.251  -3.988  -3.037  0.00  0.00    +0.032 A 
ATOM     17  C   UNL     1       1.516  -3.447  -2.864  0.00  0.00    +0.141 A 
ATOM     18  N   UNL     1       2.362  -4.145  -3.586  0.00  0.00    -0.177 NA
ATOM     19  N   UNL     1       1.650  -5.157  -4.248  0.00  0.00    -0.246 N 
ATOM     20  H   UNL     1      -0.684  -6.466  -4.980  0.00  0.00    +0.156 HD
ENDROOT
BRANCH   1  21
ATOM     21  C   UNL     1      -1.293  -0.775   0.010  0.00  0.00    +0.140 C 
BRANCH  21  23
ATOM     22  C   UNL     1      -0.016   1.306   0.009  0.00  0.00    +0.005 C 
ATOM     23  C   UNL     1       0.002  -0.004   0.002  0.00  0.00    -0.015 C 
ENDBRANCH  21  23
ENDBRANCH   1  21
BRANCH  19  24
ATOM     24  C   UNL     1       2.215  -6.151  -5.165  0.00  0.00    +0.182 C 
BRANCH  24  25
ATOM     25  C   UNL     1       2.175  -5.615  -6.573  0.00  0.00    -0.008 A 
ATOM     26  C   UNL     1       1.115  -5.929  -7.403  0.00  0.00    +0.007 A 
ATOM     27  C   UNL     1       1.078  -5.438  -8.694  0.00  0.00    +0.000 A 
ATOM     28  C   UNL     1       2.102  -4.632  -9.157  0.00  0.00    +0.001 A 
ATOM     29  C   UNL     1       3.162  -4.317  -8.328  0.00  0.00    +0.020 A 
ATOM     30  C   UNL     1       3.196  -4.804  -7.034  0.00  0.00    +0.046 A 
ATOM     31 CL   UNL     1       4.525  -4.404  -5.990  0.00  0.00    -0.083 Cl
ENDBRANCH  24  25
ENDBRANCH  19  24
TORSDOF 4
