REMARK  Name = ZINC39708690
REMARK  9 active torsions:
REMARK  status: ('A' for Active; 'I' for Inactive)
REMARK    1  A    between atoms: C_1  and  C_2
REMARK    2  A    between atoms: C_5  and  O_8
REMARK    3  A    between atoms: O_8  and  C_9
REMARK    4  A    between atoms: C_9  and  C_10
REMARK    5  A    between atoms: C_13  and  S_23
REMARK    6  A    between atoms: N_15  and  C_16
REMARK    7  A    between atoms: C_16  and  C_17
REMARK    8  A    between atoms: S_23  and  C_24
REMARK    9  A    between atoms: C_24  and  C_25
REMARK                            x       y       z     vdW  Elec       q    Type
REMARK                         _______ _______ _______ _____ _____    ______ ____
ROOT
ATOM      1  C   UNL     1       0.090  -6.277   1.043  0.00  0.00    +0.156 C 
ATOM      2  N   UNL     1       0.097  -6.843  -0.108  0.00  0.00    -0.170 NA
ATOM      3  N   UNL     1       0.114  -8.238   0.003  0.00  0.00    -0.238 N 
ATOM      4  C   UNL     1       0.117  -8.534   1.446  0.00  0.00    +0.237 C 
ATOM      5  N   UNL     1       0.107  -7.202   2.076  0.00  0.00    -0.282 N 
ATOM      6  H   UNL     1       0.121  -8.881  -0.724  0.00  0.00    +0.171 HD
ENDROOT
BRANCH   1   7
ATOM      7  C   UNL     1       0.072  -4.785   1.249  0.00  0.00    +0.302 C 
BRANCH   7   8
ATOM      8  O   UNL     1       0.057  -4.129  -0.021  0.00  0.00    -0.485 OA
BRANCH   8  13
ATOM      9  C   UNL     1      -0.018   1.503   0.010  0.00  0.00    +0.044 C 
ATOM     10  C   UNL     1       0.002  -0.004   0.002  0.00  0.00    -0.050 A 
ATOM     11  C   UNL     1       0.006  -0.688  -1.200  0.00  0.00    +0.007 A 
ATOM     12  C   UNL     1       0.024  -2.069  -1.210  0.00  0.00    +0.046 A 
ATOM     13  C   UNL     1       0.039  -2.770  -0.013  0.00  0.00    +0.121 A 
ATOM     14  C   UNL     1       0.036  -2.082   1.191  0.00  0.00    +0.046 A 
ATOM     15  C   UNL     1       0.023  -0.701   1.196  0.00  0.00    +0.007 A 
ENDBRANCH   8  13
ENDBRANCH   7   8
ENDBRANCH   1   7
BRANCH   5  16
ATOM     16  C   UNL     1       0.111  -6.912   3.512  0.00  0.00    +0.144 C 
BRANCH  16  17
ATOM     17  C   UNL     1      -1.308  -6.831   4.013  0.00  0.00    -0.030 A 
ATOM     18  C   UNL     1      -1.977  -5.621   4.000  0.00  0.00    +0.005 A 
ATOM     19  C   UNL     1      -3.279  -5.547   4.459  0.00  0.00    +0.000 A 
ATOM     20  C   UNL     1      -3.912  -6.682   4.930  0.00  0.00    +0.000 A 
ATOM     21  C   UNL     1      -3.243  -7.891   4.942  0.00  0.00    +0.000 A 
ATOM     22  C   UNL     1      -1.942  -7.967   4.479  0.00  0.00    +0.005 A 
ENDBRANCH  16  17
ENDBRANCH   5  16
BRANCH   4  23
ATOM     23  S   UNL     1       1.618  -9.443   1.907  0.00  0.00    -0.114 S 
BRANCH  23  24
ATOM     24  C   UNL     1       2.970  -8.340   1.409  0.00  0.00    +0.104 C 
BRANCH  24  25
ATOM     25  C   UNL     1       4.291  -8.983   1.740  0.00  0.00    -0.042 C 
ATOM     26  C   UNL     1       4.985  -9.699   0.810  0.00  0.00    -0.003 A 
ATOM     27  C   UNL     1       4.467  -9.866  -0.548  0.00  0.00    +0.010 A 
ATOM     28  C   UNL     1       5.192 -10.586  -1.442  0.00  0.00    +0.001 A 
ATOM     29  C   UNL     1       6.412 -11.165  -1.089  0.00  0.00    +0.002 A 
ATOM     30  C   UNL     1       6.947 -11.047   0.154  0.00  0.00    +0.024 A 
ATOM     31  C   UNL     1       6.276 -10.320   1.154  0.00  0.00    +0.041 A 
ATOM     32  N   UNL     1       6.810 -10.211   2.371  0.00  0.00    -0.285 N 
ATOM     33  C   UNL     1       6.232  -9.544   3.356  0.00  0.00    +0.221 C 
ATOM     34  O   UNL     1       6.769  -9.479   4.446  0.00  0.00    -0.275 OA
ATOM     35  C   UNL     1       4.907  -8.857   3.120  0.00  0.00    +0.128 C 
ATOM     36  H   UNL     1       7.662 -10.641   2.541  0.00  0.00    +0.155 HD
ENDBRANCH  24  25
ENDBRANCH  23  24
ENDBRANCH   4  23
TORSDOF 8
