REMARK  Name = ZINC04244680
REMARK  7 active torsions:
REMARK  status: ('A' for Active; 'I' for Inactive)
REMARK    1  A    between atoms: C_1  and  C_2
REMARK    2  A    between atoms: C_5  and  S_8
REMARK    3  A    between atoms: S_8  and  N_11
REMARK    4  A    between atoms: N_11  and  C_12
REMARK    5  A    between atoms: C_17  and  C_18
REMARK    6  A    between atoms: C_18  and  C_20
REMARK    7  A    between atoms: C_18  and  O_26
REMARK                            x       y       z     vdW  Elec       q    Type
REMARK                         _______ _______ _______ _____ _____    ______ ____
ROOT
ATOM      1  C   UNL     1       0.346   4.340   2.151  0.00  0.00    +0.058 A 
ATOM      2  C   UNL     1       0.669   4.872   3.392  0.00  0.00    +0.074 A 
ATOM      3  C   UNL     1       1.949   5.348   3.630  0.00  0.00    +0.164 A 
ATOM      4  C   UNL     1       2.910   5.284   2.628  0.00  0.00    +0.163 A 
ATOM      5  C   UNL     1       2.586   4.746   1.392  0.00  0.00    +0.057 A 
ATOM      6  C   UNL     1       1.309   4.274   1.154  0.00  0.00    +0.011 A 
ATOM      7  O   UNL     1       4.175   5.741   2.845  0.00  0.00    -0.485 OA
ATOM      8  C   UNL     1       4.361   6.611   3.967  0.00  0.00    +0.270 C 
ATOM      9  C   UNL     1       3.637   5.998   5.174  0.00  0.00    +0.270 C 
ATOM     10  O   UNL     1       2.248   5.876   4.849  0.00  0.00    -0.485 OA
ENDROOT
BRANCH   1  11
ATOM     11  N   UNL     1      -0.948   3.866   1.908  0.00  0.00    -0.216 N 
ATOM     12  H   UNL     1      -1.082   3.090   1.343  0.00  0.00    +0.174 HD
BRANCH  11  13
ATOM     13  S   UNL     1      -2.251   4.631   2.587  0.00  0.00    +0.072 S 
ATOM     14  O   UNL     1      -3.411   4.008   2.053  0.00  0.00    -0.150 OA
ATOM     15  O   UNL     1      -1.998   4.702   3.983  0.00  0.00    -0.150 OA
BRANCH  13  20
ATOM     16  C   UNL     1      -2.250  10.309   0.544  0.00  0.00    +0.044 C 
ATOM     17  C   UNL     1      -2.251   8.891   1.054  0.00  0.00    -0.050 A 
ATOM     18  C   UNL     1      -2.929   7.906   0.360  0.00  0.00    +0.005 A 
ATOM     19  C   UNL     1      -2.929   6.606   0.828  0.00  0.00    +0.029 A 
ATOM     20  C   UNL     1      -2.251   6.289   1.990  0.00  0.00    +0.109 A 
ATOM     21  C   UNL     1      -1.576   7.274   2.687  0.00  0.00    +0.029 A 
ATOM     22  C   UNL     1      -1.572   8.574   2.216  0.00  0.00    +0.005 A 
ENDBRANCH  13  20
ENDBRANCH  11  13
ENDBRANCH   1  11
BRANCH   6  23
ATOM     23  C   UNL     1       0.960   3.691  -0.192  0.00  0.00    +0.177 C 
BRANCH  23  24
ATOM     24  C   UNL     1       1.119   2.193  -0.147  0.00  0.00    -0.015 A 
ATOM     25  C   UNL     1       0.008   1.385   0.013  0.00  0.00    +0.006 A 
ATOM     26  C   UNL     1       0.153   0.011   0.053  0.00  0.00    +0.000 A 
ATOM     27  C   UNL     1       1.409  -0.555  -0.066  0.00  0.00    +0.000 A 
ATOM     28  C   UNL     1       2.519   0.253  -0.226  0.00  0.00    +0.000 A 
ATOM     29  C   UNL     1       2.374   1.627  -0.267  0.00  0.00    +0.006 A 
ENDBRANCH  23  24
BRANCH  23  30
ATOM     30  O   UNL     1       1.832   4.233  -1.186  0.00  0.00    -0.382 OA
ATOM     31  H   UNL     1       2.769   4.050  -1.030  0.00  0.00    +0.211 HD
ENDBRANCH  23  30
ENDBRANCH   6  23
TORSDOF 6
