REMARK  Name = ZINC18013522
REMARK  9 active torsions:
REMARK  status: ('A' for Active; 'I' for Inactive)
REMARK    1  A    between atoms: C_1  and  C_2
REMARK    2  A    between atoms: C_3  and  C_28
REMARK    3  A    between atoms: C_4  and  C_27
REMARK    4  A    between atoms: C_5  and  S_10
REMARK    5  A    between atoms: C_6  and  C_9
REMARK    6  A    between atoms: C_7  and  C_8
REMARK    7  A    between atoms: S_10  and  N_13
REMARK    8  A    between atoms: C_19  and  C_21
REMARK    9  A    between atoms: C_24  and  C_26
REMARK                            x       y       z     vdW  Elec       q    Type
REMARK                         _______ _______ _______ _____ _____    ______ ____
ROOT
ATOM      1  S   UNL     1      -0.948  -4.342   0.205  0.00  0.00    +0.061 S 
ATOM      2  O   UNL     1      -1.660  -4.337   1.435  0.00  0.00    -0.153 OA
ATOM      3  O   UNL     1      -1.579  -4.613  -1.039  0.00  0.00    -0.153 OA
ENDROOT
BRANCH   1   8
ATOM      4  C   UNL     1       1.637   1.085  -0.315  0.00  0.00    +0.044 C 
ATOM      5  C   UNL     1       0.992  -0.271  -0.185  0.00  0.00    -0.044 A 
ATOM      6  C   UNL     1       0.623  -0.744   1.060  0.00  0.00    -0.043 A 
ATOM      7  C   UNL     1       0.030  -1.987   1.179  0.00  0.00    -0.021 A 
ATOM      8  C   UNL     1      -0.194  -2.757   0.053  0.00  0.00    +0.112 A 
ATOM      9  C   UNL     1       0.174  -2.283  -1.192  0.00  0.00    -0.021 A 
ATOM     10  C   UNL     1       0.763  -1.038  -1.312  0.00  0.00    -0.043 A 
ATOM     11  C   UNL     1       1.159  -0.519  -2.670  0.00  0.00    +0.044 C 
ATOM     12  C   UNL     1      -0.070  -3.122  -2.420  0.00  0.00    +0.046 C 
ATOM     13  C   UNL     1      -0.371  -2.504   2.537  0.00  0.00    +0.046 C 
ATOM     14  C   UNL     1       0.867   0.095   2.288  0.00  0.00    +0.044 C 
ENDBRANCH   1   8
BRANCH   1  15
ATOM     15  N   UNL     1       0.271  -5.450   0.369  0.00  0.00    -0.174 NA
ATOM     16  C   UNL     1       0.824  -6.134  -0.809  0.00  0.00    +0.128 C 
ATOM     17  C   UNL     1       2.340  -5.908  -0.840  0.00  0.00    +0.125 C 
ATOM     18  N   UNL     1       2.890  -6.226   0.485  0.00  0.00    -0.299 N 
ATOM     19  C   UNL     1       2.337  -5.542   1.663  0.00  0.00    +0.125 C 
ATOM     20  C   UNL     1       0.825  -5.764   1.694  0.00  0.00    +0.128 C 
ATOM     21  C   UNL     1       3.882  -7.128   0.618  0.00  0.00    +0.219 C 
ATOM     22  O   UNL     1       4.330  -7.686  -0.361  0.00  0.00    -0.275 OA
BRANCH  21  23
ATOM     23  C   UNL     1       4.436  -7.444   1.984  0.00  0.00    +0.078 C 
ATOM     24  C   UNL     1       4.153  -8.834   2.557  0.00  0.00    +0.017 C 
ATOM     25  C   UNL     1       5.560  -8.478   2.069  0.00  0.00    -0.002 C 
ATOM     26  C   UNL     1       6.036  -9.113   0.761  0.00  0.00    +0.008 C 
ENDBRANCH  21  23
ENDBRANCH   1  15
TORSDOF 3
