REMARK  Name = ZINC08771706
REMARK  6 active torsions:
REMARK  status: ('A' for Active; 'I' for Inactive)
REMARK    1  A    between atoms: C_1  and  N_52
REMARK    2  A    between atoms: C_9  and  O_29
REMARK    3  A    between atoms: C_11  and  C_14
REMARK    4  A    between atoms: C_17  and  O_20
REMARK    5  A    between atoms: O_20  and  C_21
REMARK    6  A    between atoms: C_21  and  C_22
REMARK                            x       y       z     vdW  Elec       q    Type
REMARK                         _______ _______ _______ _____ _____    ______ ____
ROOT
ATOM      1  C   UNL     1      -3.995   8.522  -0.742  0.00  0.00    -0.096 C 
ATOM      2  C   UNL     1      -2.763   7.040   0.725  0.00  0.00    -0.074 C 
ATOM      3  C   UNL     1      -2.652   5.579   1.169  0.00  0.00    +0.018 C 
ATOM      4  C   UNL     1      -2.180   4.754  -0.023  0.00  0.00    -0.027 A 
ATOM      5  C   UNL     1      -2.284   5.258  -1.276  0.00  0.00    -0.021 A 
ATOM      6  S   UNL     1      -1.636   3.989  -2.331  0.00  0.00    -0.080 S 
ATOM      7  C   UNL     1      -1.244   2.826  -1.138  0.00  0.00    +0.080 A 
ATOM      8  C   UNL     1      -1.606   3.426   0.076  0.00  0.00    +0.067 A 
ATOM      9  C   UNL     1      -1.379   2.640   1.316  0.00  0.00    +0.220 C 
ATOM     10  N   UNL     1      -0.675   1.546   1.222  0.00  0.00    -0.223 NA
ATOM     11  C   UNL     1      -0.013   1.086   0.008  0.00  0.00    +0.224 C 
ATOM     12  N   UNL     1      -0.706   1.564  -1.202  0.00  0.00    -0.313 N 
ATOM     13  C   UNL     1      -2.835   6.596  -1.655  0.00  0.00    -0.036 C 
ATOM     14  H   UNL     1      -0.777   1.019  -2.001  0.00  0.00    +0.149 HD
ATOM     15  N   UNL     1      -3.594   7.120  -0.494  0.00  0.00    +0.381 N 
ATOM     16  H   UNL     1      -4.438   6.550  -0.361  0.00  0.00    -0.082 HD
ENDROOT
BRANCH  11  17
ATOM     17  C   UNL     1       1.405   1.597  -0.003  0.00  0.00    -0.005 A 
ATOM     18  C   UNL     1       2.045   1.832  -1.206  0.00  0.00    +0.011 A 
ATOM     19  C   UNL     1       3.342   2.305  -1.218  0.00  0.00    +0.046 A 
ATOM     20  C   UNL     1       4.008   2.534  -0.023  0.00  0.00    +0.121 A 
ATOM     21  C   UNL     1       3.365   2.292   1.183  0.00  0.00    +0.046 A 
ATOM     22  C   UNL     1       2.066   1.824   1.190  0.00  0.00    +0.011 A 
BRANCH  20  23
ATOM     23  O   UNL     1       5.287   2.994  -0.032  0.00  0.00    -0.487 OA
BRANCH  23  24
ATOM     24  C   UNL     1       5.885   3.221  -1.310  0.00  0.00    +0.266 C 
BRANCH  24  25
ATOM     25  C   UNL     1       7.292   3.725  -1.123  0.00  0.00    +0.008 A 
ATOM     26  C   UNL     1       7.802   3.897   0.150  0.00  0.00    +0.008 A 
ATOM     27  C   UNL     1       9.093   4.360   0.322  0.00  0.00    +0.000 A 
ATOM     28  C   UNL     1       9.876   4.651  -0.780  0.00  0.00    +0.001 A 
ATOM     29  C   UNL     1       9.367   4.479  -2.054  0.00  0.00    +0.020 A 
ATOM     30  C   UNL     1       8.077   4.011  -2.226  0.00  0.00    +0.047 A 
ATOM     31 CL   UNL     1       7.440   3.789  -3.826  0.00  0.00    -0.083 Cl
ENDBRANCH  24  25
ENDBRANCH  23  24
ENDBRANCH  20  23
ENDBRANCH  11  17
BRANCH   9  32
ATOM     32  O   UNL     1      -1.887   3.045   2.503  0.00  0.00    -0.492 OA
ATOM     33  H   UNL     1      -1.678   2.457   3.241  0.00  0.00    +0.294 HD
ENDBRANCH   9  32
TORSDOF 5
