REMARK  Name = ZINC66122013
REMARK  6 active torsions:
REMARK  status: ('A' for Active; 'I' for Inactive)
REMARK    1  A    between atoms: C_6  and  C_7
REMARK    2  A    between atoms: C_7  and  C_10
REMARK    3  A    between atoms: C_10  and  N_11
REMARK    4  A    between atoms: C_18  and  C_21
REMARK    5  A    between atoms: C_21  and  C_22
REMARK    6  A    between atoms: C_22  and  C_23
REMARK                            x       y       z     vdW  Elec       q    Type
REMARK                         _______ _______ _______ _____ _____    ______ ____
ROOT
ATOM      1  N   UNL     1       0.165  -2.639  -0.602  0.00  0.00    -0.298 N 
ATOM      2  C   UNL     1       0.537  -3.734  -1.294  0.00  0.00    +0.302 C 
ATOM      3  O   UNL     1      -0.262  -4.299  -2.014  0.00  0.00    -0.253 OA
ATOM      4  N   UNL     1       1.797  -4.202  -1.187  0.00  0.00    -0.285 N 
ATOM      5  C   UNL     1       2.739  -3.604  -0.231  0.00  0.00    +0.109 C 
ATOM      6  C   UNL     1       4.014  -3.204  -0.981  0.00  0.00    +0.019 C 
ATOM      7  C   UNL     1       4.564  -4.420  -1.729  0.00  0.00    +0.006 C 
ATOM      8  C   UNL     1       3.533  -4.901  -2.753  0.00  0.00    +0.007 C 
ATOM      9  C   UNL     1       2.251  -5.324  -2.019  0.00  0.00    +0.112 C 
ATOM     10  H   UNL     1       0.778  -2.233   0.031  0.00  0.00    +0.150 HD
ENDROOT
BRANCH   1  11
ATOM     11  C   UNL     1      -1.166  -2.062  -0.805  0.00  0.00    +0.117 C 
BRANCH  11  12
ATOM     12  C   UNL     1      -1.290  -0.767   0.001  0.00  0.00    +0.011 C 
ATOM     13  C   UNL     1      -2.363   0.234  -0.429  0.00  0.00    +0.014 C 
ATOM     14  C   UNL     1      -0.886   0.537  -0.690  0.00  0.00    +0.014 C 
BRANCH  12  20
ATOM     15  C   UNL     1      -0.292   0.100   2.125  0.00  0.00    +0.008 A 
ATOM     16  C   UNL     1      -0.028  -0.009   3.478  0.00  0.00    +0.050 A 
ATOM     17  C   UNL     1      -0.476  -1.111   4.186  0.00  0.00    +0.166 A 
ATOM     18  C   UNL     1      -1.194  -2.109   3.531  0.00  0.00    +0.167 A 
ATOM     19  C   UNL     1      -1.455  -1.994   2.176  0.00  0.00    +0.053 A 
ATOM     20  C   UNL     1      -1.004  -0.890   1.476  0.00  0.00    -0.036 A 
ATOM     21  O   UNL     1      -1.520  -3.078   4.436  0.00  0.00    -0.453 OA
ATOM     22  C   UNL     1      -0.646  -2.863   5.560  0.00  0.00    +0.466 C 
ATOM     23  O   UNL     1      -0.352  -1.455   5.501  0.00  0.00    -0.453 OA
ENDBRANCH  12  20
ENDBRANCH  11  12
ENDBRANCH   1  11
BRANCH   8  24
ATOM     24  C   UNL     1       4.097  -6.096  -3.523  0.00  0.00    +0.014 C 
BRANCH  24  25
ATOM     25  C   UNL     1       3.119  -6.498  -4.629  0.00  0.00    +0.096 C 
BRANCH  25  26
ATOM     26  C   UNL     1       3.675  -7.675  -5.388  0.00  0.00    +0.210 C 
ATOM     27  O   UNL     1       4.748  -8.146  -5.076  0.00  0.00    -0.276 OA
ATOM     28  N   UNL     1       2.980  -8.204  -6.414  0.00  0.00    -0.329 N 
ATOM     29  H   UNL     1       2.122  -7.827  -6.664  0.00  0.00    +0.145 HD
ATOM     30  H   UNL     1       3.338  -8.962  -6.903  0.00  0.00    +0.145 HD
ENDBRANCH  25  26
ENDBRANCH  24  25
ENDBRANCH   8  24
TORSDOF 6
