REMARK  Name = ZINC38205077
REMARK  11 active torsions:
REMARK  status: ('A' for Active; 'I' for Inactive)
REMARK    1  A    between atoms: C_1  and  C_2
REMARK    2  A    between atoms: C_2  and  C_31
REMARK    3  A    between atoms: C_5  and  C_27
REMARK    4  A    between atoms: C_6  and  N_13
REMARK    5  A    between atoms: C_9  and  C_11
REMARK    6  A    between atoms: C_9  and  C_12
REMARK    7  A    between atoms: C_14  and  C_16
REMARK    8  A    between atoms: C_17  and  C_18
REMARK    9  A    between atoms: C_21  and  N_24
REMARK   10  A    between atoms: C_27  and  O_29
REMARK   11  A    between atoms: O_29  and  C_30
REMARK                            x       y       z     vdW  Elec       q    Type
REMARK                         _______ _______ _______ _____ _____    ______ ____
ROOT
ATOM      1  C   UNL     1      -0.019   1.526   0.010  0.00  0.00    -0.010 C 
ATOM      2  C   UNL     1       0.002  -0.004   0.002  0.00  0.00    -0.069 C 
ATOM      3  C   UNL     1      -1.434  -0.533  -0.097  0.00  0.00    +0.024 C 
ATOM      4  C   UNL     1      -2.143  -0.139   1.190  0.00  0.00    -0.024 A 
ATOM      5  C   UNL     1      -3.549   0.155   1.353  0.00  0.00    +0.091 A 
ATOM      6  C   UNL     1      -3.975   0.500   2.631  0.00  0.00    +0.086 A 
ATOM      7  S   UNL     1      -2.578   0.437   3.561  0.00  0.00    -0.079 S 
ATOM      8  C   UNL     1      -1.413  -0.055   2.326  0.00  0.00    -0.016 A 
ATOM      9  C   UNL     1       0.046  -0.336   2.463  0.00  0.00    -0.041 C 
ATOM     10  N   UNL     1       0.700  -0.526   1.169  0.00  0.00    +0.389 N 
ATOM     11  C   UNL     1       0.718   0.809   3.233  0.00  0.00    -0.005 C 
ATOM     12  C   UNL     1       0.213  -1.624   3.293  0.00  0.00    -0.005 C 
ATOM     13  C   UNL     1       0.760  -0.459  -1.260  0.00  0.00    -0.010 C 
ATOM     14  H   UNL     1       0.860  -1.526   1.031  0.00  0.00    -0.084 HD
ATOM     15  H   UNL     1       1.628  -0.102   1.208  0.00  0.00    -0.084 HD
ENDROOT
BRANCH   6  16
ATOM     16  N   UNL     1      -5.258   0.821   3.040  0.00  0.00    -0.276 N 
ATOM     17  C   UNL     1      -5.495   1.134   4.329  0.00  0.00    +0.241 C 
ATOM     18  O   UNL     1      -4.582   1.134   5.134  0.00  0.00    -0.270 OA
ATOM     19  H   UNL     1      -5.986   0.821   2.399  0.00  0.00    +0.156 HD
BRANCH  17  20
ATOM     20  C   UNL     1      -6.851   1.474   4.762  0.00  0.00    +0.068 C 
ATOM     21  C   UNL     1      -7.089   1.787   6.052  0.00  0.00    +0.013 C 
BRANCH  21  22
ATOM     22  C   UNL     1      -8.453   2.129   6.487  0.00  0.00    -0.025 A 
ATOM     23  C   UNL     1      -9.506   2.124   5.567  0.00  0.00    +0.010 A 
ATOM     24  C   UNL     1     -10.781   2.445   5.983  0.00  0.00    +0.033 A 
ATOM     25  C   UNL     1     -11.020   2.771   7.306  0.00  0.00    +0.126 A 
ATOM     26  C   UNL     1      -9.983   2.778   8.223  0.00  0.00    +0.033 A 
ATOM     27  C   UNL     1      -8.703   2.454   7.824  0.00  0.00    +0.010 A 
BRANCH  25  28
ATOM     28  N   UNL     1     -12.391   3.115   7.744  0.00  0.00    +0.056 N 
ATOM     29  O   UNL     1     -13.300   3.111   6.946  0.00  0.00    -0.126 OA
ATOM     30  O   UNL     1     -12.604   3.401   8.899  0.00  0.00    -0.126 OA
ENDBRANCH  25  28
ENDBRANCH  21  22
ENDBRANCH  17  20
ENDBRANCH   6  16
BRANCH   5  31
ATOM     31  C   UNL     1      -4.491   0.091   0.234  0.00  0.00    +0.342 C 
ATOM     32  O   UNL     1      -5.070  -0.949  -0.016  0.00  0.00    -0.245 OA
BRANCH  31  33
ATOM     33  O   UNL     1      -4.718   1.187  -0.520  0.00  0.00    -0.464 OA
ATOM     34  C   UNL     1      -5.649   1.053  -1.595  0.00  0.00    +0.280 C 
ENDBRANCH  31  33
ENDBRANCH   5  31
TORSDOF 6
