REMARK  Name = ZINC34757407
REMARK  6 active torsions:
REMARK  status: ('A' for Active; 'I' for Inactive)
REMARK    1  A    between atoms: C_4  and  C_7
REMARK    2  A    between atoms: C_7  and  S_8
REMARK    3  A    between atoms: S_8  and  C_9
REMARK    4  A    between atoms: N_24  and  C_27
REMARK    5  A    between atoms: C_27  and  C_28
REMARK    6  A    between atoms: N_30  and  C_31
REMARK                            x       y       z     vdW  Elec       q    Type
REMARK                         _______ _______ _______ _____ _____    ______ ____
ROOT
ATOM      1  C   UNL     1       7.340  -1.399   0.725  0.00  0.00    +0.191 A 
ATOM      2  N   UNL     1       7.960  -1.794   1.831  0.00  0.00    -0.206 NA
ATOM      3  C   UNL     1       7.608  -2.892   2.480  0.00  0.00    +0.134 A 
ATOM      4  C   UNL     1       6.532  -3.676   1.981  0.00  0.00    +0.051 A 
ATOM      5  C   UNL     1       5.976  -4.923   2.535  0.00  0.00    -0.025 A 
ATOM      6  C   UNL     1       4.950  -5.478   1.871  0.00  0.00    -0.004 A 
ATOM      7  S   UNL     1       4.656  -4.398   0.489  0.00  0.00    -0.073 S 
ATOM      8  C   UNL     1       5.921  -3.200   0.808  0.00  0.00    +0.115 A 
ATOM      9  N   UNL     1       6.327  -2.090   0.219  0.00  0.00    -0.215 NA
ATOM     10  C   UNL     1       4.469  -6.745   2.525  0.00  0.00    +0.043 C 
ATOM     11  C   UNL     1       5.619  -7.155   3.470  0.00  0.00    +0.010 C 
ATOM     12  C   UNL     1       6.290  -5.796   3.753  0.00  0.00    +0.037 C 
ATOM     13  N   UNL     1       8.278  -3.271   3.629  0.00  0.00    -0.318 N 
ATOM     14  C   UNL     1       9.506  -4.078   3.557  0.00  0.00    +0.088 C 
ATOM     15  C   UNL     1      10.584  -3.400   4.409  0.00  0.00    -0.059 C 
ATOM     16  N   UNL     1      10.073  -3.194   5.770  0.00  0.00    +0.387 N 
ATOM     17  C   UNL     1       8.942  -2.258   5.744  0.00  0.00    -0.059 C 
ATOM     18  C   UNL     1       7.786  -2.875   4.957  0.00  0.00    +0.088 C 
ATOM     19  H   UNL     1       9.768  -4.078   6.150  0.00  0.00    -0.081 HD
ENDROOT
BRANCH   1  20
ATOM     20  S   UNL     1       7.868   0.075  -0.082  0.00  0.00    -0.081 S 
BRANCH  20  21
ATOM     21  C   UNL     1       6.755   0.219  -1.507  0.00  0.00    +0.112 C 
BRANCH  21  25
ATOM     22  C   UNL     1       7.740   3.725  -3.738  0.00  0.00    +0.000 A 
ATOM     23  C   UNL     1       8.348   2.521  -4.040  0.00  0.00    +0.000 A 
ATOM     24  C   UNL     1       8.029   1.386  -3.317  0.00  0.00    +0.004 A 
ATOM     25  C   UNL     1       7.103   1.456  -2.293  0.00  0.00    -0.037 A 
ATOM     26  C   UNL     1       6.496   2.661  -1.992  0.00  0.00    +0.004 A 
ATOM     27  C   UNL     1       6.813   3.795  -2.715  0.00  0.00    +0.000 A 
ENDBRANCH  21  25
ENDBRANCH  20  21
ENDBRANCH   1  20
BRANCH  16  28
ATOM     28  C   UNL     1      11.142  -2.645   6.615  0.00  0.00    +0.019 C 
BRANCH  28  29
ATOM     29  C   UNL     1      10.657  -2.549   8.039  0.00  0.00    +0.197 C 
ATOM     30  O   UNL     1       9.532  -2.903   8.322  0.00  0.00    -0.278 OA
ATOM     31  N   UNL     1      11.474  -2.069   8.998  0.00  0.00    -0.314 N 
ATOM     32  H   UNL     1      12.374  -1.786   8.771  0.00  0.00    +0.149 HD
BRANCH  31  33
ATOM     33  C   UNL     1      11.003  -1.976  10.382  0.00  0.00    +0.073 C 
ATOM     34  C   UNL     1      10.246  -0.661  10.575  0.00  0.00    +0.022 C 
ATOM     35  C   UNL     1       9.754  -0.563  12.020  0.00  0.00    +0.002 C 
ATOM     36  C   UNL     1      10.952  -0.606  12.971  0.00  0.00    +0.000 C 
ATOM     37  C   UNL     1      11.710  -1.921  12.777  0.00  0.00    +0.002 C 
ATOM     38  C   UNL     1      12.201  -2.018  11.332  0.00  0.00    +0.022 C 
ENDBRANCH  31  33
ENDBRANCH  28  29
ENDBRANCH  16  28
TORSDOF 6
