REMARK  Name = ZINC05461795
REMARK  10 active torsions:
REMARK  status: ('A' for Active; 'I' for Inactive)
REMARK    1  A    between atoms: C_1  and  C_2
REMARK    2  A    between atoms: C_2  and  O_3
REMARK    3  A    between atoms: O_3  and  C_4
REMARK    4  A    between atoms: C_7  and  C_12
REMARK    5  A    between atoms: C_9  and  O_10
REMARK    6  A    between atoms: O_10  and  C_11
REMARK    7  A    between atoms: C_19  and  N_31
REMARK    8  A    between atoms: C_20  and  C_29
REMARK    9  A    between atoms: C_21  and  C_23
REMARK   10  A    between atoms: C_26  and  C_28
REMARK                            x       y       z     vdW  Elec       q    Type
REMARK                         _______ _______ _______ _____ _____    ______ ____
ROOT
ATOM      1  C   UNL     1       0.951  -6.483  -1.891  0.00  0.00    +0.100 A 
ATOM      2  C   UNL     1       1.335  -7.210  -0.761  0.00  0.00    +0.055 A 
ATOM      3  C   UNL     1       1.446  -8.522  -1.120  0.00  0.00    +0.223 A 
ATOM      4  N   UNL     1       1.141  -8.616  -2.431  0.00  0.00    -0.246 N 
ATOM      5  H   UNL     1       1.135  -9.430  -2.959  0.00  0.00    +0.192 HD
ATOM      6  N   UNL     1       0.829  -7.329  -2.897  0.00  0.00    -0.171 NA
ATOM      7  O   UNL     1       1.807  -9.493  -0.245  0.00  0.00    -0.423 OA
ATOM      8  C   UNL     1       2.326  -9.107   0.938  0.00  0.00    +0.200 C 
ATOM      9  C   UNL     1       2.266  -7.840   1.407  0.00  0.00    +0.099 C 
ATOM     10  C   UNL     1       1.599  -6.725   0.641  0.00  0.00    +0.108 C 
ENDROOT
BRANCH   1  14
ATOM     11  C   UNL     1       0.285  -2.281  -2.055  0.00  0.00    +0.162 A 
ATOM     12  C   UNL     1       1.366  -2.785  -1.347  0.00  0.00    +0.050 A 
ATOM     13  C   UNL     1       1.583  -4.147  -1.292  0.00  0.00    +0.014 A 
ATOM     14  C   UNL     1       0.717  -5.018  -1.949  0.00  0.00    +0.006 A 
ATOM     15  C   UNL     1      -0.369  -4.513  -2.661  0.00  0.00    +0.059 A 
ATOM     16  C   UNL     1      -0.587  -3.148  -2.708  0.00  0.00    +0.162 A 
BRANCH  16  17
ATOM     17  O   UNL     1      -1.649  -2.652  -3.398  0.00  0.00    -0.491 OA
ATOM     18  C   UNL     1      -2.502  -3.599  -4.044  0.00  0.00    +0.277 C 
ENDBRANCH  16  17
BRANCH  11  19
ATOM     19  O   UNL     1       0.074  -0.939  -2.106  0.00  0.00    -0.489 OA
BRANCH  19  21
ATOM     20  C   UNL     1       0.609   1.359  -1.584  0.00  0.00    +0.048 C 
ATOM     21  C   UNL     1       1.008  -0.108  -1.413  0.00  0.00    +0.226 C 
ENDBRANCH  19  21
ENDBRANCH  11  19
ENDBRANCH   1  14
BRANCH  10  22
ATOM     22  C   UNL     1       0.298  -6.358   1.306  0.00  0.00    +0.003 A 
ATOM     23  C   UNL     1      -0.059  -5.192   1.899  0.00  0.00    +0.012 A 
ATOM     24  C   UNL     1      -1.321  -5.079   2.450  0.00  0.00    +0.011 A 
ATOM     25  C   UNL     1      -2.165  -6.137   2.382  0.00  0.00    -0.013 A 
ATOM     26  S   UNL     1      -1.177  -7.343   1.512  0.00  0.00    -0.097 S 
ATOM     27  C   UNL     1      -3.575  -6.262   2.901  0.00  0.00    +0.051 C 
ENDBRANCH  10  22
BRANCH   8  28
ATOM     28  N   UNL     1       2.950 -10.054   1.711  0.00  0.00    -0.328 N 
ATOM     29  H   UNL     1       3.008 -10.971   1.401  0.00  0.00    +0.145 HD
ATOM     30  H   UNL     1       3.333  -9.806   2.567  0.00  0.00    +0.145 HD
ENDBRANCH   8  28
BRANCH   9  31
ATOM     31  C   UNL     1       2.857  -7.547   2.678  0.00  0.00    +0.101 C 
ATOM     32  N   UNL     1       3.326  -7.314   3.686  0.00  0.00    -0.191 NA
ENDBRANCH   9  31
TORSDOF 7
