REMARK  Name = ZINC32529139
REMARK  10 active torsions:
REMARK  status: ('A' for Active; 'I' for Inactive)
REMARK    1  A    between atoms: C_1  and  C_2
REMARK    2  A    between atoms: C_9  and  S_13
REMARK    3  A    between atoms: C_11  and  C_12
REMARK    4  A    between atoms: S_13  and  C_14
REMARK    5  A    between atoms: C_14  and  C_15
REMARK    6  A    between atoms: C_15  and  C_16
REMARK    7  A    between atoms: N_18  and  C_19
REMARK    8  A    between atoms: C_20  and  C_26
REMARK    9  A    between atoms: C_21  and  C_25
REMARK   10  A    between atoms: C_22  and  C_24
REMARK                            x       y       z     vdW  Elec       q    Type
REMARK                         _______ _______ _______ _____ _____    ______ ____
ROOT
ATOM      1  C   UNL     1      -6.250   2.108   0.073  0.00  0.00    +0.218 C 
ATOM      2  O   UNL     1      -5.800   0.982   0.063  0.00  0.00    -0.275 OA
ATOM      3  N   UNL     1      -7.584   2.300   0.087  0.00  0.00    -0.279 N 
ATOM      4  H   UNL     1      -7.992   3.322   0.096  0.00  0.00    +0.155 HD
ENDROOT
BRANCH   3   5
ATOM      5  C   UNL     1      -8.441   1.211   0.089  0.00  0.00    +0.084 A 
ATOM      6  C   UNL     1      -9.831   1.206   0.103  0.00  0.00    +0.068 A 
ATOM      7  C   UNL     1     -10.476  -0.086   0.102  0.00  0.00    -0.027 A 
ATOM      8  C   UNL     1      -9.679  -1.170   0.089  0.00  0.00    -0.008 A 
ATOM      9  S   UNL     1      -8.040  -0.474   0.069  0.00  0.00    -0.078 S 
ATOM     10  C   UNL     1     -10.078  -2.623   0.084  0.00  0.00    +0.052 C 
ATOM     11  C   UNL     1     -11.977  -0.214   0.116  0.00  0.00    +0.045 C 
BRANCH   6  12
ATOM     12  C   UNL     1     -10.605   2.451   0.117  0.00  0.00    +0.244 C 
ATOM     13  O   UNL     1     -10.936   2.974  -0.931  0.00  0.00    -0.270 OA
ATOM     14  N   UNL     1     -10.949   3.017   1.291  0.00  0.00    -0.325 N 
ATOM     15  H   UNL     1     -11.529   3.952   1.302  0.00  0.00    +0.145 HD
ATOM     16  H   UNL     1     -10.649   2.545   2.238  0.00  0.00    +0.145 HD
ENDBRANCH   6  12
ENDBRANCH   3   5
BRANCH   1  17
ATOM     17  C   UNL     1      -5.318   3.293   0.071  0.00  0.00    +0.107 C 
BRANCH  17  18
ATOM     18  C   UNL     1      -3.869   2.801   0.054  0.00  0.00    +0.085 C 
BRANCH  18  19
ATOM     19  S   UNL     1      -2.750   4.224   0.051  0.00  0.00    -0.105 S 
BRANCH  19  28
ATOM     20  C   UNL     1      -1.291  -0.778   0.011  0.00  0.00    +0.046 C 
ATOM     21  C   UNL     1       0.002  -0.004   0.002  0.00  0.00    -0.024 A 
ATOM     22  C   UNL     1       1.193  -0.664  -0.013  0.00  0.00    +0.005 A 
ATOM     23  C   UNL     1       2.399   0.032  -0.021  0.00  0.00    +0.001 A 
ATOM     24  C   UNL     1       2.420   1.395  -0.013  0.00  0.00    +0.010 A 
ATOM     25  C   UNL     1       1.211   2.107   0.002  0.00  0.00    +0.004 A 
ATOM     26  C   UNL     1      -0.017   1.401   0.010  0.00  0.00    +0.075 A 
ATOM     27  N   UNL     1      -1.173   2.074   0.019  0.00  0.00    -0.240 NA
ATOM     28  C   UNL     1      -1.197   3.391   0.032  0.00  0.00    +0.098 A 
ATOM     29  C   UNL     1      -0.015   4.147   0.024  0.00  0.00    +0.038 A 
ATOM     30  C   UNL     1       1.192   3.517   0.009  0.00  0.00    -0.039 A 
ATOM     31  C   UNL     1       2.476   4.307   0.002  0.00  0.00    +0.044 C 
ENDBRANCH  19  28
ENDBRANCH  18  19
ENDBRANCH  17  18
ENDBRANCH   1  17
TORSDOF 6
