REMARK  Name = ZINC43732444
REMARK  11 active torsions:
REMARK  status: ('A' for Active; 'I' for Inactive)
REMARK    1  A    between atoms: C_1  and  C_2
REMARK    2  A    between atoms: C_2  and  C_3
REMARK    3  A    between atoms: C_2  and  O_4
REMARK    4  A    between atoms: O_4  and  C_5
REMARK    5  A    between atoms: C_8  and  C_13
REMARK    6  A    between atoms: C_10  and  O_11
REMARK    7  A    between atoms: O_11  and  C_12
REMARK    8  A    between atoms: C_17  and  C_19
REMARK    9  A    between atoms: C_19  and  C_21
REMARK   10  A    between atoms: C_25  and  O_27
REMARK   11  A    between atoms: O_27  and  C_28
REMARK                            x       y       z     vdW  Elec       q    Type
REMARK                         _______ _______ _______ _____ _____    ______ ____
ROOT
ATOM      1  C   UNL     1      -2.537  -0.895   5.720  0.00  0.00    +0.079 C 
ATOM      2  N   UNL     1      -2.077  -1.174   6.979  0.00  0.00    -0.263 N 
ATOM      3  O   UNL     1      -3.160  -1.366   7.872  0.00  0.00    -0.248 OA
ATOM      4  C   UNL     1      -4.355  -1.194   7.114  0.00  0.00    +0.229 C 
ATOM      5  C   UNL     1      -3.917  -0.880   5.709  0.00  0.00    +0.073 C 
ATOM      6  H   UNL     1      -1.140  -1.233   7.225  0.00  0.00    +0.194 HD
ATOM      7  C   UNL     1      -5.226  -2.420   7.165  0.00  0.00    +0.021 A 
ATOM      8  C   UNL     1      -5.032  -3.733   6.798  0.00  0.00    +0.009 A 
ATOM      9  C   UNL     1      -6.047  -4.657   6.972  0.00  0.00    +0.000 A 
ATOM     10  C   UNL     1      -7.256  -4.258   7.513  0.00  0.00    +0.002 A 
ATOM     11  C   UNL     1      -7.455  -2.943   7.880  0.00  0.00    +0.024 A 
ATOM     12  C   UNL     1      -6.438  -2.006   7.709  0.00  0.00    +0.040 A 
ATOM     13  N   UNL     1      -6.397  -0.640   7.996  0.00  0.00    -0.282 N 
ATOM     14  C   UNL     1      -5.211  -0.089   7.676  0.00  0.00    +0.261 C 
ATOM     15  O   UNL     1      -4.893   1.073   7.814  0.00  0.00    -0.271 OA
ATOM     16  H   UNL     1      -7.137  -0.146   8.382  0.00  0.00    +0.155 HD
ENDROOT
BRANCH   1  20
ATOM     17  C   UNL     1      -0.077  -0.164   2.334  0.00  0.00    +0.162 A 
ATOM     18  C   UNL     1      -1.143  -1.049   2.239  0.00  0.00    +0.050 A 
ATOM     19  C   UNL     1      -1.943  -1.288   3.335  0.00  0.00    +0.014 A 
ATOM     20  C   UNL     1      -1.682  -0.640   4.546  0.00  0.00    +0.004 A 
ATOM     21  C   UNL     1      -0.608   0.250   4.641  0.00  0.00    +0.059 A 
ATOM     22  C   UNL     1       0.193   0.481   3.540  0.00  0.00    +0.162 A 
BRANCH  22  23
ATOM     23  O   UNL     1       1.241   1.343   3.630  0.00  0.00    -0.491 OA
ATOM     24  C   UNL     1       1.459   1.968   4.896  0.00  0.00    +0.277 C 
ENDBRANCH  22  23
BRANCH  17  25
ATOM     25  O   UNL     1       0.708   0.069   1.250  0.00  0.00    -0.486 OA
BRANCH  25  27
ATOM     26  C   UNL     1      -0.676   0.086  -0.731  0.00  0.00    +0.051 C 
ATOM     27  C   UNL     1       0.402  -0.658   0.059  0.00  0.00    +0.167 C 
ATOM     28  C   UNL     1       1.663  -0.787  -0.798  0.00  0.00    +0.051 C 
ENDBRANCH  25  27
ENDBRANCH  17  25
ENDBRANCH   1  20
BRANCH   5  29
ATOM     29  C   UNL     1      -4.747  -0.626   4.605  0.00  0.00    +0.195 C 
ATOM     30  O   UNL     1      -5.339  -1.545   4.063  0.00  0.00    -0.287 OA
BRANCH  29  31
ATOM     31  C   UNL     1      -4.905   0.756   4.099  0.00  0.00    +0.026 A 
ATOM     32  C   UNL     1      -4.149   1.793   4.648  0.00  0.00    +0.012 A 
ATOM     33  C   UNL     1      -4.297   3.080   4.175  0.00  0.00    +0.004 A 
ATOM     34  C   UNL     1      -5.194   3.348   3.156  0.00  0.00    +0.045 A 
ATOM     35  C   UNL     1      -5.950   2.323   2.604  0.00  0.00    +0.121 A 
ATOM     36  C   UNL     1      -5.804   1.026   3.068  0.00  0.00    +0.057 A 
BRANCH  35  37
ATOM     37  O   UNL     1      -6.830   2.591   1.604  0.00  0.00    -0.495 OA
ATOM     38  C   UNL     1      -6.925   3.950   1.170  0.00  0.00    +0.277 C 
ENDBRANCH  35  37
ENDBRANCH  29  31
ENDBRANCH   5  29
TORSDOF 7
