REMARK  Name = ZINC36984212
REMARK  12 active torsions:
REMARK  status: ('A' for Active; 'I' for Inactive)
REMARK    1  A    between atoms: C_1  and  C_2
REMARK    2  A    between atoms: C_2  and  C_4
REMARK    3  A    between atoms: C_2  and  C_18
REMARK    4  A    between atoms: C_4  and  C_5
REMARK    5  A    between atoms: N_7  and  C_8
REMARK    6  A    between atoms: C_8  and  C_9
REMARK    7  A    between atoms: C_12  and  S_14
REMARK    8  A    between atoms: S_14  and  N_17
REMARK    9  A    between atoms: C_18  and  C_19
REMARK   10  A    between atoms: C_19  and  C_20
REMARK   11  A    between atoms: C_19  and  C_21
REMARK   12  A    between atoms: C_19  and  C_22
REMARK                            x       y       z     vdW  Elec       q    Type
REMARK                         _______ _______ _______ _____ _____    ______ ____
ROOT
ATOM      1  C   UNL     1       0.948   0.029  -2.369  0.00  0.00    +0.214 C 
ATOM      2  O   UNL     1       0.040   0.833  -2.376  0.00  0.00    -0.276 OA
ATOM      3  N   UNL     1       1.471  -0.406  -3.531  0.00  0.00    -0.311 N 
ATOM      4  H   UNL     1       2.197  -1.049  -3.526  0.00  0.00    +0.149 HD
ENDROOT
BRANCH   1   5
ATOM      5  C   UNL     1       1.490  -0.483  -1.059  0.00  0.00    +0.099 C 
BRANCH   5   7
ATOM      6  C   UNL     1       0.999   1.671   0.108  0.00  0.00    +0.008 C 
ATOM      7  C   UNL     1       0.727   0.165   0.098  0.00  0.00    -0.005 C 
BRANCH   7   8
ATOM      8  C   UNL     1       1.192  -0.446   1.421  0.00  0.00    +0.010 C 
BRANCH   8   9
ATOM      9  C   UNL     1       0.116  -0.231   2.488  0.00  0.00    -0.037 C 
ATOM     10  C   UNL     1      -1.141  -1.018   2.110  0.00  0.00    +0.010 C 
ATOM     11  C   UNL     1       0.635  -0.719   3.841  0.00  0.00    +0.010 C 
ATOM     12  C   UNL     1      -0.223   1.258   2.578  0.00  0.00    +0.010 C 
ENDBRANCH   8   9
ENDBRANCH   7   8
ENDBRANCH   5   7
ENDBRANCH   1   5
BRANCH   3  13
ATOM     13  C   UNL     1       0.944   0.091  -4.804  0.00  0.00    +0.146 C 
BRANCH  13  14
ATOM     14  C   UNL     1       1.695  -0.547  -5.944  0.00  0.00    +0.009 A 
ATOM     15  C   UNL     1       1.420  -1.694  -6.612  0.00  0.00    +0.015 A 
ATOM     16  C   UNL     1       2.259  -2.090  -7.636  0.00  0.00    +0.036 A 
ATOM     17  C   UNL     1       3.332  -1.321  -7.943  0.00  0.00    +0.142 A 
ATOM     18  S   UNL     1       3.175   0.016  -6.769  0.00  0.00    -0.072 S 
BRANCH  17  19
ATOM     19  S   UNL     1       4.559  -1.571  -9.182  0.00  0.00    +0.062 S 
ATOM     20  O   UNL     1       5.714  -0.858  -8.760  0.00  0.00    -0.153 OA
ATOM     21  O   UNL     1       4.582  -2.965  -9.455  0.00  0.00    -0.153 OA
BRANCH  19  22
ATOM     22  N   UNL     1       4.022  -0.827 -10.561  0.00  0.00    -0.203 NA
ATOM     23  H   UNL     1       3.167  -0.368 -10.562  0.00  0.00    +0.144 HD
ATOM     24  H   UNL     1       4.561  -0.851 -11.366  0.00  0.00    +0.144 HD
ENDBRANCH  19  22
ENDBRANCH  17  19
ENDBRANCH  13  14
ENDBRANCH   3  13
TORSDOF 8
