REMARK  Name = ZINC59507615
REMARK  10 active torsions:
REMARK  status: ('A' for Active; 'I' for Inactive)
REMARK    1  A    between atoms: C_4  and  C_7
REMARK    2  A    between atoms: C_7  and  C_23
REMARK    3  A    between atoms: N_8  and  N_9
REMARK    4  A    between atoms: C_10  and  C_12
REMARK    5  A    between atoms: C_12  and  C_13
REMARK    6  A    between atoms: C_13  and  C_14
REMARK    7  A    between atoms: C_14  and  N_15
REMARK    8  A    between atoms: N_15  and  C_16
REMARK    9  A    between atoms: C_24  and  C_25
REMARK   10  A    between atoms: C_28  and  N_31
REMARK                            x       y       z     vdW  Elec       q    Type
REMARK                         _______ _______ _______ _____ _____    ______ ____
ROOT
ATOM      1  C   UNL     1       3.835  -0.693  -0.120  0.00  0.00    +0.089 C 
ATOM      2  N   UNL     1       5.064  -0.113  -0.119  0.00  0.00    -0.180 NA
ENDROOT
BRANCH   1   6
ATOM      3  C   UNL     1       0.419   1.573  -1.221  0.00  0.00    +0.000 A 
ATOM      4  C   UNL     1       1.671   2.168  -1.222  0.00  0.00    +0.001 A 
ATOM      5  C   UNL     1       2.784   1.440  -0.866  0.00  0.00    +0.010 A 
ATOM      6  C   UNL     1       2.649   0.093  -0.502  0.00  0.00    +0.002 A 
ATOM      7  C   UNL     1       1.380  -0.501  -0.504  0.00  0.00    +0.010 A 
ATOM      8  C   UNL     1       0.277   0.242  -0.863  0.00  0.00    +0.001 A 
ENDBRANCH   1   6
BRANCH   2   9
ATOM      9  N   UNL     1       6.117  -0.834   0.066  0.00  0.00    -0.206 N 
ATOM     10  C   UNL     1       7.325  -0.247   0.177  0.00  0.00    +0.232 C 
ATOM     11  O   UNL     1       7.421   0.955   0.104  0.00  0.00    -0.274 OA
ATOM     12  H   UNL     1       6.040  -1.799   0.125  0.00  0.00    +0.177 HD
BRANCH  10  13
ATOM     13  C   UNL     1       8.556  -1.089   0.394  0.00  0.00    +0.099 C 
BRANCH  13  14
ATOM     14  C   UNL     1       9.785  -0.183   0.485  0.00  0.00    +0.028 C 
BRANCH  14  15
ATOM     15  C   UNL     1      11.034  -1.038   0.705  0.00  0.00    +0.102 C 
BRANCH  15  16
ATOM     16  N   UNL     1      12.211  -0.170   0.792  0.00  0.00    -0.344 N 
ATOM     17  H   UNL     1      12.112   0.792   0.711  0.00  0.00    +0.146 HD
BRANCH  16  18
ATOM     18  C   UNL     1      13.477  -0.727   0.993  0.00  0.00    +0.027 A 
ATOM     19  C   UNL     1      13.622  -2.104   1.103  0.00  0.00    +0.024 A 
ATOM     20  C   UNL     1      14.874  -2.652   1.301  0.00  0.00    +0.017 A 
ATOM     21  C   UNL     1      15.984  -1.830   1.390  0.00  0.00    +0.018 A 
ATOM     22  C   UNL     1      15.843  -0.458   1.280  0.00  0.00    +0.017 A 
ATOM     23  C   UNL     1      14.594   0.095   1.076  0.00  0.00    +0.024 A 
ATOM     24 BR   UNL     1      17.696  -2.584   1.663  0.00  0.00    -0.050 Br
ENDBRANCH  16  18
ENDBRANCH  15  16
ENDBRANCH  14  15
ENDBRANCH  13  14
ENDBRANCH  10  13
ENDBRANCH   2   9
BRANCH   1  25
ATOM     25  C   UNL     1       3.696  -2.031   0.241  0.00  0.00    +0.030 C 
ATOM     26  C   UNL     1       4.554  -2.591   1.197  0.00  0.00    +0.010 C 
BRANCH  26  27
ATOM     27  C   UNL     1       4.455  -3.961   1.517  0.00  0.00    -0.025 A 
ATOM     28  C   UNL     1       3.498  -4.774   0.873  0.00  0.00    +0.010 A 
ATOM     29  C   UNL     1       3.412  -6.099   1.191  0.00  0.00    +0.033 A 
ATOM     30  C   UNL     1       4.261  -6.647   2.143  0.00  0.00    +0.126 A 
ATOM     31  C   UNL     1       5.206  -5.857   2.784  0.00  0.00    +0.033 A 
ATOM     32  C   UNL     1       5.316  -4.531   2.478  0.00  0.00    +0.010 A 
BRANCH  30  33
ATOM     33  N   UNL     1       4.156  -8.091   2.480  0.00  0.00    +0.056 N 
ATOM     34  O   UNL     1       3.261  -8.845   1.876  0.00  0.00    -0.126 OA
ATOM     35  O   UNL     1       4.958  -8.617   3.382  0.00  0.00    -0.126 OA
ENDBRANCH  30  33
ENDBRANCH  26  27
ENDBRANCH   1  25
TORSDOF 10
