REMARK  Name = ZINC64656494
REMARK  4 active torsions:
REMARK  status: ('A' for Active; 'I' for Inactive)
REMARK    1  A    between atoms: C_1  and  C_2
REMARK    2  A    between atoms: C_7  and  C_8
REMARK    3  A    between atoms: C_18  and  S_19
REMARK    4  A    between atoms: S_19  and  C_22
REMARK                            x       y       z     vdW  Elec       q    Type
REMARK                         _______ _______ _______ _____ _____    ______ ____
ROOT
ATOM      1  C   UNL     1       0.298  -0.179   2.421  0.00  0.00    +0.067 C 
ATOM      2  C   UNL     1      -0.762  -0.758   3.368  0.00  0.00    +0.109 C 
ATOM      3  C   UNL     1      -0.476  -0.361   4.788  0.00  0.00    +0.218 C 
ATOM      4  O   UNL     1      -1.411  -0.093   5.513  0.00  0.00    -0.275 OA
ATOM      5  N   UNL     1       0.767  -0.288   5.295  0.00  0.00    -0.283 N 
ATOM      6  C   UNL     1       1.878  -0.391   4.408  0.00  0.00    +0.070 A 
ATOM      7  C   UNL     1       1.635  -0.341   3.062  0.00  0.00    +0.021 A 
ATOM      8  S   UNL     1       3.240  -0.510   2.338  0.00  0.00    -0.097 S 
ATOM      9  C   UNL     1       4.180  -0.608   3.855  0.00  0.00    +0.074 A 
ATOM     10  C   UNL     1       3.209  -0.519   4.797  0.00  0.00    +0.122 A 
ATOM     11  H   UNL     1       0.905  -0.166   6.247  0.00  0.00    +0.155 HD
ENDROOT
BRANCH   1  18
ATOM     12  C   UNL     1      -0.049   1.271  -0.054  0.00  0.00    +0.044 C 
ATOM     13  C   UNL     1       0.103  -0.228  -0.074  0.00  0.00    -0.047 A 
ATOM     14  C   UNL     1       0.082  -0.909  -1.277  0.00  0.00    +0.003 A 
ATOM     15  C   UNL     1       0.221  -2.284  -1.296  0.00  0.00    +0.000 A 
ATOM     16  C   UNL     1       0.381  -2.978  -0.111  0.00  0.00    +0.000 A 
ATOM     17  C   UNL     1       0.403  -2.298   1.092  0.00  0.00    +0.004 A 
ATOM     18  C   UNL     1       0.268  -0.922   1.110  0.00  0.00    -0.036 A 
ENDBRANCH   1  18
BRANCH  10  19
ATOM     19  S   UNL     1       3.629  -0.562   6.508  0.00  0.00    +0.027 S 
ATOM     20  O   UNL     1       5.042  -0.697   6.575  0.00  0.00    -0.164 OA
ATOM     21  O   UNL     1       2.936   0.515   7.123  0.00  0.00    -0.164 OA
BRANCH  19  22
ATOM     22  C   UNL     1       2.949  -2.044   7.174  0.00  0.00    +0.094 A 
ATOM     23  C   UNL     1       1.723  -2.016   7.812  0.00  0.00    +0.027 A 
ATOM     24  C   UNL     1       1.189  -3.179   8.335  0.00  0.00    +0.002 A 
ATOM     25  C   UNL     1       1.881  -4.370   8.220  0.00  0.00    +0.000 A 
ATOM     26  C   UNL     1       3.107  -4.399   7.580  0.00  0.00    +0.002 A 
ATOM     27  C   UNL     1       3.638  -3.236   7.054  0.00  0.00    +0.027 A 
ENDBRANCH  19  22
ENDBRANCH  10  19
TORSDOF 3
