REMARK  Name = ZINC13500511
REMARK  12 active torsions:
REMARK  status: ('A' for Active; 'I' for Inactive)
REMARK    1  A    between atoms: C_1  and  C_2
REMARK    2  A    between atoms: C_9  and  C_14
REMARK    3  A    between atoms: C_14  and  N_15
REMARK    4  A    between atoms: N_15  and  C_16
REMARK    5  A    between atoms: N_15  and  C_24
REMARK    6  A    between atoms: C_16  and  C_17
REMARK    7  A    between atoms: C_17  and  C_18
REMARK    8  A    between atoms: C_24  and  C_26
REMARK    9  A    between atoms: C_24  and  C_37
REMARK   10  A    between atoms: N_30  and  C_31
REMARK   11  A    between atoms: C_37  and  C_38
REMARK   12  A    between atoms: C_37  and  C_39
REMARK                            x       y       z     vdW  Elec       q    Type
REMARK                         _______ _______ _______ _____ _____    ______ ____
ROOT
ATOM      1  N   UNL     1      -2.655   1.603   1.489  0.00  0.00    -0.288 NA
ENDROOT
BRANCH   1   2
ATOM      2  C   UNL     1      -2.532   0.158   1.724  0.00  0.00    +0.125 C 
BRANCH   2  11
ATOM      3  C   UNL     1      -4.476  -1.308   8.774  0.00  0.00    +0.044 C 
ATOM      4  C   UNL     1      -3.424  -1.034   7.730  0.00  0.00    -0.050 A 
ATOM      5  C   UNL     1      -2.084  -1.003   8.096  0.00  0.00    +0.005 A 
ATOM      6  C   UNL     1      -1.105  -0.755   7.158  0.00  0.00    +0.026 A 
ATOM      7  C   UNL     1      -1.460  -0.532   5.832  0.00  0.00    +0.049 A 
ATOM      8  C   UNL     1      -2.819  -0.564   5.465  0.00  0.00    -0.001 A 
ATOM      9  C   UNL     1      -3.796  -0.819   6.434  0.00  0.00    +0.013 A 
ATOM     10  C   UNL     1      -3.182  -0.329   4.067  0.00  0.00    +0.020 A 
ATOM     11  C   UNL     1      -2.192  -0.088   3.172  0.00  0.00    +0.031 A 
ATOM     12  C   UNL     1      -0.845  -0.072   3.590  0.00  0.00    +0.254 A 
ATOM     13  O   UNL     1       0.030   0.142   2.768  0.00  0.00    -0.268 OA
ATOM     14  N   UNL     1      -0.501  -0.281   4.873  0.00  0.00    -0.322 N 
ATOM     15  H   UNL     1       0.562  -0.251   5.154  0.00  0.00    +0.169 HD
ENDBRANCH   2  11
ENDBRANCH   1   2
BRANCH   1  16
ATOM     16  C   UNL     1      -3.440   1.874   0.277  0.00  0.00    +0.090 C 
BRANCH  16  17
ATOM     17  C   UNL     1      -4.907   1.519   0.530  0.00  0.00    +0.050 C 
BRANCH  17  18
ATOM     18  C   UNL     1      -5.691   1.687  -0.746  0.00  0.00    -0.046 A 
ATOM     19  C   UNL     1      -6.281   2.902  -1.039  0.00  0.00    +0.003 A 
ATOM     20  C   UNL     1      -6.997   3.058  -2.212  0.00  0.00    +0.000 A 
ATOM     21  C   UNL     1      -7.131   1.995  -3.086  0.00  0.00    +0.000 A 
ATOM     22  C   UNL     1      -6.545   0.778  -2.789  0.00  0.00    +0.000 A 
ATOM     23  C   UNL     1      -5.825   0.625  -1.619  0.00  0.00    +0.003 A 
ENDBRANCH  17  18
ENDBRANCH  16  17
ENDBRANCH   1  16
BRANCH   1  24
ATOM     24  C   UNL     1      -1.332   2.237   1.412  0.00  0.00    +0.129 C 
BRANCH  24  25
ATOM     25  C   UNL     1      -1.492   3.736   1.419  0.00  0.00    +0.169 A 
ATOM     26  N   UNL     1      -2.353   4.434   0.719  0.00  0.00    -0.112 NA
ATOM     27  N   UNL     1      -2.180   5.679   1.003  0.00  0.00    -0.023 NA
ATOM     28  N   UNL     1      -1.226   5.793   1.860  0.00  0.00    -0.044 NA
ATOM     29  N   UNL     1      -0.776   4.617   2.142  0.00  0.00    -0.225 N 
BRANCH  29  30
ATOM     30  C   UNL     1       0.309   4.301   3.073  0.00  0.00    +0.111 C 
ATOM     31  C   UNL     1      -0.058   4.800   4.472  0.00  0.00    +0.027 C 
ATOM     32  C   UNL     1       1.076   4.470   5.445  0.00  0.00    +0.002 C 
ATOM     33  C   UNL     1       2.363   5.154   4.980  0.00  0.00    +0.000 C 
ATOM     34  C   UNL     1       2.730   4.654   3.581  0.00  0.00    +0.002 C 
ATOM     35  C   UNL     1       1.596   4.985   2.608  0.00  0.00    +0.027 C 
ENDBRANCH  29  30
ENDBRANCH  24  25
BRANCH  24  36
ATOM     36  C   UNL     1      -0.633   1.806   0.121  0.00  0.00    +0.008 C 
ATOM     37  C   UNL     1       0.877   1.998   0.270  0.00  0.00    +0.009 C 
ATOM     38  C   UNL     1      -1.143   2.656  -1.044  0.00  0.00    +0.009 C 
ENDBRANCH  24  36
ENDBRANCH   1  24
TORSDOF 9
