REMARK  Name = ZINC38682205
REMARK  9 active torsions:
REMARK  status: ('A' for Active; 'I' for Inactive)
REMARK    1  A    between atoms: C_1  and  S_2
REMARK    2  A    between atoms: S_2  and  C_3
REMARK    3  A    between atoms: C_6  and  C_9
REMARK    4  A    between atoms: C_14  and  O_23
REMARK    5  A    between atoms: C_18  and  N_22
REMARK    6  A    between atoms: C_19  and  C_20
REMARK    7  A    between atoms: O_23  and  C_24
REMARK    8  A    between atoms: C_24  and  C_26
REMARK    9  A    between atoms: C_27  and  C_28
REMARK                            x       y       z     vdW  Elec       q    Type
REMARK                         _______ _______ _______ _____ _____    ______ ____
ROOT
ATOM      1  C   UNL     1      -5.805  -1.498   0.086  0.00  0.00    +0.098 C 
ATOM      2  C   UNL     1      -6.106  -2.319   1.312  0.00  0.00    +0.008 A 
ATOM      3  C   UNL     1      -6.135  -1.705   2.552  0.00  0.00    +0.012 A 
ATOM      4  C   UNL     1      -6.409  -2.441   3.687  0.00  0.00    +0.047 A 
ATOM      5  C   UNL     1      -6.658  -3.803   3.587  0.00  0.00    +0.135 A 
ATOM      6  C   UNL     1      -6.630  -4.421   2.348  0.00  0.00    +0.093 A 
ATOM      7  C   UNL     1      -6.353  -3.679   1.207  0.00  0.00    +0.138 A 
ATOM      8  O   UNL     1      -6.329  -4.298   0.001  0.00  0.00    -0.441 OA
ATOM      9  C   UNL     1      -6.452  -3.577  -1.126  0.00  0.00    +0.199 C 
ATOM     10  C   UNL     1      -6.217  -2.247  -1.150  0.00  0.00    +0.098 C 
ENDROOT
BRANCH   1  14
ATOM     11  C   UNL     1      -1.611  -0.689  -0.080  0.00  0.00    +0.008 A 
ATOM     12  C   UNL     1      -2.520   0.359  -0.009  0.00  0.00    +0.015 A 
ATOM     13  C   UNL     1      -3.874   0.094   0.045  0.00  0.00    +0.005 A 
ATOM     14  C   UNL     1      -4.326  -1.213   0.028  0.00  0.00    -0.035 A 
ATOM     15  C   UNL     1      -3.424  -2.259  -0.043  0.00  0.00    +0.005 A 
ATOM     16  C   UNL     1      -2.069  -2.001  -0.103  0.00  0.00    +0.015 A 
BRANCH  11  18
ATOM     17  C   UNL     1       0.218   1.455  -0.093  0.00  0.00    +0.090 C 
ATOM     18  S   UNL     1       0.118  -0.356  -0.149  0.00  0.00    -0.129 S 
ENDBRANCH  11  18
ENDBRANCH   1  14
BRANCH   9  19
ATOM     19  N   UNL     1      -6.825  -4.210  -2.285  0.00  0.00    -0.328 N 
ATOM     20  H   UNL     1      -6.997  -5.165  -2.282  0.00  0.00    +0.145 HD
ATOM     21  H   UNL     1      -6.918  -3.703  -3.106  0.00  0.00    +0.145 HD
ENDBRANCH   9  19
BRANCH  10  22
ATOM     22  C   UNL     1      -6.364  -1.535  -2.384  0.00  0.00    +0.101 C 
ATOM     23  N   UNL     1      -6.481  -0.971  -3.363  0.00  0.00    -0.191 NA
ENDBRANCH  10  22
BRANCH   5  24
ATOM     24  O   UNL     1      -6.928  -4.530   4.704  0.00  0.00    -0.423 OA
BRANCH  24  25
ATOM     25  C   UNL     1      -8.102  -4.313   5.331  0.00  0.00    +0.337 C 
ATOM     26  O   UNL     1      -8.927  -3.566   4.839  0.00  0.00    -0.245 OA
BRANCH  25  27
ATOM     27  C   UNL     1      -8.384  -4.976   6.603  0.00  0.00    +0.092 C 
ATOM     28  C   UNL     1      -9.559  -4.760   7.231  0.00  0.00    +0.015 C 
BRANCH  28  29
ATOM     29  C   UNL     1      -9.843  -5.428   8.511  0.00  0.00    -0.025 A 
ATOM     30  C   UNL     1      -8.896  -6.283   9.083  0.00  0.00    +0.009 A 
ATOM     31  C   UNL     1      -9.168  -6.905  10.282  0.00  0.00    +0.020 A 
ATOM     32  C   UNL     1     -10.378  -6.685  10.921  0.00  0.00    +0.041 A 
ATOM     33  C   UNL     1     -11.322  -5.840  10.360  0.00  0.00    +0.020 A 
ATOM     34  C   UNL     1     -11.060  -5.206   9.165  0.00  0.00    +0.009 A 
ATOM     35 CL   UNL     1     -10.713  -7.473  12.431  0.00  0.00    -0.084 Cl
ENDBRANCH  28  29
ENDBRANCH  25  27
ENDBRANCH  24  25
ENDBRANCH   5  24
TORSDOF 8
