REMARK  Name = ZINC39725640
REMARK  9 active torsions:
REMARK  status: ('A' for Active; 'I' for Inactive)
REMARK    1  A    between atoms: C_1  and  C_2
REMARK    2  A    between atoms: C_2  and  C_3
REMARK    3  A    between atoms: C_3  and  C_4
REMARK    4  A    between atoms: C_4  and  C_5
REMARK    5  A    between atoms: C_8  and  N_11
REMARK    6  A    between atoms: C_12  and  C_14
REMARK    7  A    between atoms: C_14  and  S_15
REMARK    8  A    between atoms: S_15  and  C_16
REMARK    9  A    between atoms: N_30  and  C_31
REMARK                            x       y       z     vdW  Elec       q    Type
REMARK                         _______ _______ _______ _____ _____    ______ ____
ROOT
ATOM      1  C   UNL     1       3.485  -5.051  11.036  0.00  0.00    +0.259 C 
ATOM      2  N   UNL     1       4.401  -3.937  11.290  0.00  0.00    -0.248 NA
ATOM      3  C   UNL     1       5.678  -4.118  11.270  0.00  0.00    +0.101 C 
ATOM      4  C   UNL     1       6.861  -3.249  11.474  0.00  0.00    +0.028 A 
ATOM      5  C   UNL     1       7.036  -1.910  11.765  0.00  0.00    +0.012 A 
ATOM      6  C   UNL     1       8.316  -1.393  11.895  0.00  0.00    +0.001 A 
ATOM      7  C   UNL     1       9.418  -2.214  11.734  0.00  0.00    +0.002 A 
ATOM      8  C   UNL     1       9.261  -3.555  11.443  0.00  0.00    +0.028 A 
ATOM      9  C   UNL     1       7.978  -4.098  11.307  0.00  0.00    +0.074 A 
ATOM     10  N   UNL     1       7.554  -5.356  11.030  0.00  0.00    -0.240 NA
ATOM     11  C   UNL     1       6.255  -5.461  10.989  0.00  0.00    +0.152 C 
ATOM     12  C   UNL     1       5.345  -6.596  10.731  0.00  0.00    +0.274 C 
ATOM     13  O   UNL     1       5.792  -7.703  10.500  0.00  0.00    -0.268 OA
ATOM     14  N   UNL     1       4.012  -6.389  10.755  0.00  0.00    -0.232 N 
ENDROOT
BRANCH  14  15
ATOM     15  C   UNL     1       3.134  -7.452  10.514  0.00  0.00    +0.075 A 
ATOM     16  C   UNL     1       2.719  -7.731   9.218  0.00  0.00    +0.026 A 
ATOM     17  C   UNL     1       1.853  -8.780   8.982  0.00  0.00    +0.002 A 
ATOM     18  C   UNL     1       1.397  -9.554  10.034  0.00  0.00    +0.003 A 
ATOM     19  C   UNL     1       1.807  -9.280  11.326  0.00  0.00    +0.040 A 
ATOM     20  C   UNL     1       2.680  -8.235  11.569  0.00  0.00    +0.145 A 
ATOM     21  F   UNL     1       3.086  -7.971  12.831  0.00  0.00    -0.204 F 
ENDBRANCH  14  15
BRANCH   1  22
ATOM     22  S   UNL     1       2.438  -4.579   9.632  0.00  0.00    -0.106 S 
BRANCH  22  23
ATOM     23  C   UNL     1       3.597  -4.460   8.241  0.00  0.00    +0.168 C 
BRANCH  23  25
ATOM     24  N   UNL     1       3.507  -3.920   5.829  0.00  0.00    -0.285 N 
ATOM     25  C   UNL     1       2.846  -4.069   6.995  0.00  0.00    +0.227 C 
ATOM     26  O   UNL     1       1.648  -3.888   7.040  0.00  0.00    -0.275 OA
ATOM     27  H   UNL     1       4.450  -4.138   5.775  0.00  0.00    +0.155 HD
BRANCH  24  31
ATOM     28  C   UNL     1       1.497  -2.521   2.459  0.00  0.00    -0.047 A 
ATOM     29  C   UNL     1       1.135  -2.069   3.715  0.00  0.00    +0.005 A 
ATOM     30  C   UNL     1       1.800  -2.531   4.834  0.00  0.00    +0.023 A 
ATOM     31  C   UNL     1       2.831  -3.451   4.697  0.00  0.00    +0.033 A 
ATOM     32  C   UNL     1       3.192  -3.903   3.435  0.00  0.00    +0.023 A 
ATOM     33  C   UNL     1       2.520  -3.441   2.320  0.00  0.00    +0.005 A 
BRANCH  28  34
ATOM     34  C   UNL     1       0.770  -2.015   1.239  0.00  0.00    +0.035 C 
BRANCH  34  35
ATOM     35  C   UNL     1      -0.428  -2.921   0.947  0.00  0.00    +0.004 C 
BRANCH  35  37
ATOM     36  C   UNL     1      -2.364  -3.314  -0.582  0.00  0.00    +0.004 C 
ATOM     37  C   UNL     1      -1.166  -2.408  -0.290  0.00  0.00    -0.003 C 
ENDBRANCH  35  37
ENDBRANCH  34  35
ENDBRANCH  28  34
ENDBRANCH  24  31
ENDBRANCH  23  25
ENDBRANCH  22  23
ENDBRANCH   1  22
TORSDOF 8
