REMARK  Name = ZINC43757685
REMARK  13 active torsions:
REMARK  status: ('A' for Active; 'I' for Inactive)
REMARK    1  A    between atoms: C_1  and  C_2
REMARK    2  A    between atoms: C_2  and  C_4
REMARK    3  A    between atoms: C_2  and  C_12
REMARK    4  A    between atoms: C_5  and  C_6
REMARK    5  A    between atoms: C_6  and  C_8
REMARK    6  A    between atoms: C_6  and  C_9
REMARK    7  A    between atoms: C_9  and  C_10
REMARK    8  A    between atoms: C_9  and  C_11
REMARK    9  A    between atoms: C_18  and  C_43
REMARK   10  A    between atoms: C_28  and  C_42
REMARK   11  A    between atoms: C_31  and  O_34
REMARK   12  A    between atoms: O_34  and  C_35
REMARK   13  A    between atoms: C_35  and  C_36
REMARK                            x       y       z     vdW  Elec       q    Type
REMARK                         _______ _______ _______ _____ _____    ______ ____
ROOT
ATOM      1  C   UNL     1       0.742  -0.511   1.242  0.00  0.00    +0.002 C 
ATOM      2  C   UNL     1       2.220  -0.043   1.215  0.00  0.00    +0.005 C 
ATOM      3  C   UNL     1       3.084  -1.330   1.086  0.00  0.00    +0.009 C 
ATOM      4  C   UNL     1       2.114  -2.323   0.447  0.00  0.00    +0.021 C 
ATOM      5  C   UNL     1       0.804  -2.032   1.235  0.00  0.00    -0.022 C 
ATOM      6  C   UNL     1      -0.300  -2.777   0.511  0.00  0.00    +0.008 C 
ATOM      7  C   UNL     1      -0.120  -4.266   0.827  0.00  0.00    +0.009 C 
ATOM      8  C   UNL     1       1.282  -4.776   0.680  0.00  0.00    +0.021 C 
ATOM      9  C   UNL     1       2.395  -3.769   0.584  0.00  0.00    -0.066 C 
ATOM     10  C   UNL     1       3.630  -4.247   0.621  0.00  0.00    -0.027 C 
ATOM     11  C   UNL     1       3.732  -5.762   0.694  0.00  0.00    +0.031 C 
ATOM     12  C   UNL     1       2.890  -6.322  -0.473  0.00  0.00    +0.002 C 
ATOM     13  C   UNL     1       1.452  -5.898  -0.311  0.00  0.00    -0.022 C 
ATOM     14  C   UNL     1       0.583  -5.816  -1.520  0.00  0.00    +0.010 C 
ATOM     15  C   UNL     1       1.270  -5.314  -2.769  0.00  0.00    +0.032 C 
ATOM     16  C   UNL     1       2.620  -5.961  -2.987  0.00  0.00    +0.119 C 
ATOM     17  C   UNL     1       3.531  -5.874  -1.770  0.00  0.00    +0.036 C 
ATOM     18  C   UNL     1       0.844  -7.085   0.439  0.00  0.00    +0.012 C 
ATOM     19  C   UNL     1       0.933  -2.553   2.668  0.00  0.00    +0.012 C 
ENDROOT
BRANCH   1  21
ATOM     20  C   UNL     1      -0.019   1.526   0.010  0.00  0.00    +0.012 C 
ATOM     21  C   UNL     1       0.002  -0.004   0.002  0.00  0.00    +0.012 C 
BRANCH  21  22
ATOM     22  C   UNL     1      -1.412  -0.526   0.013  0.00  0.00    -0.027 C 
ATOM     23  C   UNL     1      -1.839  -1.279  -0.970  0.00  0.00    -0.027 C 
BRANCH  23  24
ATOM     24  C   UNL     1      -3.253  -1.801  -0.959  0.00  0.00    +0.011 C 
ATOM     25  C   UNL     1      -3.232  -3.331  -0.968  0.00  0.00    +0.012 C 
BRANCH  24  26
ATOM     26  C   UNL     1      -3.993  -1.294  -2.199  0.00  0.00    -0.011 C 
ATOM     27  C   UNL     1      -5.428  -1.824  -2.188  0.00  0.00    +0.008 C 
ATOM     28  C   UNL     1      -4.014   0.236  -2.190  0.00  0.00    +0.008 C 
ENDBRANCH  24  26
ENDBRANCH  23  24
ENDBRANCH  21  22
ENDBRANCH   1  21
BRANCH  16  29
ATOM     29  O   UNL     1       2.422  -7.339  -3.308  0.00  0.00    -0.372 OA
BRANCH  29  30
ATOM     30  C   UNL     1       2.283  -7.596  -4.707  0.00  0.00    +0.195 C 
BRANCH  30  31
ATOM     31  C   UNL     1       2.080  -9.073  -4.929  0.00  0.00    -0.022 A 
ATOM     32  C   UNL     1       3.172  -9.900  -5.115  0.00  0.00    +0.006 A 
ATOM     33  C   UNL     1       2.986 -11.254  -5.319  0.00  0.00    +0.000 A 
ATOM     34  C   UNL     1       1.708 -11.782  -5.335  0.00  0.00    +0.000 A 
ATOM     35  C   UNL     1       0.617 -10.955  -5.148  0.00  0.00    +0.000 A 
ATOM     36  C   UNL     1       0.803  -9.601  -4.940  0.00  0.00    +0.006 A 
ENDBRANCH  30  31
ENDBRANCH  29  30
ENDBRANCH  16  29
TORSDOF 7
