REMARK  Name = ZINC06281547
REMARK  11 active torsions:
REMARK  status: ('A' for Active; 'I' for Inactive)
REMARK    1  A    between atoms: C_1  and  C_2
REMARK    2  A    between atoms: C_9  and  C_14
REMARK    3  A    between atoms: C_14  and  C_16
REMARK    4  A    between atoms: C_14  and  N_71
REMARK    5  A    between atoms: N_20  and  C_21
REMARK    6  A    between atoms: C_21  and  C_22
REMARK    7  A    between atoms: C_21  and  C_23
REMARK    8  A    between atoms: C_21  and  C_24
REMARK    9  A    between atoms: N_27  and  C_30
REMARK   10  A    between atoms: C_34  and  C_37
REMARK   11  A    between atoms: C_35  and  C_36
REMARK                            x       y       z     vdW  Elec       q    Type
REMARK                         _______ _______ _______ _____ _____    ______ ____
ROOT
ATOM      1  C   UNL     1       2.602   1.067  -0.035  0.00  0.00    +0.039 C 
ENDROOT
BRANCH   1  10
ATOM      2  C   UNL     1      -1.945   6.213  -2.944  0.00  0.00    +0.044 C 
ATOM      3  C   UNL     1      -1.559   5.285  -1.822  0.00  0.00    -0.050 A 
ATOM      4  C   UNL     1      -2.331   5.240  -0.669  0.00  0.00    +0.005 A 
ATOM      5  C   UNL     1      -2.001   4.392   0.366  0.00  0.00    +0.026 A 
ATOM      6  C   UNL     1      -0.875   3.581   0.262  0.00  0.00    +0.049 A 
ATOM      7  C   UNL     1      -0.092   3.633  -0.906  0.00  0.00    -0.001 A 
ATOM      8  C   UNL     1      -0.451   4.495  -1.948  0.00  0.00    +0.013 A 
ATOM      9  C   UNL     1       1.088   2.773  -1.008  0.00  0.00    +0.017 A 
ATOM     10  C   UNL     1       1.391   1.962   0.035  0.00  0.00    +0.011 A 
ATOM     11  C   UNL     1       0.575   1.951   1.187  0.00  0.00    +0.251 A 
ATOM     12  O   UNL     1       0.864   1.214   2.114  0.00  0.00    -0.268 OA
ATOM     13  N   UNL     1      -0.514   2.734   1.288  0.00  0.00    -0.322 N 
ATOM     14  H   UNL     1      -1.052   2.702   2.094  0.00  0.00    +0.169 HD
ENDBRANCH   1  10
BRANCH   1  20
ATOM     15  C   UNL     1       3.870   2.835   1.028  0.00  0.00    -0.058 C 
ATOM     16  C   UNL     1       4.768   3.164   2.223  0.00  0.00    +0.086 C 
ATOM     17  N   UNL     1       5.978   2.332   2.167  0.00  0.00    -0.333 N 
ATOM     18  C   UNL     1       5.633   0.903   2.195  0.00  0.00    +0.086 C 
ATOM     19  C   UNL     1       4.735   0.575   1.000  0.00  0.00    -0.058 C 
ATOM     20  N   UNL     1       3.513   1.402   1.080  0.00  0.00    +0.391 N 
ATOM     21  H   UNL     1       3.037   1.209   1.969  0.00  0.00    -0.080 HD
BRANCH  17  22
ATOM     22  C   UNL     1       6.856   2.655   3.204  0.00  0.00    +0.033 A 
ATOM     23  C   UNL     1       6.478   2.451   4.525  0.00  0.00    +0.023 A 
ATOM     24  C   UNL     1       7.349   2.771   5.548  0.00  0.00    +0.002 A 
ATOM     25  C   UNL     1       8.596   3.295   5.258  0.00  0.00    +0.004 A 
ATOM     26  C   UNL     1       8.975   3.498   3.944  0.00  0.00    -0.046 A 
ATOM     27  C   UNL     1       8.111   3.175   2.916  0.00  0.00    -0.027 A 
ATOM     28  C   UNL     1       8.528   3.392   1.484  0.00  0.00    +0.046 C 
ATOM     29  C   UNL     1      10.335   4.068   3.633  0.00  0.00    +0.044 C 
ENDBRANCH  17  22
ENDBRANCH   1  20
BRANCH   1  30
ATOM     30  C   UNL     1       3.294   1.263  -1.359  0.00  0.00    +0.143 A 
ATOM     31  N   UNL     1       3.989   2.310  -1.732  0.00  0.00    -0.115 NA
ATOM     32  N   UNL     1       4.419   2.097  -2.928  0.00  0.00    -0.023 NA
ATOM     33  N   UNL     1       4.016   0.942  -3.328  0.00  0.00    -0.043 NA
ATOM     34  N   UNL     1       3.324   0.394  -2.386  0.00  0.00    -0.225 N 
BRANCH  34  35
ATOM     35  C   UNL     1       2.688  -0.925  -2.429  0.00  0.00    +0.059 C 
ATOM     36  C   UNL     1       1.190  -0.778  -2.157  0.00  0.00    +0.036 C 
ATOM     37  C   UNL     1       2.897  -1.547  -3.812  0.00  0.00    +0.036 C 
ATOM     38  C   UNL     1       3.313  -1.828  -1.364  0.00  0.00    +0.036 C 
ENDBRANCH  34  35
ENDBRANCH   1  30
TORSDOF 5
