REMARK  Name = ZINC31973143
REMARK  8 active torsions:
REMARK  status: ('A' for Active; 'I' for Inactive)
REMARK    1  A    between atoms: C_1  and  C_2
REMARK    2  A    between atoms: C_7  and  C_16
REMARK    3  A    between atoms: C_8  and  C_11
REMARK    4  A    between atoms: C_12  and  C_13
REMARK    5  A    between atoms: C_19  and  C_22
REMARK    6  A    between atoms: C_22  and  C_23
REMARK    7  A    between atoms: C_22  and  C_24
REMARK    8  A    between atoms: C_22  and  C_25
REMARK                            x       y       z     vdW  Elec       q    Type
REMARK                         _______ _______ _______ _____ _____    ______ ____
ROOT
ATOM      1  C   UNL     1       0.822   5.498   0.024  0.00  0.00    +0.045 C 
ATOM      2  C   UNL     1       0.517   4.022   0.019  0.00  0.00    -0.034 A 
ATOM      3  C   UNL     1      -0.814   3.582   0.029  0.00  0.00    +0.008 A 
ATOM      4  C   UNL     1      -1.082   2.245   0.030  0.00  0.00    +0.045 A 
ATOM      5  C   UNL     1      -0.016   1.327   0.009  0.00  0.00    +0.116 A 
ATOM      6  N   UNL     1       0.002  -0.004   0.002  0.00  0.00    -0.339 N 
ATOM      7  C   UNL     1       1.260  -0.439  -0.012  0.00  0.00    +0.072 A 
ATOM      8  C   UNL     1       2.101   0.682  -0.014  0.00  0.00    +0.072 A 
ATOM      9  N   UNL     1       1.271   1.788  -0.001  0.00  0.00    -0.301 N 
ATOM     10  C   UNL     1       1.529   3.124   0.004  0.00  0.00    +0.096 A 
ATOM     11  H   UNL     1      -0.943  -0.567   0.008  0.00  0.00    +0.167 HD
ENDROOT
BRANCH   7  12
ATOM     12  C   UNL     1       1.694  -1.855  -0.023  0.00  0.00    +0.000 A 
ATOM     13  C   UNL     1       2.834  -2.233  -0.733  0.00  0.00    +0.010 A 
ATOM     14  C   UNL     1       3.235  -3.553  -0.735  0.00  0.00    +0.005 A 
ATOM     15  C   UNL     1       2.504  -4.503  -0.044  0.00  0.00    -0.042 A 
ATOM     16  C   UNL     1       1.369  -4.135   0.656  0.00  0.00    +0.005 A 
ATOM     17  C   UNL     1       0.960  -2.817   0.671  0.00  0.00    +0.010 A 
BRANCH  15  18
ATOM     18  C   UNL     1       2.945  -5.944  -0.055  0.00  0.00    -0.013 C 
ATOM     19  C   UNL     1       1.839  -6.811  -0.659  0.00  0.00    +0.015 C 
ATOM     20  C   UNL     1       4.216  -6.081  -0.895  0.00  0.00    +0.015 C 
ATOM     21  C   UNL     1       3.228  -6.401   1.377  0.00  0.00    +0.015 C 
ENDBRANCH  15  18
ENDBRANCH   7  12
BRANCH   8  22
ATOM     22  C   UNL     1       3.507   0.682  -0.027  0.00  0.00    +0.035 C 
ATOM     23  C   UNL     1       4.197  -0.082   0.868  0.00  0.00    +0.098 C 
BRANCH  23  24
ATOM     24  C   UNL     1       5.604  -0.082   0.855  0.00  0.00    +0.380 C 
ATOM     25  O   UNL     1       6.205   0.600   0.046  0.00  0.00    -0.241 OA
ATOM     26  O   UNL     1       6.287  -0.839   1.742  0.00  0.00    -0.241 OA
ENDBRANCH  23  24
ENDBRANCH   8  22
TORSDOF 4
