REMARK  Name = ZINC39325115
REMARK  7 active torsions:
REMARK  status: ('A' for Active; 'I' for Inactive)
REMARK    1  A    between atoms: C_1  and  C_2
REMARK    2  A    between atoms: C_5  and  S_8
REMARK    3  A    between atoms: S_8  and  N_11
REMARK    4  A    between atoms: N_11  and  C_12
REMARK    5  A    between atoms: N_11  and  C_18
REMARK    6  A    between atoms: C_12  and  C_13
REMARK    7  A    between atoms: C_18  and  C_19
REMARK                            x       y       z     vdW  Elec       q    Type
REMARK                         _______ _______ _______ _____ _____    ______ ____
ROOT
ATOM      1  N   UNL     1       1.494  -4.781  -0.289  0.00  0.00    -0.171 NA
ENDROOT
BRANCH   1   2
ATOM      2  S   UNL     1      -0.041  -4.172  -0.413  0.00  0.00    +0.061 S 
ATOM      3  O   UNL     1      -0.744  -4.603   0.744  0.00  0.00    -0.153 OA
ATOM      4  O   UNL     1      -0.489  -4.465  -1.729  0.00  0.00    -0.153 OA
BRANCH   2   9
ATOM      5  C   UNL     1       0.385   1.835  -0.034  0.00  0.00    +0.044 C 
ATOM      6  C   UNL     1       0.279   0.334  -0.128  0.00  0.00    -0.050 A 
ATOM      7  C   UNL     1       0.276  -0.281  -1.366  0.00  0.00    +0.005 A 
ATOM      8  C   UNL     1       0.179  -1.658  -1.453  0.00  0.00    +0.029 A 
ATOM      9  C   UNL     1       0.084  -2.418  -0.302  0.00  0.00    +0.106 A 
ATOM     10  C   UNL     1       0.088  -1.802   0.935  0.00  0.00    +0.029 A 
ATOM     11  C   UNL     1       0.189  -0.426   1.022  0.00  0.00    +0.005 A 
ENDBRANCH   2   9
ENDBRANCH   1   2
BRANCH   1  12
ATOM     12  C   UNL     1       2.087  -5.007   1.031  0.00  0.00    +0.151 C 
BRANCH  12  13
ATOM     13  C   UNL     1       1.872  -6.442   1.440  0.00  0.00    +0.005 A 
ATOM     14  C   UNL     1       2.663  -7.520   1.221  0.00  0.00    +0.012 A 
ATOM     15  C   UNL     1       2.260  -8.755   1.694  0.00  0.00    +0.008 A 
ATOM     16  C   UNL     1       1.085  -8.850   2.363  0.00  0.00    +0.045 A 
ATOM     17  S   UNL     1       0.511  -7.160   2.346  0.00  0.00    -0.100 S 
ENDBRANCH  12  13
ENDBRANCH   1  12
BRANCH   1  18
ATOM     18  C   UNL     1       2.258  -5.095  -1.499  0.00  0.00    +0.126 C 
BRANCH  18  19
ATOM     19  C   UNL     1       3.525  -4.238  -1.538  0.00  0.00    +0.114 C 
ATOM     20  C   UNL     1       4.308  -4.623  -2.777  0.00  0.00    -0.003 C 
ATOM     21  C   UNL     1       4.582  -3.638  -3.675  0.00  0.00    -0.003 A 
ATOM     22  C   UNL     1       5.335  -3.926  -4.896  0.00  0.00    +0.059 A 
ATOM     23  C   UNL     1       5.592  -2.920  -5.775  0.00  0.00    +0.163 A 
ATOM     24  C   UNL     1       5.144  -1.606  -5.529  0.00  0.00    +0.164 A 
ATOM     25  C   UNL     1       4.433  -1.283  -4.390  0.00  0.00    +0.073 A 
ATOM     26  C   UNL     1       4.125  -2.257  -3.433  0.00  0.00    +0.044 A 
ATOM     27  N   UNL     1       3.436  -1.922  -2.339  0.00  0.00    -0.284 N 
ATOM     28  C   UNL     1       3.111  -2.791  -1.399  0.00  0.00    +0.225 C 
ATOM     29  O   UNL     1       2.481  -2.426  -0.424  0.00  0.00    -0.275 OA
ATOM     30  O   UNL     1       5.403  -0.616  -6.425  0.00  0.00    -0.485 OA
ATOM     31  C   UNL     1       6.441  -0.861  -7.378  0.00  0.00    +0.270 C 
ATOM     32  C   UNL     1       6.231  -2.261  -7.970  0.00  0.00    +0.270 C 
ATOM     33  O   UNL     1       6.299  -3.212  -6.904  0.00  0.00    -0.485 OA
ATOM     34  H   UNL     1       3.162  -0.998  -2.231  0.00  0.00    +0.155 HD
ENDBRANCH  18  19
ENDBRANCH   1  18
TORSDOF 6
