REMARK  Name = ZINC35991750
REMARK  12 active torsions:
REMARK  status: ('A' for Active; 'I' for Inactive)
REMARK    1  A    between atoms: C_1  and  C_2
REMARK    2  A    between atoms: C_2  and  O_3
REMARK    3  A    between atoms: O_3  and  C_4
REMARK    4  A    between atoms: C_4  and  C_6
REMARK    5  A    between atoms: C_7  and  C_24
REMARK    6  A    between atoms: N_8  and  C_21
REMARK    7  A    between atoms: C_12  and  C_14
REMARK    8  A    between atoms: C_21  and  C_22
REMARK    9  A    between atoms: C_24  and  N_25
REMARK   10  A    between atoms: N_25  and  C_26
REMARK   11  A    between atoms: N_25  and  C_27
REMARK   12  A    between atoms: C_27  and  C_28
REMARK                            x       y       z     vdW  Elec       q    Type
REMARK                         _______ _______ _______ _____ _____    ______ ____
ROOT
ATOM      1  C   UNL     1       1.193  -2.179  -0.915  0.00  0.00    +0.076 C 
ATOM      2  C   UNL     1       1.467  -3.325  -1.575  0.00  0.00    +0.011 C 
ATOM      3  N   UNL     1       2.142  -3.311  -2.763  0.00  0.00    -0.257 N 
ATOM      4  C   UNL     1       2.577  -2.192  -3.356  0.00  0.00    +0.307 C 
ATOM      5  O   UNL     1       3.169  -2.280  -4.413  0.00  0.00    -0.252 OA
ATOM      6  N   UNL     1       2.379  -0.972  -2.818  0.00  0.00    -0.288 N 
ATOM      7  C   UNL     1       1.654  -0.878  -1.540  0.00  0.00    +0.143 C 
ATOM      8  H   UNL     1       2.703  -0.174  -3.265  0.00  0.00    +0.151 HD
ENDROOT
BRANCH   7   9
ATOM      9  C   UNL     1       2.554  -0.182  -0.551  0.00  0.00    -0.022 A 
ATOM     10  C   UNL     1       3.876  -0.568  -0.429  0.00  0.00    +0.007 A 
ATOM     11  C   UNL     1       4.702   0.070   0.477  0.00  0.00    +0.020 A 
ATOM     12  C   UNL     1       4.205   1.095   1.262  0.00  0.00    +0.041 A 
ATOM     13  C   UNL     1       2.882   1.481   1.139  0.00  0.00    +0.020 A 
ATOM     14  C   UNL     1       2.059   0.846   0.229  0.00  0.00    +0.007 A 
ATOM     15 CL   UNL     1       5.242   1.897   2.401  0.00  0.00    -0.084 Cl
ENDBRANCH   7   9
BRANCH   1  16
ATOM     16  C   UNL     1       0.493  -2.193   0.314  0.00  0.00    +0.339 C 
ATOM     17  O   UNL     1       0.225  -3.252   0.850  0.00  0.00    -0.245 OA
BRANCH  16  18
ATOM     18  O   UNL     1       0.124  -1.031   0.893  0.00  0.00    -0.462 OA
BRANCH  18  20
ATOM     19  C   UNL     1      -0.912   0.288   2.633  0.00  0.00    +0.048 C 
ATOM     20  C   UNL     1      -0.579  -1.120   2.134  0.00  0.00    +0.229 C 
ENDBRANCH  18  20
ENDBRANCH  16  18
ENDBRANCH   1  16
BRANCH   3  21
ATOM     21  C   UNL     1       2.405  -4.591  -3.424  0.00  0.00    +0.141 C 
BRANCH  21  22
ATOM     22  C   UNL     1       1.270  -4.914  -4.362  0.00  0.00    -0.015 C 
ATOM     23  C   UNL     1       1.520  -5.212  -5.613  0.00  0.00    +0.005 C 
ENDBRANCH  21  22
ENDBRANCH   3  21
BRANCH   2  24
ATOM     24  C   UNL     1       1.021  -4.641  -0.992  0.00  0.00    -0.026 C 
BRANCH  24  25
ATOM     25  N   UNL     1       1.980  -5.072   0.034  0.00  0.00    +0.384 N 
ATOM     26  C   UNL     1       3.289  -5.312  -0.589  0.00  0.00    -0.095 C 
ATOM     27  H   UNL     1       2.068  -4.352   0.735  0.00  0.00    -0.081 HD
BRANCH  25  28
ATOM     28  C   UNL     1       1.502  -6.311   0.662  0.00  0.00    -0.043 C 
BRANCH  28  29
ATOM     29  C   UNL     1       2.420  -6.686   1.796  0.00  0.00    -0.064 A 
ATOM     30  C   UNL     1       3.516  -7.496   1.560  0.00  0.00    +0.002 A 
ATOM     31  C   UNL     1       4.358  -7.840   2.600  0.00  0.00    +0.000 A 
ATOM     32  C   UNL     1       4.105  -7.375   3.877  0.00  0.00    +0.000 A 
ATOM     33  C   UNL     1       3.010  -6.565   4.113  0.00  0.00    +0.000 A 
ATOM     34  C   UNL     1       2.170  -6.217   3.072  0.00  0.00    +0.002 A 
ENDBRANCH  28  29
ENDBRANCH  25  28
ENDBRANCH  24  25
ENDBRANCH   2  24
TORSDOF 10
