REMARK  Name = ZINC03458042
REMARK  6 active torsions:
REMARK  status: ('A' for Active; 'I' for Inactive)
REMARK    1  A    between atoms: C_1  and  C_2
REMARK    2  A    between atoms: N_10  and  C_14
REMARK    3  A    between atoms: C_14  and  C_15
REMARK    4  A    between atoms: N_17  and  C_18
REMARK    5  A    between atoms: C_18  and  C_19
REMARK    6  A    between atoms: C_18  and  C_25
REMARK                            x       y       z     vdW  Elec       q    Type
REMARK                         _______ _______ _______ _____ _____    ______ ____
ROOT
ATOM      1  C   UNL     1      -0.575   0.877   2.369  0.00  0.00    +0.232 C 
ATOM      2  O   UNL     1       0.103  -0.128   2.412  0.00  0.00    -0.274 OA
ATOM      3  N   UNL     1      -0.698   1.558   1.213  0.00  0.00    -0.303 N 
ATOM      4  H   UNL     1      -1.241   2.362   1.179  0.00  0.00    +0.150 HD
ENDROOT
BRANCH   1   5
ATOM      5  C   UNL     1      -1.281   1.363   3.609  0.00  0.00    +0.213 C 
BRANCH   5  15
ATOM      6  C   UNL     1       0.762  -3.253   9.816  0.00  0.00    +0.007 C 
ATOM      7  C   UNL     1       0.888  -2.079   8.843  0.00  0.00    -0.014 C 
ATOM      8  C   UNL     1       1.046  -2.613   7.418  0.00  0.00    +0.006 C 
ATOM      9  C   UNL     1       1.184  -1.438   6.446  0.00  0.00    +0.035 C 
ATOM     10  C   UNL     1      -0.052  -0.551   6.540  0.00  0.00    +0.113 C 
ATOM     11  C   UNL     1      -0.237  -0.030   7.961  0.00  0.00    +0.035 C 
ATOM     12  C   UNL     1      -0.369  -1.211   8.926  0.00  0.00    +0.006 C 
ATOM     13  C   UNL     1       0.052   0.602   5.567  0.00  0.00    +0.247 C 
ATOM     14  O   UNL     1       0.895   1.473   5.549  0.00  0.00    -0.273 OA
ATOM     15  N   UNL     1      -0.991   0.457   4.723  0.00  0.00    -0.215 N 
ATOM     16  C   UNL     1      -1.730  -0.615   5.034  0.00  0.00    +0.310 C 
ATOM     17  O   UNL     1      -2.725  -0.950   4.421  0.00  0.00    -0.252 OA
ATOM     18  N   UNL     1      -1.247  -1.282   6.099  0.00  0.00    -0.285 N 
ATOM     19  H   UNL     1      -1.617  -2.085   6.499  0.00  0.00    +0.151 HD
ENDBRANCH   5  15
ENDBRANCH   1   5
BRANCH   3  20
ATOM     20  C   UNL     1      -0.013   1.086   0.008  0.00  0.00    +0.134 C 
BRANCH  20  21
ATOM     21  C   UNL     1       1.401   1.607  -0.003  0.00  0.00    -0.023 A 
ATOM     22  C   UNL     1       1.663   2.902   0.406  0.00  0.00    +0.006 A 
ATOM     23  C   UNL     1       2.961   3.379   0.401  0.00  0.00    +0.000 A 
ATOM     24  C   UNL     1       3.995   2.564  -0.023  0.00  0.00    +0.000 A 
ATOM     25  C   UNL     1       3.732   1.272  -0.437  0.00  0.00    +0.000 A 
ATOM     26  C   UNL     1       2.435   0.793  -0.426  0.00  0.00    +0.006 A 
ENDBRANCH  20  21
BRANCH  20  27
ATOM     27  C   UNL     1      -0.742   1.585  -1.213  0.00  0.00    -0.023 A 
ATOM     28  C   UNL     1      -1.257   2.868  -1.234  0.00  0.00    +0.006 A 
ATOM     29  C   UNL     1      -1.922   3.327  -2.356  0.00  0.00    +0.000 A 
ATOM     30  C   UNL     1      -2.079   2.501  -3.453  0.00  0.00    +0.000 A 
ATOM     31  C   UNL     1      -1.568   1.216  -3.429  0.00  0.00    +0.000 A 
ATOM     32  C   UNL     1      -0.899   0.759  -2.310  0.00  0.00    +0.006 A 
ENDBRANCH  20  27
ENDBRANCH   3  20
TORSDOF 5
