REMARK  Name = ZINC40319970
REMARK  18 active torsions:
REMARK  status: ('A' for Active; 'I' for Inactive)
REMARK    1  A    between atoms: C_1  and  O_2
REMARK    2  A    between atoms: O_2  and  C_3
REMARK    3  A    between atoms: C_5  and  C_37
REMARK    4  A    between atoms: C_8  and  O_9
REMARK    5  A    between atoms: O_9  and  C_10
REMARK    6  A    between atoms: C_10  and  C_11
REMARK    7  A    between atoms: C_11  and  C_13
REMARK    8  A    between atoms: C_11  and  O_36
REMARK    9  A    between atoms: C_13  and  N_14
REMARK   10  A    between atoms: N_14  and  C_15
REMARK   11  A    between atoms: N_14  and  C_28
REMARK   12  A    between atoms: C_15  and  C_16
REMARK   13  A    between atoms: C_18  and  O_26
REMARK   14  A    between atoms: C_19  and  O_24
REMARK   15  A    between atoms: C_20  and  O_22
REMARK   16  A    between atoms: O_22  and  C_23
REMARK   17  A    between atoms: O_24  and  C_25
REMARK   18  A    between atoms: O_26  and  C_27
REMARK                            x       y       z     vdW  Elec       q    Type
REMARK                         _______ _______ _______ _____ _____    ______ ____
ROOT
ATOM      1  N   UNL     1      -1.436  -7.183  -1.846  0.00  0.00    +0.387 N 
ATOM      2  H   UNL     1      -2.411  -7.411  -1.971  0.00  0.00    -0.081 HD
ENDROOT
BRANCH   1   3
ATOM      3  C   UNL     1      -0.962  -6.410  -3.002  0.00  0.00    -0.045 C 
ATOM      4  C   UNL     1      -1.508  -7.029  -4.300  0.00  0.00    +0.009 C 
ATOM      5  C   UNL     1      -0.769  -6.432  -5.521  0.00  0.00    +0.164 C 
ATOM      6  S   UNL     1       0.875  -5.992  -4.823  0.00  0.00    -0.033 S 
ATOM      7  O   UNL     1       1.051  -4.584  -4.909  0.00  0.00    -0.174 OA
ATOM      8  O   UNL     1       1.859  -6.855  -5.376  0.00  0.00    -0.174 OA
ATOM      9  C   UNL     1       0.592  -6.454  -3.062  0.00  0.00    +0.151 C 
ENDBRANCH   1   3
BRANCH   1  10
ATOM     10  C   UNL     1      -1.273  -6.385  -0.624  0.00  0.00    -0.043 C 
BRANCH  10  11
ATOM     11  C   UNL     1      -2.208  -5.175  -0.676  0.00  0.00    +0.135 C 
BRANCH  11  12
ATOM     12  O   UNL     1      -3.562  -5.623  -0.773  0.00  0.00    -0.390 OA
ATOM     13  H   UNL     1      -3.848  -6.173  -0.031  0.00  0.00    +0.210 HD
ENDBRANCH  11  12
BRANCH  11  14
ATOM     14  C   UNL     1      -2.037  -4.342   0.596  0.00  0.00    +0.258 C 
BRANCH  14  15
ATOM     15  O   UNL     1      -2.822  -3.153   0.496  0.00  0.00    -0.486 OA
BRANCH  15  21
ATOM     16  C   UNL     1      -3.526  -1.118   1.516  0.00  0.00    +0.162 A 
ATOM     17  C   UNL     1      -3.491  -0.249   2.589  0.00  0.00    +0.060 A 
ATOM     18  C   UNL     1      -2.704  -0.553   3.706  0.00  0.00    +0.018 A 
ATOM     19  C   UNL     1      -1.955  -1.736   3.729  0.00  0.00    +0.015 A 
ATOM     20  C   UNL     1      -1.996  -2.597   2.655  0.00  0.00    +0.050 A 
ATOM     21  C   UNL     1      -2.782  -2.298   1.550  0.00  0.00    +0.162 A 
BRANCH  16  23
ATOM     22  C   UNL     1      -5.026   0.398   0.464  0.00  0.00    +0.277 C 
ATOM     23  O   UNL     1      -4.290  -0.827   0.430  0.00  0.00    -0.491 OA
ENDBRANCH  16  23
BRANCH  18  24
ATOM     24  C   UNL     1      -2.662   0.367   4.850  0.00  0.00    +0.258 C 
ATOM     25  O   UNL     1      -1.979   0.102   5.816  0.00  0.00    -0.296 OA
ENDBRANCH  18  24
ENDBRANCH  15  21
ENDBRANCH  14  15
ENDBRANCH  11  14
ENDBRANCH  10  11
ENDBRANCH   1  10
BRANCH   1  26
ATOM     26  C   UNL     1      -0.654  -8.421  -1.731  0.00  0.00    -0.042 C 
BRANCH  26  27
ATOM     27  C   UNL     1      -0.966  -9.323  -2.897  0.00  0.00    -0.057 A 
ATOM     28  C   UNL     1      -2.260  -9.768  -3.096  0.00  0.00    +0.051 A 
ATOM     29  C   UNL     1      -2.551 -10.599  -4.168  0.00  0.00    +0.165 A 
ATOM     30  C   UNL     1      -1.541 -10.984  -5.041  0.00  0.00    +0.204 A 
ATOM     31  C   UNL     1      -0.242 -10.534  -4.837  0.00  0.00    +0.165 A 
ATOM     32  C   UNL     1       0.040  -9.699  -3.766  0.00  0.00    +0.051 A 
BRANCH  31  33
ATOM     33  O   UNL     1       0.750 -10.907  -5.689  0.00  0.00    -0.491 OA
ATOM     34  C   UNL     1       2.079 -10.504  -5.354  0.00  0.00    +0.277 C 
ENDBRANCH  31  33
BRANCH  30  35
ATOM     35  O   UNL     1      -1.823 -11.800  -6.094  0.00  0.00    -0.488 OA
ATOM     36  C   UNL     1      -2.197 -11.170  -7.321  0.00  0.00    +0.277 C 
ENDBRANCH  30  35
BRANCH  29  37
ATOM     37  O   UNL     1      -3.824 -11.037  -4.363  0.00  0.00    -0.491 OA
ATOM     38  C   UNL     1      -4.811 -10.602  -3.425  0.00  0.00    +0.277 C 
ENDBRANCH  29  37
ENDBRANCH  26  27
ENDBRANCH   1  26
TORSDOF 14
