REMARK  Name = ZINC30911233
REMARK  9 active torsions:
REMARK  status: ('A' for Active; 'I' for Inactive)
REMARK    1  A    between atoms: C_1  and  S_2
REMARK    2  A    between atoms: S_2  and  C_3
REMARK    3  A    between atoms: C_3  and  C_4
REMARK    4  A    between atoms: C_4  and  C_5
REMARK    5  A    between atoms: C_5  and  C_7
REMARK    6  A    between atoms: C_5  and  N_17
REMARK    7  A    between atoms: C_18  and  C_20
REMARK    8  A    between atoms: C_20  and  N_21
REMARK    9  A    between atoms: C_28  and  C_31
REMARK                            x       y       z     vdW  Elec       q    Type
REMARK                         _______ _______ _______ _____ _____    ______ ____
ROOT
ATOM      1  N   UNL     1       5.312   2.731  -1.706  0.00  0.00    -0.304 N 
ATOM      2  C   UNL     1       4.124   2.147  -1.450  0.00  0.00    +0.233 C 
ATOM      3  O   UNL     1       3.407   1.805  -2.366  0.00  0.00    -0.274 OA
ATOM      4  H   UNL     1       5.962   3.042  -0.875  0.00  0.00    +0.149 HD
ENDROOT
BRANCH   1   5
ATOM      5  C   UNL     1       5.736   2.953  -3.090  0.00  0.00    +0.140 C 
BRANCH   5   6
ATOM      6  C   UNL     1       6.712   4.100  -3.139  0.00  0.00    +0.129 A 
ATOM      7  N   UNL     1       6.487   5.289  -3.763  0.00  0.00    -0.340 N 
ATOM      8  H   UNL     1       5.534   5.465  -4.282  0.00  0.00    +0.167 HD
ATOM      9  C   UNL     1       7.612   6.067  -3.580  0.00  0.00    +0.066 A 
ATOM     10  C   UNL     1       7.976   7.349  -3.971  0.00  0.00    +0.028 A 
ATOM     11  C   UNL     1       9.210   7.847  -3.615  0.00  0.00    +0.002 A 
ATOM     12  C   UNL     1      10.092   7.077  -2.870  0.00  0.00    +0.002 A 
ATOM     13  C   UNL     1       9.752   5.814  -2.476  0.00  0.00    +0.030 A 
ATOM     14  C   UNL     1       8.505   5.288  -2.825  0.00  0.00    +0.089 A 
ATOM     15  N   UNL     1       7.889   4.101  -2.587  0.00  0.00    -0.231 NA
ENDBRANCH   5   6
BRANCH   5  16
ATOM     16  C   UNL     1       6.409   1.688  -3.627  0.00  0.00    +0.041 C 
BRANCH  16  17
ATOM     17  C   UNL     1       5.383   0.554  -3.694  0.00  0.00    +0.071 C 
BRANCH  17  19
ATOM     18  C   UNL     1       4.849  -2.177  -4.348  0.00  0.00    +0.084 C 
ATOM     19  S   UNL     1       6.181  -0.946  -4.330  0.00  0.00    -0.164 S 
ENDBRANCH  17  19
ENDBRANCH  16  17
ENDBRANCH   5  16
ENDBRANCH   1   5
BRANCH   2  20
ATOM     20  C   UNL     1       3.688   1.919  -0.026  0.00  0.00    +0.222 C 
BRANCH  20  21
ATOM     21  N   UNL     1       2.373   1.274  -0.015  0.00  0.00    -0.290 N 
ATOM     22  C   UNL     1       2.296  -0.081  -0.021  0.00  0.00    +0.203 A 
ATOM     23  N   UNL     1       1.141  -0.692  -0.013  0.00  0.00    -0.230 NA
ATOM     24  C   UNL     1       0.002  -0.004   0.002  0.00  0.00    +0.116 A 
ATOM     25  C   UNL     1      -0.017   1.400   0.010  0.00  0.00    +0.080 A 
ATOM     26  C   UNL     1       1.264   2.038   0.001  0.00  0.00    +0.263 A 
ATOM     27  O   UNL     1       1.350   3.254   0.006  0.00  0.00    -0.267 OA
ATOM     28  C   UNL     1      -1.346   2.001   0.031  0.00  0.00    +0.010 A 
ATOM     29  C   UNL     1      -2.430   1.184   0.033  0.00  0.00    +0.057 A 
ATOM     30  S   UNL     1      -1.715  -0.449   0.017  0.00  0.00    -0.076 S 
BRANCH  28  31
ATOM     31  C   UNL     1      -1.510   3.469   0.042  0.00  0.00    +0.021 A 
ATOM     32  C   UNL     1      -2.292   4.256  -0.761  0.00  0.00    +0.016 A 
ATOM     33  C   UNL     1      -2.285   5.620  -0.560  0.00  0.00    +0.008 A 
ATOM     34  C   UNL     1      -1.499   6.141   0.416  0.00  0.00    +0.046 A 
ATOM     35  S   UNL     1      -0.734   4.680   1.100  0.00  0.00    -0.097 S 
ENDBRANCH  28  31
ENDBRANCH  20  21
ENDBRANCH   2  20
TORSDOF 8
