REMARK  Name = ZINC05065209
REMARK  6 active torsions:
REMARK  status: ('A' for Active; 'I' for Inactive)
REMARK    1  A    between atoms: C_1  and  O_2
REMARK    2  A    between atoms: O_2  and  C_3
REMARK    3  A    between atoms: C_7  and  C_11
REMARK    4  A    between atoms: C_8  and  O_9
REMARK    5  A    between atoms: O_9  and  C_10
REMARK    6  A    between atoms: C_26  and  N_31
REMARK                            x       y       z     vdW  Elec       q    Type
REMARK                         _______ _______ _______ _____ _____    ______ ____
ROOT
ATOM      1  C   UNL     1      -3.678   1.656   0.373  0.00  0.00    +0.109 C 
ATOM      2  C   UNL     1      -3.779   3.063  -0.151  0.00  0.00    +0.030 C 
ATOM      3  C   UNL     1      -3.966   3.090  -1.683  0.00  0.00    +0.042 C 
ATOM      4  C   UNL     1      -3.358   4.398  -2.109  0.00  0.00    -0.043 A 
ATOM      5  C   UNL     1      -3.527   5.093  -3.296  0.00  0.00    +0.004 A 
ATOM      6  C   UNL     1      -2.844   6.295  -3.428  0.00  0.00    +0.000 A 
ATOM      7  C   UNL     1      -2.031   6.779  -2.424  0.00  0.00    +0.000 A 
ATOM      8  C   UNL     1      -1.856   6.085  -1.234  0.00  0.00    +0.004 A 
ATOM      9  C   UNL     1      -2.528   4.895  -1.091  0.00  0.00    -0.036 A 
ATOM     10  C   UNL     1      -2.534   3.923   0.064  0.00  0.00    +0.057 C 
ATOM     11  C   UNL     1      -1.254   3.138   0.036  0.00  0.00    -0.017 A 
ATOM     12  C   UNL     1      -0.055   3.838   0.027  0.00  0.00    +0.038 A 
ATOM     13  C   UNL     1       1.150   3.164   0.008  0.00  0.00    +0.127 A 
ATOM     14  C   UNL     1       1.173   1.781   0.000  0.00  0.00    +0.034 A 
ATOM     15  C   UNL     1      -0.013   1.076   0.008  0.00  0.00    +0.025 A 
ATOM     16  C   UNL     1      -1.227   1.754   0.017  0.00  0.00    +0.032 A 
ATOM     17  N   UNL     1      -2.413   1.021   0.039  0.00  0.00    -0.336 N 
ATOM     18  H   UNL     1      -2.394   0.077  -0.182  0.00  0.00    +0.147 HD
ENDROOT
BRANCH   1  23
ATOM     19  C   UNL     1      -5.220   1.698   3.830  0.00  0.00    +0.162 A 
ATOM     20  C   UNL     1      -4.090   1.734   4.630  0.00  0.00    +0.049 A 
ATOM     21  C   UNL     1      -2.834   1.744   4.053  0.00  0.00    +0.004 A 
ATOM     22  C   UNL     1      -2.702   1.713   2.677  0.00  0.00    +0.009 A 
ATOM     23  C   UNL     1      -3.826   1.683   1.872  0.00  0.00    +0.018 A 
ATOM     24  C   UNL     1      -5.088   1.673   2.445  0.00  0.00    +0.166 A 
BRANCH  19  26
ATOM     25  C   UNL     1      -6.516   1.716   5.824  0.00  0.00    +0.277 C 
ATOM     26  O   UNL     1      -6.457   1.688   4.396  0.00  0.00    -0.491 OA
ENDBRANCH  19  26
BRANCH  24  27
ATOM     27  O   UNL     1      -6.194   1.637   1.655  0.00  0.00    -0.491 OA
ATOM     28  C   UNL     1      -6.700   0.348   1.304  0.00  0.00    +0.277 C 
ENDBRANCH  24  27
ENDBRANCH   1  23
BRANCH  13  29
ATOM     29  N   UNL     1       2.420   3.924  -0.003  0.00  0.00    +0.056 N 
ATOM     30  O   UNL     1       3.484   3.331  -0.019  0.00  0.00    -0.126 OA
ATOM     31  O   UNL     1       2.401   5.142   0.004  0.00  0.00    -0.126 OA
ENDBRANCH  13  29
TORSDOF 4
