REMARK  Name = ZINC34945941
REMARK  10 active torsions:
REMARK  status: ('A' for Active; 'I' for Inactive)
REMARK    1  A    between atoms: C_1  and  C_2
REMARK    2  A    between atoms: C_2  and  C_3
REMARK    3  A    between atoms: C_3  and  N_4
REMARK    4  A    between atoms: N_4  and  C_5
REMARK    5  A    between atoms: C_5  and  C_6
REMARK    6  A    between atoms: C_6  and  C_7
REMARK    7  A    between atoms: N_9  and  C_10
REMARK    8  A    between atoms: N_13  and  C_16
REMARK    9  A    between atoms: C_16  and  C_17
REMARK   10  A    between atoms: N_25  and  C_26
REMARK                            x       y       z     vdW  Elec       q    Type
REMARK                         _______ _______ _______ _____ _____    ______ ____
ROOT
ATOM      1  C   UNL     1      -2.776  -3.764   3.035  0.00  0.00    +0.215 C 
ATOM      2  O   UNL     1      -1.715  -4.062   3.541  0.00  0.00    -0.276 OA
ATOM      3  N   UNL     1      -3.931  -4.113   3.636  0.00  0.00    -0.313 N 
ATOM      4  H   UNL     1      -4.780  -3.874   3.231  0.00  0.00    +0.149 HD
ENDROOT
BRANCH   3   5
ATOM      5  C   UNL     1      -3.905  -4.852   4.901  0.00  0.00    +0.069 C 
ATOM      6  C   UNL     1      -3.777  -3.867   6.066  0.00  0.00    +0.003 C 
ATOM      7  C   UNL     1      -3.830  -4.638   7.387  0.00  0.00    -0.077 C 
ATOM      8  N   UNL     1      -5.106  -5.355   7.488  0.00  0.00    +0.382 N 
ATOM      9  C   UNL     1      -5.205  -6.352   6.415  0.00  0.00    -0.077 C 
ATOM     10  C   UNL     1      -5.205  -5.646   5.057  0.00  0.00    +0.003 C 
ATOM     11  H   UNL     1      -5.868  -4.698   7.406  0.00  0.00    -0.081 HD
BRANCH   8  12
ATOM     12  C   UNL     1      -5.185  -6.031   8.790  0.00  0.00    -0.043 C 
BRANCH  12  13
ATOM     13  C   UNL     1      -6.544  -6.665   8.946  0.00  0.00    -0.064 A 
ATOM     14  C   UNL     1      -7.581  -5.946   9.509  0.00  0.00    +0.002 A 
ATOM     15  C   UNL     1      -8.827  -6.527   9.652  0.00  0.00    +0.000 A 
ATOM     16  C   UNL     1      -9.036  -7.827   9.231  0.00  0.00    +0.000 A 
ATOM     17  C   UNL     1      -7.998  -8.546   8.666  0.00  0.00    +0.000 A 
ATOM     18  C   UNL     1      -6.754  -7.963   8.519  0.00  0.00    +0.002 A 
ENDBRANCH  12  13
ENDBRANCH   8  12
ENDBRANCH   3   5
BRANCH   1  19
ATOM     19  C   UNL     1      -2.804  -3.004   1.734  0.00  0.00    +0.115 C 
BRANCH  19  20
ATOM     20  C   UNL     1      -1.370  -2.736   1.269  0.00  0.00    +0.118 C 
BRANCH  20  21
ATOM     21  N   UNL     1      -1.397  -1.998   0.005  0.00  0.00    -0.285 N 
ATOM     22  C   UNL     1      -1.411  -2.666  -1.166  0.00  0.00    +0.306 C 
ATOM     23  O   UNL     1      -1.403  -3.881  -1.172  0.00  0.00    -0.252 OA
ATOM     24  N   UNL     1      -1.436  -1.986  -2.329  0.00  0.00    -0.268 N 
ATOM     25  H   UNL     1      -1.525  -1.020  -2.325  0.00  0.00    +0.156 HD
BRANCH  24  26
ATOM     26  C   UNL     1      -1.332  -2.674  -3.544  0.00  0.00    +0.049 A 
ATOM     27  C   UNL     1      -0.710  -3.914  -3.591  0.00  0.00    +0.024 A 
ATOM     28  C   UNL     1      -0.610  -4.591  -4.790  0.00  0.00    +0.002 A 
ATOM     29  C   UNL     1      -1.128  -4.034  -5.945  0.00  0.00    +0.001 A 
ATOM     30  C   UNL     1      -1.749  -2.800  -5.903  0.00  0.00    +0.017 A 
ATOM     31  C   UNL     1      -1.857  -2.120  -4.705  0.00  0.00    +0.039 A 
ATOM     32 BR   UNL     1      -2.712  -0.434  -4.647  0.00  0.00    -0.048 Br
ENDBRANCH  24  26
BRANCH  21  33
ATOM     33  C   UNL     1      -1.407  -0.533   0.012  0.00  0.00    +0.109 C 
BRANCH  33  35
ATOM     34  C   UNL     1       0.020   1.518  -0.001  0.00  0.00    +0.005 C 
ATOM     35  C   UNL     1       0.031  -0.012  -0.009  0.00  0.00    +0.016 C 
ENDBRANCH  33  35
ENDBRANCH  21  33
ENDBRANCH  20  21
ENDBRANCH  19  20
ENDBRANCH   1  19
TORSDOF 9
