REMARK  Name = ZINC36545294
REMARK  11 active torsions:
REMARK  status: ('A' for Active; 'I' for Inactive)
REMARK    1  A    between atoms: C_1  and  C_2
REMARK    2  A    between atoms: C_2  and  C_3
REMARK    3  A    between atoms: C_2  and  C_4
REMARK    4  A    between atoms: C_2  and  N_5
REMARK    5  A    between atoms: C_6  and  C_8
REMARK    6  A    between atoms: C_8  and  C_10
REMARK    7  A    between atoms: C_8  and  N_17
REMARK    8  A    between atoms: N_17  and  C_18
REMARK    9  A    between atoms: C_25  and  C_27
REMARK   10  A    between atoms: C_28  and  O_34
REMARK   11  A    between atoms: C_32  and  O_33
REMARK                            x       y       z     vdW  Elec       q    Type
REMARK                         _______ _______ _______ _____ _____    ______ ____
ROOT
ATOM      1  N   UNL     1       4.176  -0.244  -2.507  0.00  0.00    -0.250 N 
ATOM      2  C   UNL     1       4.427   1.078  -2.574  0.00  0.00    +0.259 C 
ATOM      3  O   UNL     1       3.507   1.868  -2.668  0.00  0.00    -0.269 OA
ENDROOT
BRANCH   1   4
ATOM      4  C   UNL     1       5.227  -1.147  -2.307  0.00  0.00    +0.056 A 
ATOM      5  C   UNL     1       5.590  -1.517  -1.019  0.00  0.00    +0.025 A 
ATOM      6  C   UNL     1       6.627  -2.408  -0.824  0.00  0.00    +0.002 A 
ATOM      7  C   UNL     1       7.304  -2.932  -1.910  0.00  0.00    +0.002 A 
ATOM      8  C   UNL     1       6.946  -2.565  -3.195  0.00  0.00    +0.022 A 
ATOM      9  C   UNL     1       5.905  -1.678  -3.397  0.00  0.00    +0.062 A 
ATOM     10 CL   UNL     1       5.451  -1.224  -5.009  0.00  0.00    -0.082 Cl
ENDBRANCH   1   4
BRANCH   2  11
ATOM     11  C   UNL     1       5.815   1.567  -2.533  0.00  0.00    +0.120 A 
ATOM     12  C   UNL     1       6.503   1.840  -3.724  0.00  0.00    +0.133 A 
ATOM     13  C   UNL     1       7.809   2.300  -3.674  0.00  0.00    +0.046 A 
ATOM     14  C   UNL     1       8.434   2.489  -2.455  0.00  0.00    +0.007 A 
ATOM     15  C   UNL     1       7.765   2.223  -1.275  0.00  0.00    +0.046 A 
ATOM     16  C   UNL     1       6.457   1.768  -1.302  0.00  0.00    +0.133 A 
BRANCH  16  17
ATOM     17  O   UNL     1       5.801   1.514  -0.142  0.00  0.00    -0.506 OA
ATOM     18  H   UNL     1       5.971   0.634   0.221  0.00  0.00    +0.292 HD
ENDBRANCH  16  17
BRANCH  12  19
ATOM     19  O   UNL     1       5.893   1.654  -4.921  0.00  0.00    -0.506 OA
ATOM     20  H   UNL     1       5.421   2.433  -5.247  0.00  0.00    +0.292 HD
ENDBRANCH  12  19
ENDBRANCH   2  11
BRANCH   1  21
ATOM     21  C   UNL     1       2.803  -0.737  -2.644  0.00  0.00    +0.198 C 
BRANCH  21  22
ATOM     22  C   UNL     1       2.228  -0.265  -3.954  0.00  0.00    -0.018 A 
ATOM     23  C   UNL     1       0.914  -0.549  -4.275  0.00  0.00    +0.007 A 
ATOM     24  C   UNL     1       0.386  -0.116  -5.476  0.00  0.00    +0.020 A 
ATOM     25  C   UNL     1       1.174   0.602  -6.359  0.00  0.00    +0.041 A 
ATOM     26  C   UNL     1       2.489   0.885  -6.038  0.00  0.00    +0.020 A 
ATOM     27  C   UNL     1       3.014   0.457  -4.833  0.00  0.00    +0.007 A 
ATOM     28 CL   UNL     1       0.512   1.145  -7.869  0.00  0.00    -0.084 Cl
ENDBRANCH  21  22
BRANCH  21  30
ATOM     29  N   UNL     1       0.762  -0.760  -1.247  0.00  0.00    -0.309 N 
ATOM     30  C   UNL     1       1.965  -0.210  -1.508  0.00  0.00    +0.239 C 
ATOM     31  O   UNL     1       2.372   0.709  -0.830  0.00  0.00    -0.273 OA
ATOM     32  H   UNL     1       0.404  -1.444  -1.834  0.00  0.00    +0.149 HD
BRANCH  29  34
ATOM     33  C   UNL     1      -0.297   1.172  -0.186  0.00  0.00    +0.031 C 
ATOM     34  C   UNL     1      -0.003  -0.325  -0.075  0.00  0.00    +0.026 C 
ATOM     35  C   UNL     1       0.810  -0.593   1.193  0.00  0.00    +0.031 C 
ATOM     36  C   UNL     1      -1.320  -1.101  -0.010  0.00  0.00    +0.031 C 
ENDBRANCH  29  34
ENDBRANCH  21  30
ENDBRANCH   1  21
TORSDOF 8
