REMARK  Name = ZINC34791838
REMARK  12 active torsions:
REMARK  status: ('A' for Active; 'I' for Inactive)
REMARK    1  A    between atoms: C_1  and  C_2
REMARK    2  A    between atoms: C_2  and  N_3
REMARK    3  A    between atoms: C_6  and  C_11
REMARK    4  A    between atoms: C_16  and  C_17
REMARK    5  A    between atoms: N_23  and  C_25
REMARK    6  A    between atoms: C_25  and  C_27
REMARK    7  A    between atoms: C_25  and  C_34
REMARK    8  A    between atoms: C_27  and  C_28
REMARK    9  A    between atoms: N_36  and  C_37
REMARK   10  A    between atoms: C_37  and  C_38
REMARK   11  A    between atoms: C_37  and  C_39
REMARK   12  A    between atoms: C_37  and  C_40
REMARK                            x       y       z     vdW  Elec       q    Type
REMARK                         _______ _______ _______ _____ _____    ______ ____
ROOT
ATOM      1  N   UNL     1       0.770  -0.480   1.167  0.00  0.00    -0.257 N 
ATOM      2  C   UNL     1       2.129  -0.611   1.175  0.00  0.00    +0.042 C 
ATOM      3  C   UNL     1       2.781  -1.056   2.268  0.00  0.00    +0.058 C 
ATOM      4  C   UNL     1       1.954  -1.407   3.488  0.00  0.00    +0.142 C 
ATOM      5  N   UNL     1       0.496  -1.231   3.378  0.00  0.00    -0.288 N 
ATOM      6  C   UNL     1      -0.009  -0.770   2.217  0.00  0.00    +0.307 C 
ATOM      7  O   UNL     1      -1.211  -0.617   2.118  0.00  0.00    -0.252 OA
ATOM      8  C   UNL     1       4.170  -1.103   2.025  0.00  0.00    +0.247 C 
ATOM      9  O   UNL     1       4.998  -1.467   2.839  0.00  0.00    -0.270 OA
ATOM     10  N   UNL     1       4.459  -0.692   0.777  0.00  0.00    -0.280 N 
ATOM     11  C   UNL     1       3.187  -0.343   0.128  0.00  0.00    +0.160 C 
ATOM     12  H   UNL     1      -0.086  -1.438   4.125  0.00  0.00    +0.151 HD
ENDROOT
BRANCH   4  13
ATOM     13  C   UNL     1       2.223  -2.849   3.833  0.00  0.00    -0.011 A 
ATOM     14  C   UNL     1       1.741  -3.856   3.017  0.00  0.00    +0.006 A 
ATOM     15  C   UNL     1       1.987  -5.179   3.334  0.00  0.00    +0.000 A 
ATOM     16  C   UNL     1       2.716  -5.495   4.465  0.00  0.00    +0.001 A 
ATOM     17  C   UNL     1       3.199  -4.488   5.280  0.00  0.00    +0.013 A 
ATOM     18  C   UNL     1       2.956  -3.165   4.961  0.00  0.00    +0.060 A 
BRANCH  18  19
ATOM     19  C   UNL     1       3.487  -2.067   5.847  0.00  0.00    +0.418 C 
ATOM     20  F   UNL     1       4.250  -2.627   6.877  0.00  0.00    -0.166 F 
ATOM     21  F   UNL     1       4.286  -1.204   5.090  0.00  0.00    -0.166 F 
ATOM     22  F   UNL     1       2.417  -1.352   6.395  0.00  0.00    -0.166 F 
ENDBRANCH  18  19
ENDBRANCH   4  13
BRANCH   1  24
ATOM     23  C   UNL     1       0.040   1.537  -0.008  0.00  0.00    +0.025 C 
ATOM     24  C   UNL     1       0.129   0.011  -0.056  0.00  0.00    +0.111 C 
ENDBRANCH   1  24
BRANCH  10  25
ATOM     25  C   UNL     1       5.793  -0.607   0.177  0.00  0.00    +0.167 C 
BRANCH  25  26
ATOM     26  C   UNL     1       6.646   0.339   0.982  0.00  0.00    +0.234 C 
ATOM     27  O   UNL     1       6.186   0.888   1.960  0.00  0.00    -0.274 OA
ATOM     28  N   UNL     1       7.921   0.575   0.615  0.00  0.00    -0.309 N 
ATOM     29  H   UNL     1       8.290   0.135  -0.168  0.00  0.00    +0.149 HD
BRANCH  28  30
ATOM     30  C   UNL     1       8.751   1.494   1.397  0.00  0.00    +0.026 C 
ATOM     31  C   UNL     1       8.869   0.979   2.833  0.00  0.00    +0.031 C 
ATOM     32  C   UNL     1      10.144   1.583   0.771  0.00  0.00    +0.031 C 
ATOM     33  C   UNL     1       8.106   2.882   1.405  0.00  0.00    +0.031 C 
ENDBRANCH  28  30
ENDBRANCH  25  26
BRANCH  25  34
ATOM     34  C   UNL     1       6.437  -1.995   0.170  0.00  0.00    +0.067 C 
BRANCH  34  35
ATOM     35  C   UNL     1       5.651  -2.909  -0.734  0.00  0.00    -0.045 A 
ATOM     36  C   UNL     1       4.600  -3.648  -0.225  0.00  0.00    +0.004 A 
ATOM     37  C   UNL     1       3.879  -4.487  -1.054  0.00  0.00    +0.000 A 
ATOM     38  C   UNL     1       4.208  -4.585  -2.393  0.00  0.00    +0.000 A 
ATOM     39  C   UNL     1       5.259  -3.845  -2.903  0.00  0.00    +0.000 A 
ATOM     40  C   UNL     1       5.977  -3.004  -2.074  0.00  0.00    +0.004 A 
ENDBRANCH  34  35
ENDBRANCH  25  34
ENDBRANCH  10  25
TORSDOF 8
