REMARK  Name = ZINC05530864
REMARK  6 active torsions:
REMARK  status: ('A' for Active; 'I' for Inactive)
REMARK    1  A    between atoms: C_1  and  C_2
REMARK    2  A    between atoms: C_2  and  C_4
REMARK    3  A    between atoms: C_2  and  O_14
REMARK    4  A    between atoms: N_6  and  C_7
REMARK    5  A    between atoms: O_14  and  C_15
REMARK    6  A    between atoms: C_15  and  C_17
REMARK                            x       y       z     vdW  Elec       q    Type
REMARK                         _______ _______ _______ _____ _____    ______ ____
ROOT
ATOM      1  C   UNL     1      -3.247   3.750   1.567  0.00  0.00    +0.062 C 
ATOM      2  C   UNL     1      -2.570   4.140   0.252  0.00  0.00    +0.259 C 
ENDROOT
BRANCH   2   3
ATOM      3  C   UNL     1      -1.256   3.412   0.128  0.00  0.00    +0.258 C 
ATOM      4  O   UNL     1      -0.215   4.035   0.127  0.00  0.00    -0.271 OA
ATOM      5  N   UNL     1      -1.238   2.069   0.019  0.00  0.00    -0.282 N 
ATOM      6  H   UNL     1      -2.070   1.577  -0.057  0.00  0.00    +0.155 HD
BRANCH   5   7
ATOM      7  C   UNL     1      -0.017   1.384   0.015  0.00  0.00    +0.034 A 
ATOM      8  C   UNL     1       0.127   0.222  -0.732  0.00  0.00    +0.024 A 
ATOM      9  C   UNL     1       1.330  -0.455  -0.729  0.00  0.00    +0.017 A 
ATOM     10  C   UNL     1       2.393   0.023   0.017  0.00  0.00    +0.018 A 
ATOM     11  C   UNL     1       2.252   1.181   0.763  0.00  0.00    +0.017 A 
ATOM     12  C   UNL     1       1.051   1.861   0.764  0.00  0.00    +0.024 A 
ATOM     13 BR   UNL     1       4.039  -0.906   0.018  0.00  0.00    -0.050 Br
ENDBRANCH   5   7
ENDBRANCH   2   3
BRANCH   2  14
ATOM     14  O   UNL     1      -2.333   5.572   0.236  0.00  0.00    -0.448 OA
BRANCH  14  15
ATOM     15  C   UNL     1      -3.310   6.349  -0.275  0.00  0.00    +0.356 C 
ATOM     16  O   UNL     1      -4.332   5.842  -0.695  0.00  0.00    -0.243 OA
BRANCH  15  17
ATOM     17  C   UNL     1      -3.140   7.807  -0.323  0.00  0.00    +0.125 A 
ATOM     18  C   UNL     1      -4.049   8.691  -0.812  0.00  0.00    +0.042 A 
ATOM     19  C   UNL     1      -3.504   9.990  -0.677  0.00  0.00    +0.000 A 
ATOM     20  C   UNL     1      -3.974  11.270  -1.000  0.00  0.00    +0.010 A 
ATOM     21  C   UNL     1      -3.199  12.363  -0.743  0.00  0.00    +0.001 A 
ATOM     22  C   UNL     1      -1.944  12.220  -0.162  0.00  0.00    +0.002 A 
ATOM     23  C   UNL     1      -1.460  10.974   0.165  0.00  0.00    +0.026 A 
ATOM     24  C   UNL     1      -2.233   9.843  -0.087  0.00  0.00    +0.047 A 
ATOM     25  N   UNL     1      -2.032   8.500   0.126  0.00  0.00    -0.349 N 
ATOM     26  H   UNL     1      -1.241   8.103   0.525  0.00  0.00    +0.166 HD
ENDBRANCH  15  17
ENDBRANCH  14  15
ENDBRANCH   2  14
TORSDOF 5
