REMARK  Name = ZINC10754807
REMARK  8 active torsions:
REMARK  status: ('A' for Active; 'I' for Inactive)
REMARK    1  A    between atoms: C_3  and  S_21
REMARK    2  A    between atoms: C_6  and  C_7
REMARK    3  A    between atoms: C_7  and  C_8
REMARK    4  A    between atoms: C_8  and  N_9
REMARK    5  A    between atoms: C_10  and  C_12
REMARK    6  A    between atoms: C_12  and  C_13
REMARK    7  A    between atoms: C_13  and  C_14
REMARK    8  A    between atoms: S_21  and  N_24
REMARK                            x       y       z     vdW  Elec       q    Type
REMARK                         _______ _______ _______ _____ _____    ______ ____
ROOT
ATOM      1  C   UNL     1      -0.018   1.461   0.010  0.00  0.00    +0.109 C 
ENDROOT
BRANCH   1   2
ATOM      2  N   UNL     1       0.002  -0.004   0.002  0.00  0.00    -0.315 N 
ATOM      3  C   UNL     1       0.585  -0.664  -1.018  0.00  0.00    +0.213 C 
ATOM      4  O   UNL     1       1.093  -0.046  -1.929  0.00  0.00    -0.276 OA
ATOM      5  H   UNL     1      -0.404  -0.499   0.731  0.00  0.00    +0.149 HD
BRANCH   3   6
ATOM      6  C   UNL     1       0.606  -2.171  -1.026  0.00  0.00    +0.100 C 
BRANCH   6   7
ATOM      7  C   UNL     1       1.322  -2.665  -2.285  0.00  0.00    +0.044 C 
BRANCH   7   8
ATOM      8  C   UNL     1       1.342  -4.172  -2.293  0.00  0.00    -0.047 A 
ATOM      9  C   UNL     1       2.397  -4.851  -1.713  0.00  0.00    +0.005 A 
ATOM     10  C   UNL     1       2.413  -6.234  -1.716  0.00  0.00    +0.020 A 
ATOM     11  C   UNL     1       1.380  -6.936  -2.309  0.00  0.00    +0.041 A 
ATOM     12  C   UNL     1       0.327  -6.255  -2.894  0.00  0.00    +0.020 A 
ATOM     13  C   UNL     1       0.309  -4.873  -2.886  0.00  0.00    +0.005 A 
ATOM     14 CL   UNL     1       1.403  -8.672  -2.318  0.00  0.00    -0.084 Cl
ENDBRANCH   7   8
ENDBRANCH   6   7
ENDBRANCH   3   6
ENDBRANCH   1   2
BRANCH   1  15
ATOM     15  C   UNL     1      -0.734   1.954   1.269  0.00  0.00    +0.054 C 
BRANCH  15  21
ATOM     16  C   UNL     1       0.276   4.163   1.875  0.00  0.00    +0.005 A 
ATOM     17  C   UNL     1       0.259   5.545   1.878  0.00  0.00    +0.029 A 
ATOM     18  C   UNL     1      -0.792   6.225   1.293  0.00  0.00    +0.105 A 
ATOM     19  C   UNL     1      -1.825   5.523   0.700  0.00  0.00    +0.029 A 
ATOM     20  C   UNL     1      -1.806   4.141   0.692  0.00  0.00    +0.005 A 
ATOM     21  C   UNL     1      -0.754   3.461   1.277  0.00  0.00    -0.046 A 
BRANCH  18  22
ATOM     22  S   UNL     1      -0.815   7.987   1.301  0.00  0.00    +0.056 S 
ATOM     23  O   UNL     1       0.534   8.411   1.437  0.00  0.00    -0.153 OA
ATOM     24  O   UNL     1      -1.633   8.388   0.211  0.00  0.00    -0.153 OA
BRANCH  22  25
ATOM     25  N   UNL     1      -1.601   8.460   2.681  0.00  0.00    -0.204 NA
ATOM     26  H   UNL     1      -1.942   7.793   3.297  0.00  0.00    +0.144 HD
ATOM     27  H   UNL     1      -1.719   9.403   2.872  0.00  0.00    +0.144 HD
ENDBRANCH  22  25
ENDBRANCH  18  22
ENDBRANCH  15  21
ENDBRANCH   1  15
TORSDOF 8
