REMARK  Name = ZINC15707607
REMARK  7 active torsions:
REMARK  status: ('A' for Active; 'I' for Inactive)
REMARK    1  A    between atoms: C_10  and  C_12
REMARK    2  A    between atoms: C_12  and  C_13
REMARK    3  A    between atoms: C_13  and  C_14
REMARK    4  A    between atoms: C_23  and  N_26
REMARK    5  A    between atoms: N_26  and  C_27
REMARK    6  A    between atoms: C_27  and  N_29
REMARK    7  A    between atoms: N_29  and  C_30
REMARK                            x       y       z     vdW  Elec       q    Type
REMARK                         _______ _______ _______ _____ _____    ______ ____
ROOT
ATOM      1  C   UNL     1       1.399   2.049  -0.001  0.00  0.00    -0.050 C 
ATOM      2  C   UNL     1      -0.028   1.489  -0.099  0.00  0.00    +0.089 C 
ATOM      3  N   UNL     1      -0.044   0.032  -0.110  0.00  0.00    -0.318 N 
ATOM      4  C   UNL     1       1.022  -0.749   0.152  0.00  0.00    +0.200 C 
ATOM      5  O   UNL     1       0.896  -1.953   0.228  0.00  0.00    -0.278 OA
ATOM      6  C   UNL     1       2.361  -0.115   0.347  0.00  0.00    +0.021 C 
ATOM      7  C   UNL     1       3.431   1.669   1.425  0.00  0.00    -0.055 C 
ATOM      8  C   UNL     1       4.194   0.377   1.815  0.00  0.00    +0.054 C 
ATOM      9  C   UNL     1       3.248  -0.787   1.407  0.00  0.00    +0.014 C 
ATOM     10  H   UNL     1      -0.882  -0.407  -0.322  0.00  0.00    +0.149 HD
ATOM     11  N   UNL     1       2.119   1.155   0.976  0.00  0.00    +0.391 N 
ATOM     12  H   UNL     1       1.519   1.027   1.799  0.00  0.00    -0.080 HD
ENDROOT
BRANCH   8  13
ATOM     13  N   UNL     1       4.443   0.349   3.259  0.00  0.00    -0.326 N 
ATOM     14  H   UNL     1       3.820  -0.102   3.850  0.00  0.00    +0.148 HD
BRANCH  13  15
ATOM     15  C   UNL     1       5.538   0.949   3.766  0.00  0.00    +0.131 C 
ATOM     16  S   UNL     1       6.638   1.745   2.723  0.00  0.00    -0.019 S 
BRANCH  15  17
ATOM     17  N   UNL     1       5.767   0.923   5.094  0.00  0.00    -0.324 N 
ATOM     18  H   UNL     1       5.144   0.472   5.685  0.00  0.00    +0.148 HD
BRANCH  17  19
ATOM     19  C   UNL     1       6.957   1.576   5.645  0.00  0.00    +0.072 C 
ATOM     20  C   UNL     1       7.747   0.818   6.714  0.00  0.00    +0.024 C 
ATOM     21  C   UNL     1       6.901   2.033   7.104  0.00  0.00    +0.024 C 
ENDBRANCH  17  19
ENDBRANCH  15  17
ENDBRANCH  13  15
ENDBRANCH   8  13
BRANCH   1  22
ATOM     22  C   UNL     1       1.356   3.496   0.494  0.00  0.00    -0.005 C 
BRANCH  22  23
ATOM     23  C   UNL     1       0.664   4.373  -0.552  0.00  0.00    +0.095 C 
BRANCH  23  33
ATOM     24  C   UNL     1      -1.829   6.525  -4.534  0.00  0.00    +0.000 A 
ATOM     25  C   UNL     1      -1.377   5.340  -3.983  0.00  0.00    +0.002 A 
ATOM     26  C   UNL     1      -0.703   5.346  -2.780  0.00  0.00    +0.024 A 
ATOM     27  C   UNL     1      -0.467   6.550  -2.112  0.00  0.00    +0.039 A 
ATOM     28  C   UNL     1      -0.929   7.731  -2.670  0.00  0.00    -0.024 A 
ATOM     29  C   UNL     1      -1.604   7.719  -3.876  0.00  0.00    +0.005 A 
ATOM     30  C   UNL     1      -0.553   8.874  -1.755  0.00  0.00    +0.056 C 
ATOM     31  C   UNL     1       0.184   8.207  -0.584  0.00  0.00    +0.118 C 
ATOM     32  N   UNL     1       0.182   6.775  -0.894  0.00  0.00    -0.271 N 
ATOM     33  C   UNL     1       0.731   5.816  -0.123  0.00  0.00    +0.220 C 
ATOM     34  O   UNL     1       1.278   6.114   0.918  0.00  0.00    -0.275 OA
ENDBRANCH  23  33
ENDBRANCH  22  23
ENDBRANCH   1  22
TORSDOF 7
