REMARK  Name = ZINC08963866
REMARK  11 active torsions:
REMARK  status: ('A' for Active; 'I' for Inactive)
REMARK    1  A    between atoms: C_1  and  C_2
REMARK    2  A    between atoms: C_4  and  C_29
REMARK    3  A    between atoms: C_6  and  N_8
REMARK    4  A    between atoms: C_9  and  C_11
REMARK    5  A    between atoms: N_13  and  C_14
REMARK    6  A    between atoms: C_14  and  C_15
REMARK    7  A    between atoms: C_15  and  C_17
REMARK    8  A    between atoms: C_15  and  N_59
REMARK    9  A    between atoms: N_25  and  C_26
REMARK   10  A    between atoms: C_27  and  N_59
REMARK   11  A    between atoms: C_28  and  N_59
REMARK                            x       y       z     vdW  Elec       q    Type
REMARK                         _______ _______ _______ _____ _____    ______ ____
ROOT
ATOM      1  C   UNL     1      -7.003   6.153  -0.856  0.00  0.00    +0.299 C 
ATOM      2  O   UNL     1      -7.273   5.454   0.099  0.00  0.00    -0.265 OA
ATOM      3  N   UNL     1      -5.741   6.196  -1.325  0.00  0.00    -0.309 N 
ATOM      4  H   UNL     1      -5.526   6.755  -2.088  0.00  0.00    +0.149 HD
ENDROOT
BRANCH   1   6
ATOM      5  N   UNL     1      -9.335   6.922  -1.042  0.00  0.00    -0.278 N 
ATOM      6  C   UNL     1      -8.072   6.965  -1.511  0.00  0.00    +0.303 C 
ATOM      7  O   UNL     1      -7.803   7.665  -2.466  0.00  0.00    -0.265 OA
ATOM      8  H   UNL     1      -9.537   6.414  -0.241  0.00  0.00    +0.155 HD
BRANCH   5  14
ATOM      9  C   UNL     1     -14.007   7.142  -2.551  0.00  0.00    +0.044 C 
ATOM     10  C   UNL     1     -12.627   7.740  -2.457  0.00  0.00    -0.048 A 
ATOM     11  C   UNL     1     -12.366   8.970  -3.032  0.00  0.00    +0.006 A 
ATOM     12  C   UNL     1     -11.101   9.522  -2.947  0.00  0.00    -0.048 A 
ATOM     13  C   UNL     1     -10.093   8.846  -2.288  0.00  0.00    +0.026 A 
ATOM     14  C   UNL     1     -10.352   7.609  -1.709  0.00  0.00    +0.034 A 
ATOM     15  C   UNL     1     -11.622   7.055  -1.801  0.00  0.00    +0.026 A 
ATOM     16  C   UNL     1     -10.821  10.863  -3.575  0.00  0.00    +0.044 C 
ENDBRANCH   5  14
ENDBRANCH   1   6
BRANCH   3  17
ATOM     17  C   UNL     1      -4.693   5.399  -0.682  0.00  0.00    +0.094 C 
BRANCH  17  18
ATOM     18  C   UNL     1      -3.342   5.720  -1.325  0.00  0.00    -0.021 C 
BRANCH  18  19
ATOM     19  C   UNL     1      -2.254   4.954  -0.616  0.00  0.00    -0.059 A 
ATOM     20  C   UNL     1      -1.845   5.340   0.647  0.00  0.00    +0.004 A 
ATOM     21  C   UNL     1      -0.853   4.640   1.300  0.00  0.00    +0.023 A 
ATOM     22  C   UNL     1      -0.255   3.538   0.691  0.00  0.00    +0.033 A 
ATOM     23  C   UNL     1      -0.669   3.161  -0.580  0.00  0.00    -0.025 A 
ATOM     24  C   UNL     1      -1.664   3.863  -1.228  0.00  0.00    +0.007 A 
ATOM     25  C   UNL     1       0.145   1.953  -0.999  0.00  0.00    +0.056 C 
ATOM     26  C   UNL     1       1.321   1.968   0.004  0.00  0.00    +0.109 C 
ATOM     27  N   UNL     1       0.752   2.684   1.167  0.00  0.00    -0.332 N 
ATOM     28  C   UNL     1       1.791   3.435   1.883  0.00  0.00    +0.129 C 
ENDBRANCH  18  19
BRANCH  18  31
ATOM     29  C   UNL     1      -3.707   7.721  -0.012  0.00  0.00    -0.096 C 
ATOM     30  C   UNL     1      -1.634   7.433  -1.229  0.00  0.00    -0.096 C 
ATOM     31  N   UNL     1      -3.089   7.173  -1.238  0.00  0.00    +0.382 N 
ATOM     32  H   UNL     1      -3.505   7.634  -2.055  0.00  0.00    -0.082 HD
ENDBRANCH  18  31
ENDBRANCH  17  18
ENDBRANCH   3  17
TORSDOF 6
