REMARK  Name = ZINC38752717
REMARK  6 active torsions:
REMARK  status: ('A' for Active; 'I' for Inactive)
REMARK    1  A    between atoms: C_1  and  C_2
REMARK    2  A    between atoms: C_5  and  C_8
REMARK    3  A    between atoms: C_10  and  C_13
REMARK    4  A    between atoms: C_13  and  N_14
REMARK    5  A    between atoms: C_15  and  C_17
REMARK    6  A    between atoms: C_17  and  C_18
REMARK                            x       y       z     vdW  Elec       q    Type
REMARK                         _______ _______ _______ _____ _____    ______ ____
ROOT
ATOM      1  N   UNL     1      -1.264  -8.090   1.713  0.00  0.00    -0.310 N 
ATOM      2  C   UNL     1      -1.498  -9.176   2.477  0.00  0.00    +0.215 C 
ATOM      3  O   UNL     1      -0.576  -9.739   3.028  0.00  0.00    -0.276 OA
ATOM      4  H   UNL     1      -2.001  -7.640   1.272  0.00  0.00    +0.149 HD
ENDROOT
BRANCH   1   5
ATOM      5  C   UNL     1       0.103  -7.591   1.548  0.00  0.00    +0.163 C 
BRANCH   5   8
ATOM      6  C   UNL     1       0.052  -4.248  -0.023  0.00  0.00    +0.168 A 
ATOM      7  C   UNL     1       0.049  -5.043   1.081  0.00  0.00    +0.077 A 
ATOM      8  C   UNL     1       0.091  -6.378   0.654  0.00  0.00    +0.101 A 
ATOM      9  N   UNL     1       0.120  -6.390  -0.649  0.00  0.00    -0.081 NA
ATOM     10  O   UNL     1       0.091  -5.050  -1.104  0.00  0.00    -0.354 OA
BRANCH   6  15
ATOM     11  C   UNL     1      -0.096   1.504  -0.066  0.00  0.00    +0.044 C 
ATOM     12  C   UNL     1      -0.057  -0.002  -0.055  0.00  0.00    -0.050 A 
ATOM     13  C   UNL     1      -0.018  -0.699  -1.249  0.00  0.00    +0.004 A 
ATOM     14  C   UNL     1       0.017  -2.078  -1.246  0.00  0.00    +0.012 A 
ATOM     15  C   UNL     1       0.015  -2.770  -0.034  0.00  0.00    +0.020 A 
ATOM     16  C   UNL     1      -0.024  -2.061   1.167  0.00  0.00    +0.012 A 
ATOM     17  C   UNL     1      -0.055  -0.682   1.150  0.00  0.00    +0.004 A 
ENDBRANCH   6  15
ENDBRANCH   5   8
ENDBRANCH   1   5
BRANCH   2  18
ATOM     18  C   UNL     1      -2.905  -9.689   2.646  0.00  0.00    +0.119 C 
BRANCH  18  19
ATOM     19  C   UNL     1      -2.878 -11.001   3.433  0.00  0.00    +0.102 C 
ATOM     20  C   UNL     1      -2.017 -12.035   2.665  0.00  0.00    +0.100 C 
ATOM     21  S   UNL     1      -2.911 -13.580   3.122  0.00  0.00    -0.088 S 
ATOM     22  C   UNL     1      -4.427 -12.852   3.682  0.00  0.00    +0.159 C 
ATOM     23  N   UNL     1      -5.509 -13.444   4.077  0.00  0.00    -0.259 NA
ATOM     24  C   UNL     1      -6.623 -12.611   4.540  0.00  0.00    +0.120 C 
ATOM     25  C   UNL     1      -7.940 -13.370   4.460  0.00  0.00    +0.027 C 
ATOM     26  C   UNL     1      -8.305 -13.642   3.000  0.00  0.00    +0.002 C 
ATOM     27  C   UNL     1      -8.429 -12.306   2.261  0.00  0.00    +0.001 C 
ATOM     28  C   UNL     1      -7.083 -11.583   2.304  0.00  0.00    +0.015 C 
ATOM     29  C   UNL     1      -6.695 -11.313   3.744  0.00  0.00    +0.100 C 
ATOM     30  C   UNL     1      -5.333 -10.652   3.721  0.00  0.00    +0.227 C 
ATOM     31  O   UNL     1      -5.213  -9.448   3.792  0.00  0.00    -0.275 OA
ATOM     32  N   UNL     1      -4.244 -11.475   3.616  0.00  0.00    -0.246 N 
ENDBRANCH  18  19
ENDBRANCH   2  18
TORSDOF 5
