REMARK  Name = ZINC20441971
REMARK  7 active torsions:
REMARK  status: ('A' for Active; 'I' for Inactive)
REMARK    1  A    between atoms: C_1  and  C_2
REMARK    2  A    between atoms: C_6  and  N_9
REMARK    3  A    between atoms: C_7  and  C_8
REMARK    4  A    between atoms: N_12  and  C_15
REMARK    5  A    between atoms: C_15  and  C_16
REMARK    6  A    between atoms: C_16  and  C_18
REMARK    7  A    between atoms: C_16  and  O_28
REMARK                            x       y       z     vdW  Elec       q    Type
REMARK                         _______ _______ _______ _____ _____    ______ ____
ROOT
ATOM      1  N   UNL     1      -7.236  -0.534  -1.752  0.00  0.00    -0.327 N 
ATOM      2  C   UNL     1      -6.479   0.574  -2.351  0.00  0.00    +0.120 C 
ATOM      3  C   UNL     1      -5.025   0.142  -2.557  0.00  0.00    +0.103 C 
ATOM      4  N   UNL     1      -4.445  -0.250  -1.265  0.00  0.00    -0.297 NA
ATOM      5  C   UNL     1      -5.202  -1.357  -0.665  0.00  0.00    +0.103 C 
ATOM      6  C   UNL     1      -6.656  -0.925  -0.459  0.00  0.00    +0.120 C 
ENDROOT
BRANCH   1  12
ATOM      7  C   UNL     1     -11.947  -1.448  -2.811  0.00  0.00    +0.044 C 
ATOM      8  C   UNL     1     -10.891  -0.627  -2.118  0.00  0.00    -0.046 A 
ATOM      9  C   UNL     1     -11.259   0.459  -1.343  0.00  0.00    +0.004 A 
ATOM     10  C   UNL     1     -10.293   1.215  -0.704  0.00  0.00    +0.002 A 
ATOM     11  C   UNL     1      -8.958   0.888  -0.837  0.00  0.00    +0.023 A 
ATOM     12  C   UNL     1      -8.585  -0.201  -1.614  0.00  0.00    +0.033 A 
ATOM     13  C   UNL     1      -9.557  -0.955  -2.260  0.00  0.00    -0.027 A 
ATOM     14  C   UNL     1      -9.157  -2.134  -3.109  0.00  0.00    +0.046 C 
ENDBRANCH   1  12
BRANCH   4  15
ATOM     15  C   UNL     1      -3.026  -0.600  -1.409  0.00  0.00    +0.120 C 
BRANCH  15  16
ATOM     16  C   UNL     1      -2.198   0.678  -1.560  0.00  0.00    +0.160 C 
BRANCH  16  17
ATOM     17  C   UNL     1      -0.743   0.318  -1.721  0.00  0.00    +0.007 A 
ATOM     18  C   UNL     1       0.178   0.262  -0.746  0.00  0.00    +0.089 A 
ATOM     19  N   UNL     1       1.389  -0.100  -1.270  0.00  0.00    -0.360 N 
ATOM     20  H   UNL     1       2.266  -0.196  -0.612  0.00  0.00    +0.165 HD
ATOM     21  C   UNL     1       1.274  -0.289  -2.629  0.00  0.00    +0.047 A 
ATOM     22  C   UNL     1      -0.066  -0.036  -2.971  0.00  0.00    +0.005 A 
ATOM     23  C   UNL     1      -0.480  -0.152  -4.299  0.00  0.00    +0.010 A 
ATOM     24  C   UNL     1       0.421  -0.512  -5.261  0.00  0.00    +0.001 A 
ATOM     25  C   UNL     1       1.745  -0.763  -4.929  0.00  0.00    +0.002 A 
ATOM     26  C   UNL     1       2.175  -0.654  -3.624  0.00  0.00    +0.026 A 
ENDBRANCH  16  17
BRANCH  16  27
ATOM     27  O   UNL     1      -2.362   1.492  -0.397  0.00  0.00    -0.386 OA
ATOM     28  H   UNL     1      -1.839   2.457  -0.323  0.00  0.00    +0.210 HD
ENDBRANCH  16  27
ENDBRANCH  15  16
ENDBRANCH   4  15
TORSDOF 5
