REMARK  Name = ZINC09045982
REMARK  10 active torsions:
REMARK  status: ('A' for Active; 'I' for Inactive)
REMARK    1  A    between atoms: C_1  and  C_2
REMARK    2  A    between atoms: C_9  and  N_15
REMARK    3  A    between atoms: C_10  and  C_11
REMARK    4  A    between atoms: C_11  and  O_13
REMARK    5  A    between atoms: O_13  and  C_14
REMARK    6  A    between atoms: C_16  and  C_18
REMARK    7  A    between atoms: C_18  and  N_19
REMARK    8  A    between atoms: C_23  and  C_28
REMARK    9  A    between atoms: C_25  and  S_26
REMARK   10  A    between atoms: S_26  and  C_27
REMARK                            x       y       z     vdW  Elec       q    Type
REMARK                         _______ _______ _______ _____ _____    ______ ____
ROOT
ATOM      1  N   UNL     1       1.930  -5.845  -1.738  0.00  0.00    -0.278 N 
ATOM      2  C   UNL     1       2.227  -6.106  -3.026  0.00  0.00    +0.238 C 
ATOM      3  O   UNL     1       2.199  -5.214  -3.848  0.00  0.00    -0.273 OA
ATOM      4  H   UNL     1       1.953  -6.558  -1.081  0.00  0.00    +0.155 HD
ENDROOT
BRANCH   1  12
ATOM      5  C   UNL     1      -0.019   1.526   0.010  0.00  0.00    +0.008 C 
ATOM      6  C   UNL     1       0.002  -0.004   0.002  0.00  0.00    -0.009 C 
ATOM      7  C   UNL     1       0.742  -0.514   1.242  0.00  0.00    +0.008 C 
ATOM      8  C   UNL     1       0.557  -2.027   1.373  0.00  0.00    +0.037 C 
ATOM      9  C   UNL     1       0.941  -2.684   0.053  0.00  0.00    -0.021 A 
ATOM     10  C   UNL     1       1.008  -1.966  -1.089  0.00  0.00    -0.004 A 
ATOM     11  S   UNL     1       1.484  -3.133  -2.332  0.00  0.00    -0.077 S 
ATOM     12  C   UNL     1       1.592  -4.558  -1.351  0.00  0.00    +0.086 A 
ATOM     13  C   UNL     1       1.258  -4.096  -0.085  0.00  0.00    +0.091 A 
ATOM     14  C   UNL     1       0.736  -0.502  -1.252  0.00  0.00    +0.046 C 
BRANCH  13  15
ATOM     15  C   UNL     1       1.226  -4.998   1.068  0.00  0.00    +0.342 C 
ATOM     16  O   UNL     1       0.198  -5.582   1.355  0.00  0.00    -0.245 OA
BRANCH  15  17
ATOM     17  O   UNL     1       2.336  -5.182   1.812  0.00  0.00    -0.464 OA
ATOM     18  C   UNL     1       2.231  -6.090   2.940  0.00  0.00    +0.280 C 
ENDBRANCH  15  17
ENDBRANCH  13  15
ENDBRANCH   1  12
BRANCH   2  19
ATOM     19  C   UNL     1       2.594  -7.506  -3.446  0.00  0.00    +0.223 C 
BRANCH  19  20
ATOM     20  N   UNL     1       2.871  -7.528  -4.885  0.00  0.00    -0.279 N 
ATOM     21  C   UNL     1       4.124  -7.306  -5.333  0.00  0.00    +0.256 A 
ATOM     22  O   UNL     1       5.034  -7.087  -4.550  0.00  0.00    -0.268 OA
ATOM     23  C   UNL     1       4.363  -7.333  -6.715  0.00  0.00    +0.098 A 
ATOM     24  C   UNL     1       3.300  -7.586  -7.570  0.00  0.00    +0.079 A 
ATOM     25  N   UNL     1       2.078  -7.799  -7.066  0.00  0.00    -0.223 NA
ATOM     26  C   UNL     1       1.863  -7.777  -5.766  0.00  0.00    +0.172 A 
BRANCH  24  27
ATOM     27  C   UNL     1       3.517  -7.622  -9.036  0.00  0.00    +0.001 A 
ATOM     28  C   UNL     1       4.788  -7.396  -9.561  0.00  0.00    +0.010 A 
ATOM     29  C   UNL     1       4.985  -7.436 -10.926  0.00  0.00    +0.001 A 
ATOM     30  C   UNL     1       3.921  -7.689 -11.774  0.00  0.00    +0.000 A 
ATOM     31  C   UNL     1       2.656  -7.909 -11.259  0.00  0.00    +0.001 A 
ATOM     32  C   UNL     1       2.448  -7.877  -9.895  0.00  0.00    +0.010 A 
ENDBRANCH  24  27
BRANCH  26  33
ATOM     33  S   UNL     1       0.236  -8.071  -5.156  0.00  0.00    -0.091 S 
ATOM     34  C   UNL     1      -0.643  -8.331  -6.717  0.00  0.00    +0.093 C 
ENDBRANCH  26  33
ENDBRANCH  19  20
ENDBRANCH   2  19
TORSDOF 7
