REMARK  Name = ZINC66118283
REMARK  7 active torsions:
REMARK  status: ('A' for Active; 'I' for Inactive)
REMARK    1  A    between atoms: C_1  and  C_2
REMARK    2  A    between atoms: C_2  and  C_3
REMARK    3  A    between atoms: C_6  and  O_24
REMARK    4  A    between atoms: C_7  and  C_9
REMARK    5  A    between atoms: N_11  and  C_12
REMARK    6  A    between atoms: N_11  and  C_13
REMARK    7  A    between atoms: C_13  and  C_14
REMARK                            x       y       z     vdW  Elec       q    Type
REMARK                         _______ _______ _______ _____ _____    ______ ____
ROOT
ATOM      1  C   UNL     1      -4.109  -1.548  -2.452  0.00  0.00    +0.250 C 
ATOM      2  O   UNL     1      -5.221  -2.039  -2.474  0.00  0.00    -0.270 OA
ATOM      3  N   UNL     1      -3.516  -1.170  -3.601  0.00  0.00    -0.292 N 
ATOM      4  C   UNL     1      -2.142  -0.662  -3.584  0.00  0.00    +0.133 C 
ENDROOT
BRANCH   1   9
ATOM      5  C   UNL     1      -1.441  -1.632   0.187  0.00  0.00    -0.047 A 
ATOM      6  C   UNL     1      -2.091  -1.027   1.251  0.00  0.00    +0.007 A 
ATOM      7  C   UNL     1      -3.393  -0.591   1.117  0.00  0.00    +0.046 A 
ATOM      8  C   UNL     1      -4.062  -0.756  -0.087  0.00  0.00    +0.129 A 
ATOM      9  C   UNL     1      -3.408  -1.367  -1.166  0.00  0.00    +0.078 A 
ATOM     10  C   UNL     1      -2.088  -1.800  -1.018  0.00  0.00    +0.020 A 
BRANCH   5  12
ATOM     11  C   UNL     1       0.939  -0.974  -0.034  0.00  0.00    +0.009 C 
ATOM     12  C   UNL     1      -0.019  -2.104   0.347  0.00  0.00    +0.032 C 
ENDBRANCH   5  12
BRANCH   8  13
ATOM     13  O   UNL     1      -5.342  -0.328  -0.221  0.00  0.00    -0.506 OA
ATOM     14  H   UNL     1      -5.421   0.585  -0.529  0.00  0.00    +0.292 HD
ENDBRANCH   8  13
ENDBRANCH   1   9
BRANCH   3  15
ATOM     15  C   UNL     1      -4.245  -1.267  -4.868  0.00  0.00    +0.203 C 
BRANCH  15  16
ATOM     16  C   UNL     1      -4.986   0.021  -5.121  0.00  0.00    +0.236 C 
ATOM     17  O   UNL     1      -4.911   0.930  -4.322  0.00  0.00    -0.274 OA
ATOM     18  N   UNL     1      -5.730   0.163  -6.235  0.00  0.00    -0.269 N 
ATOM     19  C   UNL     1      -6.494   1.314  -6.421  0.00  0.00    +0.125 A 
ATOM     20  C   UNL     1      -7.348   1.405  -7.516  0.00  0.00    +0.045 A 
ATOM     21  C   UNL     1      -8.101   2.553  -7.689  0.00  0.00    +0.020 A 
ATOM     22  C   UNL     1      -7.974   3.575  -6.757  0.00  0.00    +0.036 A 
ATOM     23  C   UNL     1      -7.106   3.417  -5.694  0.00  0.00    +0.128 A 
ATOM     24  N   UNL     1      -6.405   2.308  -5.552  0.00  0.00    -0.239 NA
ATOM     25 BR   UNL     1      -8.977   5.167  -6.942  0.00  0.00    -0.049 Br
ATOM     26  H   UNL     1      -5.735  -0.536  -6.908  0.00  0.00    +0.156 HD
ENDBRANCH  15  16
ENDBRANCH   3  15
TORSDOF 5
