REMARK  Name = ZINC36584499
REMARK  8 active torsions:
REMARK  status: ('A' for Active; 'I' for Inactive)
REMARK    1  A    between atoms: C_4  and  C_7
REMARK    2  A    between atoms: C_7  and  C_9
REMARK    3  A    between atoms: C_7  and  O_28
REMARK    4  A    between atoms: C_9  and  N_10
REMARK    5  A    between atoms: C_11  and  C_13
REMARK    6  A    between atoms: C_13  and  S_14
REMARK    7  A    between atoms: S_14  and  C_15
REMARK    8  A    between atoms: C_26  and  O_27
REMARK                            x       y       z     vdW  Elec       q    Type
REMARK                         _______ _______ _______ _____ _____    ______ ____
ROOT
ATOM      1  C   UNL     1       7.262  -2.911   2.534  0.00  0.00    +0.165 C 
ENDROOT
BRANCH   1   3
ATOM      2  N   UNL     1       5.381  -1.791   1.383  0.00  0.00    -0.312 N 
ATOM      3  C   UNL     1       5.892  -2.284   2.529  0.00  0.00    +0.223 C 
ATOM      4  O   UNL     1       5.248  -2.223   3.555  0.00  0.00    -0.275 OA
ATOM      5  H   UNL     1       5.895  -1.840   0.562  0.00  0.00    +0.149 HD
BRANCH   2   6
ATOM      6  C   UNL     1       4.049  -1.182   1.377  0.00  0.00    +0.140 C 
BRANCH   6   7
ATOM      7  C   UNL     1       3.711  -0.707  -0.038  0.00  0.00    +0.162 C 
BRANCH   7  11
ATOM      8  C   UNL     1      -0.017   1.378   0.010  0.00  0.00    +0.000 A 
ATOM      9  C   UNL     1       1.171   2.086   0.002  0.00  0.00    +0.000 A 
ATOM     10  C   UNL     1       2.377   1.411  -0.013  0.00  0.00    +0.006 A 
ATOM     11  C   UNL     1       2.396   0.029  -0.020  0.00  0.00    -0.018 A 
ATOM     12  C   UNL     1       1.208  -0.679  -0.012  0.00  0.00    +0.006 A 
ATOM     13  C   UNL     1       0.002  -0.004   0.002  0.00  0.00    +0.000 A 
ENDBRANCH   7  11
BRANCH   7  14
ATOM     14  O   UNL     1       3.614  -1.836  -0.908  0.00  0.00    -0.386 OA
ATOM     15  H   UNL     1       2.934  -2.474  -0.651  0.00  0.00    +0.210 HD
ENDBRANCH   7  14
ENDBRANCH   6   7
ENDBRANCH   2   6
ENDBRANCH   1   3
BRANCH   1  16
ATOM     16  S   UNL     1       7.662  -3.474   4.212  0.00  0.00    -0.139 S 
BRANCH  16  17
ATOM     17  C   UNL     1       9.319  -4.194   4.049  0.00  0.00    +0.132 C 
ATOM     18  C   UNL     1       9.830  -4.563   5.421  0.00  0.00    +0.028 C 
ATOM     19  C   UNL     1      11.302  -4.839   5.447  0.00  0.00    +0.039 C 
ATOM     20  C   UNL     1      11.719  -6.160   4.881  0.00  0.00    -0.022 A 
ATOM     21  C   UNL     1      12.805  -6.770   5.504  0.00  0.00    +0.006 A 
ATOM     22  C   UNL     1      13.292  -7.984   5.072  0.00  0.00    +0.000 A 
ATOM     23  C   UNL     1      12.695  -8.615   3.995  0.00  0.00    +0.002 A 
ATOM     24  C   UNL     1      11.622  -8.029   3.373  0.00  0.00    +0.028 A 
ATOM     25  C   UNL     1      11.108  -6.788   3.808  0.00  0.00    +0.071 A 
ATOM     26  N   UNL     1      10.040  -6.343   3.119  0.00  0.00    -0.216 NA
ATOM     27  C   UNL     1       9.248  -5.372   3.145  0.00  0.00    +0.201 C 
BRANCH  27  28
ATOM     28  O   UNL     1       8.229  -5.397   2.262  0.00  0.00    -0.495 OA
ATOM     29  H   UNL     1       8.220  -6.180   1.694  0.00  0.00    +0.293 HD
ENDBRANCH  27  28
ENDBRANCH  16  17
ENDBRANCH   1  16
TORSDOF 8
