REMARK  Name = ZINC61870168
REMARK  7 active torsions:
REMARK  status: ('A' for Active; 'I' for Inactive)
REMARK    1  A    between atoms: C_1  and  C_2
REMARK    2  A    between atoms: C_2  and  C_3
REMARK    3  A    between atoms: C_3  and  C_5
REMARK    4  A    between atoms: C_3  and  C_6
REMARK    5  A    between atoms: C_9  and  C_12
REMARK    6  A    between atoms: C_12  and  C_14
REMARK    7  A    between atoms: C_12  and  O_21
REMARK                            x       y       z     vdW  Elec       q    Type
REMARK                         _______ _______ _______ _____ _____    ______ ____
ROOT
ATOM      1  C   UNL     1       0.657  -2.014   1.298  0.00  0.00    -0.045 A 
ATOM      2  C   UNL     1       1.179  -2.775   0.269  0.00  0.00    +0.004 A 
ATOM      3  C   UNL     1       1.101  -4.154   0.320  0.00  0.00    +0.007 A 
ATOM      4  C   UNL     1       0.500  -4.773   1.401  0.00  0.00    -0.013 A 
ATOM      5  C   UNL     1      -0.021  -4.012   2.431  0.00  0.00    +0.007 A 
ATOM      6  C   UNL     1       0.061  -2.633   2.381  0.00  0.00    +0.004 A 
ENDROOT
BRANCH   1   7
ATOM      7  C   UNL     1       0.742  -0.511   1.242  0.00  0.00    +0.016 C 
ATOM      8  C   UNL     1       2.210  -0.086   1.169  0.00  0.00    +0.012 C 
BRANCH   7  10
ATOM      9  C   UNL     1      -0.019   1.526   0.010  0.00  0.00    +0.004 C 
ATOM     10  C   UNL     1       0.002  -0.004   0.002  0.00  0.00    +0.004 C 
ENDBRANCH   7  10
ENDBRANCH   1   7
BRANCH   4  11
ATOM     11  C   UNL     1       0.414  -6.276   1.457  0.00  0.00    +0.193 C 
BRANCH  11  12
ATOM     12  C   UNL     1      -0.920  -6.723   0.919  0.00  0.00    +0.074 A 
ATOM     13  C   UNL     1      -0.968  -7.643  -0.112  0.00  0.00    +0.027 A 
ATOM     14  C   UNL     1      -2.201  -8.047  -0.600  0.00  0.00    +0.018 A 
ATOM     15  C   UNL     1      -3.345  -7.509  -0.030  0.00  0.00    +0.036 A 
ATOM     16  C   UNL     1      -3.219  -6.594   0.999  0.00  0.00    +0.126 A 
ATOM     17  N   UNL     1      -2.029  -6.237   1.441  0.00  0.00    -0.256 NA
ATOM     18 BR   UNL     1      -5.056  -8.021  -0.652  0.00  0.00    -0.049 Br
ENDBRANCH  11  12
BRANCH  11  19
ATOM     19  O   UNL     1       0.552  -6.711   2.811  0.00  0.00    -0.381 OA
ATOM     20  H   UNL     1      -0.127  -6.364   3.406  0.00  0.00    +0.211 HD
ENDBRANCH  11  19
ENDBRANCH   4  11
TORSDOF 5
