REMARK  Name = ZINC36484049
REMARK  8 active torsions:
REMARK  status: ('A' for Active; 'I' for Inactive)
REMARK    1  A    between atoms: C_3  and  N_8
REMARK    2  A    between atoms: N_8  and  C_11
REMARK    3  A    between atoms: C_11  and  C_13
REMARK    4  A    between atoms: C_11  and  C_22
REMARK    5  A    between atoms: C_14  and  O_21
REMARK    6  A    between atoms: C_16  and  O_20
REMARK    7  A    between atoms: C_18  and  O_19
REMARK    8  A    between atoms: N_24  and  C_25
REMARK                            x       y       z     vdW  Elec       q    Type
REMARK                         _______ _______ _______ _____ _____    ______ ____
ROOT
ATOM      1  C   UNL     1       4.802   1.375   0.086  0.00  0.00    +0.204 C 
ENDROOT
BRANCH   1   2
ATOM      2  C   UNL     1       5.089   2.294   1.245  0.00  0.00    +0.065 A 
ATOM      3  C   UNL     1       6.287   2.989   1.299  0.00  0.00    +0.129 A 
ATOM      4  C   UNL     1       6.551   3.835   2.366  0.00  0.00    +0.091 A 
ATOM      5  C   UNL     1       5.616   3.986   3.379  0.00  0.00    +0.124 A 
ATOM      6  C   UNL     1       4.417   3.291   3.325  0.00  0.00    +0.091 A 
ATOM      7  C   UNL     1       4.151   2.449   2.256  0.00  0.00    +0.129 A 
BRANCH   7   8
ATOM      8  O   UNL     1       2.974   1.772   2.200  0.00  0.00    -0.506 OA
ATOM      9  H   UNL     1       2.999   0.904   2.626  0.00  0.00    +0.292 HD
ENDBRANCH   7   8
BRANCH   5  10
ATOM     10  O   UNL     1       5.875   4.814   4.425  0.00  0.00    -0.507 OA
ATOM     11  H   UNL     1       5.581   5.725   4.287  0.00  0.00    +0.292 HD
ENDBRANCH   5  10
BRANCH   3  12
ATOM     12  O   UNL     1       7.204   2.841   0.307  0.00  0.00    -0.506 OA
ATOM     13  H   UNL     1       7.157   3.523  -0.377  0.00  0.00    +0.292 HD
ENDBRANCH   3  12
ENDBRANCH   1   2
BRANCH   1  14
ATOM     14  C   UNL     1       5.758   1.673  -1.040  0.00  0.00    +0.239 C 
ATOM     15  O   UNL     1       5.468   2.501  -1.878  0.00  0.00    -0.273 OA
ATOM     16  N   UNL     1       6.935   1.021  -1.116  0.00  0.00    -0.311 N 
ATOM     17  H   UNL     1       7.147   0.326  -0.473  0.00  0.00    +0.149 HD
BRANCH  16  18
ATOM     18  C   UNL     1       7.895   1.362  -2.168  0.00  0.00    +0.073 C 
ATOM     19  C   UNL     1       7.551   0.588  -3.442  0.00  0.00    +0.022 C 
ATOM     20  C   UNL     1       8.554   0.944  -4.542  0.00  0.00    +0.002 C 
ATOM     21  C   UNL     1       9.966   0.572  -4.085  0.00  0.00    +0.000 C 
ATOM     22  C   UNL     1      10.310   1.347  -2.811  0.00  0.00    +0.002 C 
ATOM     23  C   UNL     1       9.307   0.991  -1.711  0.00  0.00    +0.022 C 
ENDBRANCH  16  18
ENDBRANCH   1  14
BRANCH   1  24
ATOM     24  N   UNL     1       3.426   1.582  -0.373  0.00  0.00    -0.258 N 
ATOM     25  C   UNL     1       2.999   2.822  -0.683  0.00  0.00    +0.333 C 
ATOM     26  O   UNL     1       3.776   3.754  -0.662  0.00  0.00    -0.279 OA
BRANCH  24  29
ATOM     27  C   UNL     1       0.364  -0.377  -0.928  0.00  0.00    +0.003 A 
ATOM     28  C   UNL     1       1.222   0.700  -0.812  0.00  0.00    +0.023 A 
ATOM     29  C   UNL     1       2.556   0.493  -0.490  0.00  0.00    +0.039 A 
ATOM     30  C   UNL     1       3.026  -0.798  -0.285  0.00  0.00    +0.043 A 
ATOM     31  C   UNL     1       2.163  -1.872  -0.401  0.00  0.00    +0.043 A 
ATOM     32  C   UNL     1       0.833  -1.661  -0.723  0.00  0.00    +0.020 A 
ATOM     33 CL   UNL     1       2.748  -3.486  -0.145  0.00  0.00    -0.083 Cl
ENDBRANCH  24  29
ENDBRANCH   1  24
TORSDOF 8
