REMARK  Name = ZINC59240352
REMARK  9 active torsions:
REMARK  status: ('A' for Active; 'I' for Inactive)
REMARK    1  A    between atoms: C_1  and  C_2
REMARK    2  A    between atoms: C_4  and  C_27
REMARK    3  A    between atoms: C_7  and  N_8
REMARK    4  A    between atoms: C_9  and  C_11
REMARK    5  A    between atoms: C_11  and  C_13
REMARK    6  A    between atoms: C_11  and  S_19
REMARK    7  A    between atoms: S_19  and  C_20
REMARK    8  A    between atoms: C_27  and  C_29
REMARK    9  A    between atoms: C_27  and  C_31
REMARK                            x       y       z     vdW  Elec       q    Type
REMARK                         _______ _______ _______ _____ _____    ______ ____
ROOT
ATOM      1  C   UNL     1      -0.848   0.347   1.349  0.00  0.00    +0.045 C 
ATOM      2  C   UNL     1      -0.050  -0.791   0.769  0.00  0.00    -0.029 A 
ATOM      3  C   UNL     1      -0.333  -1.259  -0.500  0.00  0.00    +0.011 A 
ATOM      4  C   UNL     1       0.399  -2.303  -1.033  0.00  0.00    -0.008 A 
ATOM      5  C   UNL     1       1.418  -2.884  -0.298  0.00  0.00    +0.047 A 
ATOM      6  C   UNL     1       1.706  -2.421   0.972  0.00  0.00    +0.044 A 
ATOM      7  C   UNL     1       0.975  -1.368   1.508  0.00  0.00    +0.038 A 
ATOM      8 CL   UNL     1       2.334  -4.196  -0.971  0.00  0.00    -0.083 Cl
ENDROOT
BRANCH   7   9
ATOM      9  N   UNL     1       1.268  -0.893   2.791  0.00  0.00    -0.284 N 
ATOM     10  C   UNL     1       1.762  -1.731   3.724  0.00  0.00    +0.235 C 
ATOM     11  O   UNL     1       2.030  -2.876   3.428  0.00  0.00    -0.274 OA
ATOM     12  H   UNL     1       1.115   0.040   3.009  0.00  0.00    +0.155 HD
BRANCH  10  13
ATOM     13  C   UNL     1       1.980  -1.245   5.133  0.00  0.00    +0.167 C 
BRANCH  13  14
ATOM     14  C   UNL     1       3.270  -0.469   5.202  0.00  0.00    -0.025 A 
ATOM     15  C   UNL     1       4.464  -1.079   4.866  0.00  0.00    +0.005 A 
ATOM     16  C   UNL     1       5.647  -0.367   4.929  0.00  0.00    +0.000 A 
ATOM     17  C   UNL     1       5.636   0.956   5.329  0.00  0.00    +0.000 A 
ATOM     18  C   UNL     1       4.442   1.567   5.665  0.00  0.00    +0.000 A 
ATOM     19  C   UNL     1       3.259   0.856   5.597  0.00  0.00    +0.005 A 
ENDBRANCH  13  14
BRANCH  13  20
ATOM     20  S   UNL     1       2.070  -2.667   6.256  0.00  0.00    -0.108 S 
BRANCH  20  21
ATOM     21  C   UNL     1       2.176  -1.940   7.857  0.00  0.00    +0.009 A 
ATOM     22  C   UNL     1       2.169  -0.557   7.996  0.00  0.00    +0.015 A 
ATOM     23  C   UNL     1       2.252   0.010   9.253  0.00  0.00    +0.001 A 
ATOM     24  C   UNL     1       2.343  -0.797  10.372  0.00  0.00    +0.000 A 
ATOM     25  C   UNL     1       2.350  -2.174  10.238  0.00  0.00    +0.001 A 
ATOM     26  C   UNL     1       2.261  -2.747   8.985  0.00  0.00    +0.015 A 
ENDBRANCH  20  21
ENDBRANCH  13  20
ENDBRANCH  10  13
ENDBRANCH   7   9
BRANCH   4  27
ATOM     27  C   UNL     1       0.086  -2.811  -2.417  0.00  0.00    +0.153 C 
BRANCH  27  28
ATOM     28  C   UNL     1      -1.287  -3.431  -2.426  0.00  0.00    -0.026 A 
ATOM     29  C   UNL     1      -2.406  -2.634  -2.269  0.00  0.00    +0.006 A 
ATOM     30  C   UNL     1      -3.666  -3.201  -2.278  0.00  0.00    +0.020 A 
ATOM     31  C   UNL     1      -3.808  -4.567  -2.444  0.00  0.00    +0.041 A 
ATOM     32  C   UNL     1      -2.688  -5.365  -2.601  0.00  0.00    +0.020 A 
ATOM     33  C   UNL     1      -1.429  -4.795  -2.598  0.00  0.00    +0.006 A 
ATOM     34 CL   UNL     1      -5.390  -5.281  -2.454  0.00  0.00    -0.084 Cl
ENDBRANCH  27  28
BRANCH  27  35
ATOM     35  C   UNL     1       0.126  -1.691  -3.371  0.00  0.00    +0.075 C 
ATOM     36  N   UNL     1       0.157  -0.826  -4.107  0.00  0.00    -0.196 NA
ENDBRANCH  27  35
ENDBRANCH   4  27
TORSDOF 8
