REMARK  Name = ZINC00912783
REMARK  3 active torsions:
REMARK  status: ('A' for Active; 'I' for Inactive)
REMARK    1  A    between atoms: C_1  and  C_2
REMARK    2  A    between atoms: C_5  and  C_8
REMARK    3  A    between atoms: C_13  and  C_18
REMARK                            x       y       z     vdW  Elec       q    Type
REMARK                         _______ _______ _______ _____ _____    ______ ____
ROOT
ATOM      1  C   UNL     1       0.059  -4.275  -0.021  0.00  0.00    +0.089 C 
ATOM      2  C   UNL     1      -1.166  -4.799   0.694  0.00  0.00    +0.024 C 
ATOM      3  C   UNL     1      -1.102  -5.341   1.927  0.00  0.00    +0.016 C 
ATOM      4  C   UNL     1      -2.348  -5.856   2.611  0.00  0.00    +0.062 C 
ATOM      5  C   UNL     1      -3.559  -5.036   2.163  0.00  0.00    +0.068 C 
ATOM      6  C   UNL     1      -3.682  -5.153   0.640  0.00  0.00    +0.091 C 
ATOM      7  C   UNL     1      -2.395  -4.694   0.012  0.00  0.00    +0.162 C 
ATOM      8  O   UNL     1      -2.415  -4.223  -1.107  0.00  0.00    -0.292 OA
ATOM      9  N   UNL     1       0.081  -5.459   2.615  0.00  0.00    -0.317 N 
ATOM     10  C   UNL     1       1.265  -5.318   1.931  0.00  0.00    +0.047 C 
ATOM     11  C   UNL     1       1.300  -4.764   0.677  0.00  0.00    +0.033 C 
ATOM     12  C   UNL     1       2.631  -4.744   0.204  0.00  0.00    +0.193 C 
ATOM     13  O   UNL     1       3.006  -4.320  -0.872  0.00  0.00    -0.287 OA
ATOM     14  C   UNL     1       3.486  -5.330   1.259  0.00  0.00    +0.031 A 
ATOM     15  C   UNL     1       2.628  -5.685   2.329  0.00  0.00    +0.007 A 
ATOM     16  C   UNL     1       3.131  -6.267   3.481  0.00  0.00    +0.010 A 
ATOM     17  C   UNL     1       4.511  -6.483   3.532  0.00  0.00    +0.001 A 
ATOM     18  C   UNL     1       5.341  -6.137   2.492  0.00  0.00    +0.001 A 
ATOM     19  C   UNL     1       4.848  -5.550   1.325  0.00  0.00    +0.012 A 
ATOM     20  H   UNL     1       0.081  -5.638   3.569  0.00  0.00    +0.152 HD
ENDROOT
BRANCH   1  25
ATOM     21  C   UNL     1      -0.018   1.503   0.010  0.00  0.00    +0.044 C 
ATOM     22  C   UNL     1       0.002  -0.004   0.002  0.00  0.00    -0.050 A 
ATOM     23  C   UNL     1       0.006  -0.689  -1.199  0.00  0.00    +0.003 A 
ATOM     24  C   UNL     1       0.025  -2.071  -1.206  0.00  0.00    +0.005 A 
ATOM     25  C   UNL     1       0.040  -2.768  -0.013  0.00  0.00    -0.035 A 
ATOM     26  C   UNL     1       0.037  -2.084   1.188  0.00  0.00    +0.005 A 
ATOM     27  C   UNL     1       0.023  -0.702   1.195  0.00  0.00    +0.003 A 
ENDBRANCH   1  25
BRANCH   5  28
ATOM     28  C   UNL     1      -4.806  -5.573   2.817  0.00  0.00    +0.109 A 
ATOM     29  C   UNL     1      -5.629  -4.883   3.627  0.00  0.00    +0.045 A 
ATOM     30  C   UNL     1      -6.663  -5.768   4.010  0.00  0.00    +0.041 A 
ATOM     31  C   UNL     1      -6.411  -6.945   3.410  0.00  0.00    +0.195 A 
ATOM     32  O   UNL     1      -5.288  -6.819   2.684  0.00  0.00    -0.468 OA
ENDBRANCH   5  28
TORSDOF 2
