REMARK  Name = ZINC21239721
REMARK  5 active torsions:
REMARK  status: ('A' for Active; 'I' for Inactive)
REMARK    1  A    between atoms: C_1  and  C_2
REMARK    2  A    between atoms: C_2  and  O_3
REMARK    3  A    between atoms: O_3  and  C_4
REMARK    4  A    between atoms: C_7  and  C_10
REMARK    5  A    between atoms: C_15  and  C_25
REMARK                            x       y       z     vdW  Elec       q    Type
REMARK                         _______ _______ _______ _____ _____    ______ ____
ROOT
ATOM      1  C   UNL     1       0.030   6.874  -1.642  0.00  0.00    +0.032 C 
ATOM      2  C   UNL     1       1.083   5.799  -1.373  0.00  0.00    +0.059 C 
ATOM      3  C   UNL     1       0.403   4.504  -0.961  0.00  0.00    +0.017 C 
ATOM      4  C   UNL     1      -0.794   4.171  -1.471  0.00  0.00    +0.037 C 
ATOM      5  C   UNL     1      -1.566   2.909  -1.171  0.00  0.00    +0.139 C 
ATOM      6  N   UNL     1      -1.053   2.140  -0.057  0.00  0.00    -0.331 N 
ATOM      7  C   UNL     1       0.210   1.551  -0.108  0.00  0.00    +0.049 A 
ATOM      8  C   UNL     1       0.369   0.175  -0.120  0.00  0.00    +0.025 A 
ATOM      9  C   UNL     1       1.637  -0.362  -0.258  0.00  0.00    +0.002 A 
ATOM     10  C   UNL     1       2.738   0.467  -0.382  0.00  0.00    +0.002 A 
ATOM     11  C   UNL     1       2.584   1.843  -0.354  0.00  0.00    +0.025 A 
ATOM     12  C   UNL     1       1.318   2.381  -0.199  0.00  0.00    +0.052 A 
ATOM     13  N   UNL     1       1.104   3.749  -0.077  0.00  0.00    -0.316 N 
ATOM     14  C   UNL     1      -1.453   5.045  -2.368  0.00  0.00    +0.163 C 
ATOM     15  O   UNL     1      -2.526   4.710  -2.829  0.00  0.00    -0.292 OA
ATOM     16  C   UNL     1      -0.875   6.368  -2.772  0.00  0.00    +0.088 C 
ATOM     17  H   UNL     1      -1.661   2.013   0.850  0.00  0.00    +0.147 HD
ATOM     18  H   UNL     1       1.550   4.216   0.813  0.00  0.00    +0.152 HD
ENDROOT
BRANCH   5  19
ATOM     19  C   UNL     1      -1.550   2.037  -2.401  0.00  0.00    +0.015 A 
ATOM     20  C   UNL     1      -0.626   2.270  -3.402  0.00  0.00    +0.047 A 
ATOM     21  C   UNL     1      -0.609   1.466  -4.528  0.00  0.00    +0.124 A 
ATOM     22  C   UNL     1      -1.524   0.435  -4.657  0.00  0.00    +0.041 A 
ATOM     23  C   UNL     1      -2.450   0.205  -3.659  0.00  0.00    +0.041 A 
ATOM     24  C   UNL     1      -2.465   1.005  -2.529  0.00  0.00    +0.129 A 
ATOM     25  F   UNL     1      -3.371   0.780  -1.553  0.00  0.00    -0.205 F 
ATOM     26  F   UNL     1       0.298   1.691  -5.504  0.00  0.00    -0.205 F 
ENDBRANCH   5  19
BRANCH   1  30
ATOM     27  C   UNL     1       1.937  10.509  -2.830  0.00  0.00    +0.121 A 
ATOM     28  C   UNL     1       1.113  10.489  -1.715  0.00  0.00    +0.046 A 
ATOM     29  C   UNL     1       0.498   9.312  -1.332  0.00  0.00    +0.007 A 
ATOM     30  C   UNL     1       0.703   8.155  -2.061  0.00  0.00    -0.043 A 
ATOM     31  C   UNL     1       1.528   8.171  -3.170  0.00  0.00    +0.007 A 
ATOM     32  C   UNL     1       2.141   9.346  -3.560  0.00  0.00    +0.046 A 
BRANCH  27  33
ATOM     33  O   UNL     1       2.543  11.665  -3.208  0.00  0.00    -0.492 OA
BRANCH  33  35
ATOM     34  C   UNL     1       3.969  12.996  -4.635  0.00  0.00    +0.048 C 
ATOM     35  C   UNL     1       3.378  11.611  -4.367  0.00  0.00    +0.225 C 
ENDBRANCH  33  35
ENDBRANCH  27  33
ENDBRANCH   1  30
TORSDOF 4
