REMARK  Name = ZINC18320650
REMARK  6 active torsions:
REMARK  status: ('A' for Active; 'I' for Inactive)
REMARK    1  A    between atoms: C_2  and  C_3
REMARK    2  A    between atoms: C_3  and  N_4
REMARK    3  A    between atoms: C_14  and  S_15
REMARK    4  A    between atoms: S_15  and  C_16
REMARK    5  A    between atoms: C_16  and  C_17
REMARK    6  A    between atoms: C_25  and  N_27
REMARK                            x       y       z     vdW  Elec       q    Type
REMARK                         _______ _______ _______ _____ _____    ______ ____
ROOT
ATOM      1  S   UNL     1      -1.855  -1.027  -1.692  0.00  0.00    -0.080 S 
ENDROOT
BRANCH   1  12
ATOM      2  N   UNL     1      -4.111  -2.284  -2.463  0.00  0.00    -0.283 N 
ATOM      3  C   UNL     1      -5.280  -2.942  -2.279  0.00  0.00    +0.263 A 
ATOM      4  O   UNL     1      -5.954  -3.309  -3.224  0.00  0.00    -0.267 OA
ATOM      5  C   UNL     1      -5.704  -3.196  -0.895  0.00  0.00    +0.065 A 
ATOM      6  C   UNL     1      -6.891  -3.865  -0.600  0.00  0.00    +0.015 A 
ATOM      7  C   UNL     1      -7.239  -4.076   0.706  0.00  0.00    +0.001 A 
ATOM      8  C   UNL     1      -6.423  -3.630   1.738  0.00  0.00    +0.002 A 
ATOM      9  C   UNL     1      -5.255  -2.971   1.477  0.00  0.00    +0.028 A 
ATOM     10  C   UNL     1      -4.872  -2.741   0.153  0.00  0.00    +0.079 A 
ATOM     11  N   UNL     1      -3.725  -2.099  -0.150  0.00  0.00    -0.223 NA
ATOM     12  C   UNL     1      -3.368  -1.879  -1.391  0.00  0.00    +0.173 A 
BRANCH   2  13
ATOM     13  C   UNL     1      -3.640  -2.005  -3.822  0.00  0.00    +0.154 C 
BRANCH  13  15
ATOM     14  C   UNL     1      -3.074  -3.757  -5.425  0.00  0.00    +0.005 C 
ATOM     15  C   UNL     1      -2.784  -3.148  -4.302  0.00  0.00    -0.013 C 
ENDBRANCH  13  15
ENDBRANCH   2  13
ENDBRANCH   1  12
BRANCH   1  16
ATOM     16  C   UNL     1      -1.312  -0.741   0.011  0.00  0.00    +0.153 C 
BRANCH  16  17
ATOM     17  C   UNL     1       0.002  -0.004   0.002  0.00  0.00    +0.142 A 
ATOM     18  N   UNL     1       1.112  -0.703  -0.012  0.00  0.00    -0.231 NA
ATOM     19  C   UNL     1       2.304  -0.087  -0.021  0.00  0.00    +0.076 A 
ATOM     20  C   UNL     1       3.509  -0.802  -0.037  0.00  0.00    +0.028 A 
ATOM     21  C   UNL     1       4.692  -0.125  -0.045  0.00  0.00    +0.002 A 
ATOM     22  C   UNL     1       4.723   1.266  -0.039  0.00  0.00    +0.001 A 
ATOM     23  C   UNL     1       3.569   1.993  -0.023  0.00  0.00    +0.013 A 
ATOM     24  C   UNL     1       2.337   1.329  -0.013  0.00  0.00    +0.040 A 
ATOM     25  C   UNL     1       1.106   2.027   0.002  0.00  0.00    +0.127 A 
ATOM     26  N   UNL     1      -0.016   1.319   0.009  0.00  0.00    -0.216 NA
BRANCH  25  27
ATOM     27  N   UNL     1       1.073   3.405   0.010  0.00  0.00    -0.343 N 
ATOM     28  H   UNL     1       0.222   3.870   0.020  0.00  0.00    +0.144 HD
ATOM     29  H   UNL     1       1.901   3.910   0.004  0.00  0.00    +0.144 HD
ENDBRANCH  25  27
ENDBRANCH  16  17
ENDBRANCH   1  16
TORSDOF 6
