REMARK  Name = ZINC12547120
REMARK  9 active torsions:
REMARK  status: ('A' for Active; 'I' for Inactive)
REMARK    1  A    between atoms: C_1  and  C_2
REMARK    2  A    between atoms: C_4  and  C_8
REMARK    3  A    between atoms: N_10  and  N_11
REMARK    4  A    between atoms: N_11  and  C_12
REMARK    5  A    between atoms: C_12  and  N_14
REMARK    6  A    between atoms: C_15  and  C_17
REMARK    7  A    between atoms: C_17  and  C_19
REMARK    8  A    between atoms: C_17  and  O_20
REMARK    9  A    between atoms: O_20  and  C_21
REMARK                            x       y       z     vdW  Elec       q    Type
REMARK                         _______ _______ _______ _____ _____    ______ ____
ROOT
ATOM      1  C   UNL     1       2.383  -3.065   0.265  0.00  0.00    +0.153 C 
ATOM      2  S   UNL     1       2.516  -4.748  -0.015  0.00  0.00    -0.017 S 
ENDROOT
BRANCH   1   3
ATOM      3  N   UNL     1       3.490  -2.297   0.298  0.00  0.00    -0.264 N 
ATOM      4  C   UNL     1       4.703  -2.856   0.110  0.00  0.00    +0.259 C 
ATOM      5  O   UNL     1       4.797  -4.048  -0.088  0.00  0.00    -0.271 OA
ATOM      6  H   UNL     1       3.415  -1.343   0.457  0.00  0.00    +0.157 HD
BRANCH   4   7
ATOM      7  C   UNL     1       5.941  -1.998   0.147  0.00  0.00    +0.256 C 
ATOM      8  C   UNL     1       5.912  -1.009  -1.021  0.00  0.00    +0.062 C 
BRANCH   7   9
ATOM      9  O   UNL     1       7.099  -2.828   0.040  0.00  0.00    -0.478 OA
BRANCH   9  10
ATOM     10  C   UNL     1       8.257  -2.342   0.560  0.00  0.00    +0.140 A 
ATOM     11  C   UNL     1       8.306  -1.049   1.060  0.00  0.00    +0.048 A 
ATOM     12  C   UNL     1       9.482  -0.559   1.593  0.00  0.00    +0.023 A 
ATOM     13  C   UNL     1      10.615  -1.353   1.620  0.00  0.00    +0.043 A 
ATOM     14  C   UNL     1      10.571  -2.642   1.118  0.00  0.00    +0.043 A 
ATOM     15  C   UNL     1       9.394  -3.138   0.588  0.00  0.00    +0.084 A 
ATOM     16 CL   UNL     1       9.339  -4.754  -0.042  0.00  0.00    -0.080 Cl
ATOM     17 CL   UNL     1      12.093  -0.732   2.285  0.00  0.00    -0.083 Cl
ENDBRANCH   9  10
ENDBRANCH   7   9
ENDBRANCH   4   7
ENDBRANCH   1   3
BRANCH   1  18
ATOM     18  N   UNL     1       1.171  -2.506   0.452  0.00  0.00    -0.245 N 
ATOM     19  H   UNL     1       0.373  -3.059   0.429  0.00  0.00    +0.172 HD
BRANCH  18  22
ATOM     20  C   UNL     1      -0.151  -0.571   0.869  0.00  0.00    +0.278 C 
ATOM     21  O   UNL     1      -1.150  -1.263   0.839  0.00  0.00    -0.267 OA
ATOM     22  N   UNL     1       1.062  -1.129   0.682  0.00  0.00    -0.230 N 
ATOM     23  H   UNL     1       1.859  -0.577   0.705  0.00  0.00    +0.173 HD
BRANCH  20  27
ATOM     24  C   UNL     1      -1.923   4.097   1.760  0.00  0.00    +0.067 C 
ATOM     25  C   UNL     1      -1.022   2.918   1.498  0.00  0.00    +0.060 A 
ATOM     26  C   UNL     1      -1.430   1.595   1.314  0.00  0.00    +0.057 A 
ATOM     27  C   UNL     1      -0.265   0.877   1.110  0.00  0.00    +0.122 A 
ATOM     28  N   UNL     1       0.757   1.781   1.171  0.00  0.00    -0.272 N 
ATOM     29  H   UNL     1       1.726   1.564   1.058  0.00  0.00    +0.189 HD
ATOM     30  N   UNL     1       0.283   2.953   1.398  0.00  0.00    -0.178 NA
ENDBRANCH  20  27
ENDBRANCH  18  22
ENDBRANCH   1  18
TORSDOF 7
