REMARK  Name = ZINC05297523
REMARK  11 active torsions:
REMARK  status: ('A' for Active; 'I' for Inactive)
REMARK    1  A    between atoms: C_1  and  C_2
REMARK    2  A    between atoms: C_2  and  C_27
REMARK    3  A    between atoms: C_4  and  C_8
REMARK    4  A    between atoms: C_4  and  C_19
REMARK    5  A    between atoms: C_8  and  C_9
REMARK    6  A    between atoms: C_9  and  N_59
REMARK    7  A    between atoms: C_10  and  C_11
REMARK    8  A    between atoms: C_10  and  N_59
REMARK    9  A    between atoms: C_14  and  O_17
REMARK   10  A    between atoms: O_17  and  C_18
REMARK   11  A    between atoms: C_19  and  C_20
REMARK                            x       y       z     vdW  Elec       q    Type
REMARK                         _______ _______ _______ _____ _____    ______ ____
ROOT
ATOM      1  C   UNL     1       6.195   5.752  -3.023  0.00  0.00    +0.041 C 
ATOM      2  C   UNL     1       4.923   4.927  -2.814  0.00  0.00    +0.064 C 
ATOM      3  C   UNL     1       4.677   4.740  -1.315  0.00  0.00    +0.041 C 
ATOM      4  C   UNL     1       3.372   3.965  -1.113  0.00  0.00    -0.022 C 
ATOM      5  C   UNL     1       2.230   4.721  -1.799  0.00  0.00    +0.035 C 
ATOM      6  C   UNL     1       2.571   4.909  -3.280  0.00  0.00    +0.161 C 
ATOM      7  O   UNL     1       3.811   5.609  -3.397  0.00  0.00    -0.374 OA
ATOM      8  C   UNL     1       5.088   3.559  -3.479  0.00  0.00    +0.041 C 
ENDROOT
BRANCH   4   9
ATOM      9  C   UNL     1       3.504   2.569  -1.726  0.00  0.00    -0.012 C 
BRANCH   9  10
ATOM     10  C   UNL     1       2.269   1.738  -1.374  0.00  0.00    -0.082 C 
BRANCH  10  11
ATOM     11  N   UNL     1       2.443   0.369  -1.896  0.00  0.00    +0.382 N 
ATOM     12  H   UNL     1       3.278  -0.051  -1.472  0.00  0.00    -0.085 HD
ATOM     13  H   UNL     1       2.559   0.407  -2.915  0.00  0.00    -0.085 HD
BRANCH  11  14
ATOM     14  C   UNL     1       1.264  -0.456  -1.571  0.00  0.00    -0.047 C 
BRANCH  14  15
ATOM     15  C   UNL     1       1.470  -1.847  -2.115  0.00  0.00    -0.064 A 
ATOM     16  C   UNL     1       1.045  -2.157  -3.393  0.00  0.00    +0.005 A 
ATOM     17  C   UNL     1       1.237  -3.429  -3.896  0.00  0.00    +0.046 A 
ATOM     18  C   UNL     1       1.847  -4.399  -3.114  0.00  0.00    +0.120 A 
ATOM     19  C   UNL     1       2.268  -4.086  -1.829  0.00  0.00    +0.046 A 
ATOM     20  C   UNL     1       2.078  -2.811  -1.333  0.00  0.00    +0.005 A 
BRANCH  18  21
ATOM     21  O   UNL     1       2.033  -5.652  -3.604  0.00  0.00    -0.495 OA
ATOM     22  C   UNL     1       1.575  -5.902  -4.935  0.00  0.00    +0.277 C 
ENDBRANCH  18  21
ENDBRANCH  14  15
ENDBRANCH  11  14
ENDBRANCH  10  11
ENDBRANCH   9  10
ENDBRANCH   4   9
BRANCH   4  23
ATOM     23  C   UNL     1       3.076   3.841   0.383  0.00  0.00    +0.043 C 
BRANCH  23  24
ATOM     24  C   UNL     1       2.891   5.215   0.974  0.00  0.00    -0.029 A 
ATOM     25  C   UNL     1       3.980   5.908   1.467  0.00  0.00    +0.005 A 
ATOM     26  C   UNL     1       3.810   7.168   2.010  0.00  0.00    +0.000 A 
ATOM     27  C   UNL     1       2.551   7.737   2.055  0.00  0.00    +0.001 A 
ATOM     28  C   UNL     1       1.460   7.043   1.568  0.00  0.00    +0.020 A 
ATOM     29  C   UNL     1       1.630   5.781   1.025  0.00  0.00    +0.044 A 
ATOM     30 CL   UNL     1       0.261   4.911   0.406  0.00  0.00    -0.083 Cl
ENDBRANCH  23  24
ENDBRANCH   4  23
TORSDOF 8
