REMARK  Name = ZINC63491867
REMARK  10 active torsions:
REMARK  status: ('A' for Active; 'I' for Inactive)
REMARK    1  A    between atoms: C_1  and  C_2
REMARK    2  A    between atoms: C_2  and  C_3
REMARK    3  A    between atoms: C_2  and  C_4
REMARK    4  A    between atoms: C_4  and  C_5
REMARK    5  A    between atoms: C_5  and  N_6
REMARK    6  A    between atoms: C_7  and  C_9
REMARK    7  A    between atoms: C_9  and  C_32
REMARK    8  A    between atoms: N_20  and  C_21
REMARK    9  A    between atoms: C_21  and  C_22
REMARK   10  A    between atoms: C_22  and  C_23
REMARK                            x       y       z     vdW  Elec       q    Type
REMARK                         _______ _______ _______ _____ _____    ______ ____
ROOT
ATOM      1  C   UNL     1      -4.590  -4.457  -0.358  0.00  0.00    +0.111 C 
ATOM      2  C   UNL     1      -4.599  -5.887   0.169  0.00  0.00    +0.040 C 
ATOM      3  C   UNL     1      -6.028  -6.355   0.439  0.00  0.00    +0.038 C 
ATOM      4  C   UNL     1      -6.934  -5.954  -0.695  0.00  0.00    -0.035 A 
ATOM      5  C   UNL     1      -7.373  -6.885  -1.611  0.00  0.00    +0.004 A 
ATOM      6  C   UNL     1      -8.216  -6.500  -2.639  0.00  0.00    +0.000 A 
ATOM      7  C   UNL     1      -8.623  -5.183  -2.754  0.00  0.00    +0.001 A 
ATOM      8  C   UNL     1      -8.186  -4.239  -1.847  0.00  0.00    +0.013 A 
ATOM      9  C   UNL     1      -7.333  -4.621  -0.814  0.00  0.00    +0.040 A 
ATOM     10  C   UNL     1      -6.820  -3.627   0.155  0.00  0.00    +0.248 C 
ATOM     11  O   UNL     1      -7.573  -2.850   0.709  0.00  0.00    -0.270 OA
ATOM     12  N   UNL     1      -5.495  -3.604   0.409  0.00  0.00    -0.283 N 
ATOM     13  C   UNL     1      -5.029  -4.462  -1.824  0.00  0.00    +0.042 C 
ENDROOT
BRANCH   1  15
ATOM     14  N   UNL     1      -2.978  -2.583  -0.413  0.00  0.00    -0.314 N 
ATOM     15  C   UNL     1      -3.192  -3.905  -0.263  0.00  0.00    +0.236 C 
ATOM     16  O   UNL     1      -2.258  -4.650  -0.051  0.00  0.00    -0.273 OA
ATOM     17  H   UNL     1      -3.729  -1.978  -0.516  0.00  0.00    +0.149 HD
BRANCH  14  18
ATOM     18  C   UNL     1      -1.609  -2.058  -0.420  0.00  0.00    +0.104 C 
BRANCH  18  19
ATOM     19  C   UNL     1      -1.639  -0.560  -0.728  0.00  0.00    +0.022 C 
BRANCH  19  21
ATOM     20  C   UNL     1      -0.237   1.421  -1.321  0.00  0.00    +0.007 C 
ATOM     21  C   UNL     1      -0.207  -0.038  -0.863  0.00  0.00    -0.016 C 
ATOM     22  C   UNL     1       0.500  -0.133   0.490  0.00  0.00    +0.007 C 
ENDBRANCH  19  21
ENDBRANCH  18  19
ENDBRANCH  14  18
ENDBRANCH   1  15
BRANCH  12  23
ATOM     23  C   UNL     1      -4.964  -2.725   1.454  0.00  0.00    +0.113 C 
BRANCH  23  24
ATOM     24  C   UNL     1      -4.929  -3.478   2.785  0.00  0.00    +0.052 C 
BRANCH  24  25
ATOM     25  C   UNL     1      -4.500  -2.539   3.883  0.00  0.00    -0.040 C 
ATOM     26  C   UNL     1      -5.304  -1.845   4.720  0.00  0.00    -0.001 A 
ATOM     27  C   UNL     1      -6.763  -1.760   4.854  0.00  0.00    +0.010 A 
ATOM     28  C   UNL     1      -7.289  -0.960   5.809  0.00  0.00    +0.001 A 
ATOM     29  C   UNL     1      -6.477  -0.212   6.672  0.00  0.00    +0.002 A 
ATOM     30  C   UNL     1      -5.129  -0.238   6.611  0.00  0.00    +0.026 A 
ATOM     31  C   UNL     1      -4.469  -1.045   5.644  0.00  0.00    +0.043 A 
ATOM     32  N   UNL     1      -3.198  -1.237   5.388  0.00  0.00    -0.380 N 
ATOM     33  C   UNL     1      -3.083  -2.186   4.275  0.00  0.00    +0.144 C 
ATOM     34  H   UNL     1      -2.457  -0.824   5.858  0.00  0.00    +0.160 HD
ENDBRANCH  24  25
ENDBRANCH  23  24
ENDBRANCH  12  23
TORSDOF 7
