REMARK  Name = ZINC26288832
REMARK  10 active torsions:
REMARK  status: ('A' for Active; 'I' for Inactive)
REMARK    1  A    between atoms: C_1  and  C_2
REMARK    2  A    between atoms: C_5  and  C_7
REMARK    3  A    between atoms: C_7  and  C_8
REMARK    4  A    between atoms: C_7  and  C_27
REMARK    5  A    between atoms: C_7  and  O_31
REMARK    6  A    between atoms: C_8  and  C_9
REMARK    7  A    between atoms: C_9  and  N_10
REMARK    8  A    between atoms: N_13  and  C_14
REMARK    9  A    between atoms: C_14  and  C_16
REMARK   10  A    between atoms: C_14  and  C_22
REMARK                            x       y       z     vdW  Elec       q    Type
REMARK                         _______ _______ _______ _____ _____    ______ ____
ROOT
ATOM      1  N   UNL     1      -1.551  -1.938  -0.162  0.00  0.00    -0.299 N 
ATOM      2  C   UNL     1      -2.735  -2.582  -0.161  0.00  0.00    +0.300 C 
ATOM      3  O   UNL     1      -3.772  -1.948  -0.141  0.00  0.00    -0.253 OA
ATOM      4  N   UNL     1      -2.769  -3.929  -0.184  0.00  0.00    -0.288 N 
ATOM      5  H   UNL     1      -0.613  -2.512  -0.180  0.00  0.00    +0.150 HD
ATOM      6  H   UNL     1      -1.831  -4.503  -0.203  0.00  0.00    +0.151 HD
ENDROOT
BRANCH   1   7
ATOM      7  C   UNL     1      -1.514  -0.474  -0.137  0.00  0.00    +0.109 C 
BRANCH   7   8
ATOM      8  C   UNL     1      -0.059  -0.000  -0.143  0.00  0.00    +0.071 C 
BRANCH   8   9
ATOM      9  C   UNL     1      -0.017   1.521   0.013  0.00  0.00    +0.220 C 
BRANCH   9  14
ATOM     10  C   UNL     1      -1.557   1.326   4.812  0.00  0.00    +0.086 C 
ATOM     11  C   UNL     1      -1.323   1.825   3.410  0.00  0.00    +0.102 A 
ATOM     12  C   UNL     1      -1.734   3.007   2.917  0.00  0.00    +0.045 A 
ATOM     13  C   UNL     1      -1.302   3.062   1.571  0.00  0.00    +0.048 A 
ATOM     14  C   UNL     1      -0.653   1.910   1.323  0.00  0.00    +0.146 A 
ATOM     15  O   UNL     1      -0.674   1.162   2.438  0.00  0.00    -0.462 OA
ENDBRANCH   9  14
BRANCH   9  16
ATOM     16  C   UNL     1       1.437   1.996  -0.008  0.00  0.00    +0.425 C 
ATOM     17  F   UNL     1       2.029   1.631  -1.222  0.00  0.00    -0.167 F 
ATOM     18  F   UNL     1       1.475   3.388   0.129  0.00  0.00    -0.167 F 
ATOM     19  F   UNL     1       2.136   1.405   1.049  0.00  0.00    -0.167 F 
ENDBRANCH   9  16
BRANCH   9  20
ATOM     20  O   UNL     1      -0.733   2.130  -1.063  0.00  0.00    -0.373 OA
ATOM     21  H   UNL     1      -0.413   1.961  -2.102  0.00  0.00    +0.211 HD
ENDBRANCH   9  20
ENDBRANCH   8   9
ENDBRANCH   7   8
ENDBRANCH   1   7
BRANCH   4  22
ATOM     22  C   UNL     1      -4.056  -4.630  -0.184  0.00  0.00    +0.142 C 
BRANCH  22  23
ATOM     23  C   UNL     1      -3.876  -6.011   0.392  0.00  0.00    -0.022 A 
ATOM     24  C   UNL     1      -2.754  -6.752   0.071  0.00  0.00    +0.006 A 
ATOM     25  C   UNL     1      -2.587  -8.018   0.602  0.00  0.00    +0.000 A 
ATOM     26  C   UNL     1      -3.546  -8.545   1.447  0.00  0.00    +0.000 A 
ATOM     27  C   UNL     1      -4.670  -7.805   1.763  0.00  0.00    +0.000 A 
ATOM     28  C   UNL     1      -4.835  -6.538   1.236  0.00  0.00    +0.006 A 
ENDBRANCH  22  23
BRANCH  22  29
ATOM     29  C   UNL     1      -4.570  -4.737  -1.596  0.00  0.00    +0.014 A 
ATOM     30  C   UNL     1      -5.837  -4.595  -2.057  0.00  0.00    +0.013 A 
ATOM     31  C   UNL     1      -6.078  -4.737  -3.410  0.00  0.00    +0.008 A 
ATOM     32  C   UNL     1      -5.040  -5.014  -4.237  0.00  0.00    +0.045 A 
ATOM     33  S   UNL     1      -3.667  -5.076  -3.099  0.00  0.00    -0.099 S 
ENDBRANCH  22  29
ENDBRANCH   4  22
TORSDOF 9
