REMARK  Name = ZINC05739821
REMARK  4 active torsions:
REMARK  status: ('A' for Active; 'I' for Inactive)
REMARK    1  A    between atoms: C_9  and  C_12
REMARK    2  A    between atoms: C_10  and  O_11
REMARK    3  A    between atoms: N_14  and  N_15
REMARK    4  A    between atoms: C_16  and  C_17
REMARK                            x       y       z     vdW  Elec       q    Type
REMARK                         _______ _______ _______ _____ _____    ______ ____
ROOT
ATOM      1  C   UNL     1      -2.196  -7.056  -0.017  0.00  0.00    +0.001 A 
ATOM      2  C   UNL     1      -3.424  -6.398  -0.001  0.00  0.00    +0.001 A 
ATOM      3  C   UNL     1      -3.489  -5.037   0.007  0.00  0.00    +0.012 A 
ATOM      4  C   UNL     1      -2.303  -4.285   0.001  0.00  0.00    +0.024 A 
ATOM      5  C   UNL     1      -1.054  -4.953  -0.015  0.00  0.00    -0.014 A 
ATOM      6  C   UNL     1      -1.027  -6.357  -0.024  0.00  0.00    +0.008 A 
ATOM      7  C   UNL     1       0.139  -4.205  -0.023  0.00  0.00    +0.009 A 
ATOM      8  C   UNL     1       0.094  -2.849  -0.020  0.00  0.00    +0.017 A 
ATOM      9  C   UNL     1      -1.136  -2.167   0.001  0.00  0.00    +0.080 A 
ATOM     10  C   UNL     1      -2.335  -2.876   0.009  0.00  0.00    +0.137 A 
ENDROOT
BRANCH   9  11
ATOM     11  C   UNL     1      -1.156  -0.694   0.009  0.00  0.00    +0.267 C 
ATOM     12  O   UNL     1      -2.218  -0.100   0.023  0.00  0.00    -0.268 OA
ATOM     13  N   UNL     1       0.002  -0.004   0.002  0.00  0.00    -0.203 N 
ATOM     14  H   UNL     1       0.849  -0.478  -0.009  0.00  0.00    +0.178 HD
BRANCH  13  15
ATOM     15  N   UNL     1      -0.017   1.397   0.010  0.00  0.00    -0.187 NA
ATOM     16  C   UNL     1       1.101   2.062   0.003  0.00  0.00    +0.145 C 
BRANCH  16  17
ATOM     17  C   UNL     1       1.081   3.529   0.011  0.00  0.00    +0.032 A 
ATOM     18  C   UNL     1       2.143   4.416   0.005  0.00  0.00    +0.017 A 
ATOM     19  C   UNL     1       1.869   5.764   0.014  0.00  0.00    +0.008 A 
ATOM     20  C   UNL     1       0.576   6.179   0.028  0.00  0.00    +0.046 A 
ATOM     21  S   UNL     1      -0.320   4.636   0.022  0.00  0.00    -0.096 S 
ENDBRANCH  16  17
ENDBRANCH  13  15
ENDBRANCH   9  11
BRANCH  10  22
ATOM     22  O   UNL     1      -3.519  -2.218   0.025  0.00  0.00    -0.505 OA
ATOM     23  H   UNL     1      -3.872  -2.022  -0.854  0.00  0.00    +0.292 HD
ENDBRANCH  10  22
TORSDOF 4
