REMARK  Name = ZINC19941432
REMARK  13 active torsions:
REMARK  status: ('A' for Active; 'I' for Inactive)
REMARK    1  A    between atoms: C_1  and  C_2
REMARK    2  A    between atoms: C_2  and  C_3
REMARK    3  A    between atoms: C_10  and  C_15
REMARK    4  A    between atoms: C_15  and  C_17
REMARK    5  A    between atoms: C_15  and  N_27
REMARK    6  A    between atoms: N_21  and  C_22
REMARK    7  A    between atoms: C_22  and  C_23
REMARK    8  A    between atoms: C_22  and  C_24
REMARK    9  A    between atoms: C_22  and  C_25
REMARK   10  A    between atoms: C_25  and  C_26
REMARK   11  A    between atoms: N_30  and  C_33
REMARK   12  A    between atoms: C_35  and  C_40
REMARK   13  A    between atoms: C_38  and  C_39
REMARK                            x       y       z     vdW  Elec       q    Type
REMARK                         _______ _______ _______ _____ _____    ______ ____
ROOT
ATOM      1  C   UNL     1       5.742   7.341  -0.528  0.00  0.00    +0.162 C 
ENDROOT
BRANCH   1   9
ATOM      2  C   UNL     1       8.534  11.126  -4.549  0.00  0.00    -0.047 A 
ATOM      3  C   UNL     1       7.512  12.063  -4.616  0.00  0.00    +0.005 A 
ATOM      4  C   UNL     1       6.357  11.897  -3.884  0.00  0.00    +0.026 A 
ATOM      5  C   UNL     1       6.212  10.781  -3.066  0.00  0.00    +0.049 A 
ATOM      6  C   UNL     1       7.251   9.834  -2.999  0.00  0.00    -0.001 A 
ATOM      7  C   UNL     1       8.414  10.022  -3.753  0.00  0.00    +0.013 A 
ATOM      8  C   UNL     1       7.092   8.666  -2.131  0.00  0.00    +0.021 A 
ATOM      9  C   UNL     1       5.940   8.534  -1.427  0.00  0.00    +0.042 A 
ATOM     10  C   UNL     1       4.929   9.513  -1.530  0.00  0.00    +0.254 A 
ATOM     11  O   UNL     1       3.903   9.377  -0.885  0.00  0.00    -0.268 OA
ATOM     12  N   UNL     1       5.068  10.591  -2.320  0.00  0.00    -0.322 N 
ATOM     13  H   UNL     1       4.252  11.328  -2.368  0.00  0.00    +0.169 HD
BRANCH   2  15
ATOM     14  C   UNL     1       9.620  10.671  -6.731  0.00  0.00    +0.009 C 
ATOM     15  C   UNL     1       9.788  11.329  -5.360  0.00  0.00    +0.032 C 
ENDBRANCH   2  15
ENDBRANCH   1   9
BRANCH   1  16
ATOM     16  N   UNL     1       4.495   6.656  -0.891  0.00  0.00    -0.286 NA
ATOM     17  C   UNL     1       4.620   5.989  -2.195  0.00  0.00    +0.104 C 
ATOM     18  C   UNL     1       3.279   5.356  -2.573  0.00  0.00    +0.120 C 
ATOM     19  N   UNL     1       2.882   4.399  -1.531  0.00  0.00    -0.327 N 
ATOM     20  C   UNL     1       2.756   5.065  -0.227  0.00  0.00    +0.120 C 
ATOM     21  C   UNL     1       4.097   5.698   0.150  0.00  0.00    +0.104 C 
BRANCH  19  22
ATOM     22  C   UNL     1       1.696   3.747  -1.876  0.00  0.00    +0.033 A 
ATOM     23  C   UNL     1       0.534   4.480  -2.085  0.00  0.00    +0.026 A 
ATOM     24  C   UNL     1      -0.637   3.833  -2.426  0.00  0.00    -0.049 A 
ATOM     25  C   UNL     1      -0.653   2.457  -2.565  0.00  0.00    +0.004 A 
ATOM     26  C   UNL     1       0.500   1.724  -2.353  0.00  0.00    +0.005 A 
ATOM     27  C   UNL     1       1.675   2.365  -2.011  0.00  0.00    -0.029 A 
ATOM     28  C   UNL     1       2.932   1.566  -1.786  0.00  0.00    +0.045 C 
ATOM     29  C   UNL     1      -1.898   4.627  -2.653  0.00  0.00    +0.044 C 
ENDBRANCH  19  22
ENDBRANCH   1  16
BRANCH   1  30
ATOM     30  C   UNL     1       5.664   7.800   0.905  0.00  0.00    +0.174 A 
ATOM     31  N   UNL     1       4.703   8.504   1.450  0.00  0.00    -0.111 NA
ATOM     32  N   UNL     1       5.001   8.693   2.690  0.00  0.00    -0.023 NA
ATOM     33  N   UNL     1       6.128   8.127   2.949  0.00  0.00    -0.043 NA
ATOM     34  N   UNL     1       6.566   7.561   1.876  0.00  0.00    -0.222 N 
BRANCH  34  35
ATOM     35  C   UNL     1       7.813   6.804   1.738  0.00  0.00    +0.062 C 
ATOM     36  C   UNL     1       7.491   5.351   1.386  0.00  0.00    +0.036 C 
ATOM     37  C   UNL     1       8.664   7.422   0.626  0.00  0.00    +0.036 C 
BRANCH  35  38
ATOM     38  C   UNL     1       8.586   6.850   3.057  0.00  0.00    +0.026 C 
ATOM     39  C   UNL     1       9.888   6.059   2.913  0.00  0.00    +0.006 C 
ENDBRANCH  35  38
ENDBRANCH  34  35
ENDBRANCH   1  30
TORSDOF 7
