REMARK  Name = ZINC42602913
REMARK  8 active torsions:
REMARK  status: ('A' for Active; 'I' for Inactive)
REMARK    1  A    between atoms: C_1  and  C_2
REMARK    2  A    between atoms: C_2  and  C_3
REMARK    3  A    between atoms: C_2  and  N_4
REMARK    4  A    between atoms: C_5  and  C_7
REMARK    5  A    between atoms: C_7  and  N_8
REMARK    6  A    between atoms: N_8  and  C_9
REMARK    7  A    between atoms: N_8  and  C_10
REMARK    8  A    between atoms: C_19  and  N_20
REMARK                            x       y       z     vdW  Elec       q    Type
REMARK                         _______ _______ _______ _____ _____    ______ ____
ROOT
ATOM      1  C   UNL     1      -3.164  -3.068  -2.682  0.00  0.00    +0.061 A 
ATOM      2  C   UNL     1      -4.441  -3.020  -3.285  0.00  0.00    +0.022 A 
ATOM      3  C   UNL     1      -5.528  -2.409  -2.643  0.00  0.00    +0.027 A 
ATOM      4  C   UNL     1      -6.745  -2.381  -3.257  0.00  0.00    +0.019 A 
ATOM      5  C   UNL     1      -6.922  -2.952  -4.516  0.00  0.00    +0.017 A 
ATOM      6  C   UNL     1      -5.888  -3.552  -5.167  0.00  0.00    +0.027 A 
ATOM      7  C   UNL     1      -4.618  -3.600  -4.565  0.00  0.00    +0.048 A 
ATOM      8  N   UNL     1      -3.586  -4.183  -5.185  0.00  0.00    -0.359 N 
ATOM      9  C   UNL     1      -2.393  -4.237  -4.638  0.00  0.00    +0.107 A 
ATOM     10  C   UNL     1      -2.135  -3.685  -3.385  0.00  0.00    +0.063 A 
ATOM     11 BR   UNL     1      -8.210  -1.559  -2.389  0.00  0.00    -0.050 Br
ATOM     12  H   UNL     1      -3.722  -4.576  -6.061  0.00  0.00    +0.165 HD
ENDROOT
BRANCH  10  13
ATOM     13  N   UNL     1      -0.847  -3.756  -2.834  0.00  0.00    -0.355 N 
ATOM     14  H   UNL     1      -0.723  -3.659  -1.877  0.00  0.00    +0.142 HD
ATOM     15  H   UNL     1      -0.081  -3.902  -3.410  0.00  0.00    +0.142 HD
ENDBRANCH  10  13
BRANCH   1  16
ATOM     16  N   UNL     1      -2.942  -2.512  -1.426  0.00  0.00    -0.322 N 
ATOM     17  C   UNL     1      -2.959  -3.364  -0.234  0.00  0.00    +0.130 C 
BRANCH  16  18
ATOM     18  C   UNL     1      -2.692  -1.075  -1.295  0.00  0.00    +0.200 C 
BRANCH  18  20
ATOM     19  N   UNL     1      -0.734   0.435  -1.242  0.00  0.00    -0.312 N 
ATOM     20  C   UNL     1      -1.207  -0.827  -1.237  0.00  0.00    +0.231 C 
ATOM     21  O   UNL     1      -0.437  -1.762  -1.187  0.00  0.00    -0.274 OA
ATOM     22  H   UNL     1      -1.349   1.184  -1.283  0.00  0.00    +0.149 HD
BRANCH  19  24
ATOM     23  C   UNL     1       1.025   2.038  -1.809  0.00  0.00    +0.027 C 
ATOM     24  C   UNL     1       0.710   0.676  -1.186  0.00  0.00    +0.067 C 
ATOM     25  C   UNL     1       1.173   0.665   0.273  0.00  0.00    +0.027 C 
ENDBRANCH  19  24
ENDBRANCH  18  20
ENDBRANCH  16  18
ENDBRANCH   1  16
TORSDOF 5
