REMARK  Name = ZINC08593552
REMARK  7 active torsions:
REMARK  status: ('A' for Active; 'I' for Inactive)
REMARK    1  A    between atoms: C_1  and  C_2
REMARK    2  A    between atoms: C_2  and  C_3
REMARK    3  A    between atoms: C_3  and  C_5
REMARK    4  A    between atoms: C_3  and  N_6
REMARK    5  A    between atoms: C_7  and  C_9
REMARK    6  A    between atoms: C_9  and  N_10
REMARK    7  A    between atoms: N_22  and  C_25
REMARK                            x       y       z     vdW  Elec       q    Type
REMARK                         _______ _______ _______ _____ _____    ______ ____
ROOT
ATOM      1  N   UNL     1       4.300   0.421   4.034  0.00  0.00    -0.278 N 
ATOM      2  C   UNL     1       4.761   1.681   4.318  0.00  0.00    +0.097 A 
ATOM      3  C   UNL     1       5.863   1.873   5.149  0.00  0.00    +0.074 A 
ATOM      4  C   UNL     1       6.251   3.265   5.370  0.00  0.00    -0.023 A 
ATOM      5  C   UNL     1       5.484   4.174   4.736  0.00  0.00    -0.004 A 
ATOM      6  S   UNL     1       4.278   3.216   3.867  0.00  0.00    -0.075 S 
ATOM      7  C   UNL     1       5.636   5.664   4.773  0.00  0.00    +0.043 C 
ATOM      8  C   UNL     1       6.566   6.024   5.941  0.00  0.00    +0.005 C 
ATOM      9  C   UNL     1       7.806   5.128   5.883  0.00  0.00    +0.005 C 
ATOM     10  C   UNL     1       7.425   3.689   6.241  0.00  0.00    +0.037 C 
ATOM     11  C   UNL     1       6.486   0.645   5.690  0.00  0.00    +0.270 A 
ATOM     12  O   UNL     1       7.454   0.719   6.425  0.00  0.00    -0.266 OA
ATOM     13  N   UNL     1       5.971  -0.552   5.360  0.00  0.00    -0.228 N 
ATOM     14  C   UNL     1       4.901  -0.664   4.557  0.00  0.00    +0.338 A 
ATOM     15  O   UNL     1       4.468  -1.769   4.292  0.00  0.00    -0.246 OA
ENDROOT
BRANCH  13  16
ATOM     16  C   UNL     1       6.564  -1.715   5.874  0.00  0.00    +0.054 A 
ATOM     17  C   UNL     1       6.129  -2.241   7.083  0.00  0.00    +0.028 A 
ATOM     18  C   UNL     1       6.715  -3.386   7.587  0.00  0.00    +0.022 A 
ATOM     19  C   UNL     1       7.733  -4.009   6.887  0.00  0.00    +0.041 A 
ATOM     20  C   UNL     1       8.168  -3.486   5.682  0.00  0.00    +0.022 A 
ATOM     21  C   UNL     1       7.582  -2.345   5.171  0.00  0.00    +0.028 A 
ATOM     22 CL   UNL     1       8.468  -5.447   7.523  0.00  0.00    -0.084 Cl
ENDBRANCH  13  16
BRANCH   1  23
ATOM     23  C   UNL     1       3.138   0.255   3.157  0.00  0.00    +0.223 C 
BRANCH  23  25
ATOM     24  N   UNL     1       0.679   0.126   3.386  0.00  0.00    -0.311 N 
ATOM     25  C   UNL     1       1.879   0.264   3.984  0.00  0.00    +0.233 C 
ATOM     26  O   UNL     1       1.945   0.397   5.188  0.00  0.00    -0.274 OA
ATOM     27  H   UNL     1       0.626   0.019   2.424  0.00  0.00    +0.149 HD
BRANCH  24  28
ATOM     28  C   UNL     1      -0.546   0.135   4.191  0.00  0.00    +0.070 C 
ATOM     29  C   UNL     1      -0.814  -1.272   4.728  0.00  0.00    +0.028 C 
BRANCH  28  31
ATOM     30  C   UNL     1      -1.513   2.035   2.887  0.00  0.00    +0.005 C 
ATOM     31  C   UNL     1      -1.723   0.583   3.322  0.00  0.00    +0.018 C 
ENDBRANCH  28  31
ENDBRANCH  24  28
ENDBRANCH  23  25
ENDBRANCH   1  23
TORSDOF 5
