REMARK  Name = ZINC11845941
REMARK  7 active torsions:
REMARK  status: ('A' for Active; 'I' for Inactive)
REMARK    1  A    between atoms: C_1  and  N_2
REMARK    2  A    between atoms: C_6  and  C_7
REMARK    3  A    between atoms: C_7  and  C_9
REMARK    4  A    between atoms: C_7  and  N_63
REMARK    5  A    between atoms: C_9  and  N_10
REMARK    6  A    between atoms: C_11  and  C_13
REMARK    7  A    between atoms: N_18  and  C_20
REMARK                            x       y       z     vdW  Elec       q    Type
REMARK                         _______ _______ _______ _____ _____    ______ ____
ROOT
ATOM      1  C   UNL     1      -0.850   2.005   0.738  0.00  0.00    -0.003 C 
ENDROOT
BRANCH   1  11
ATOM      2  C   UNL     1       0.172   0.420  -0.785  0.00  0.00    -0.073 C 
ATOM      3  C   UNL     1       0.851   0.347  -2.153  0.00  0.00    +0.017 C 
ATOM      4  C   UNL     1       2.131   1.143  -2.136  0.00  0.00    -0.048 A 
ATOM      5  C   UNL     1       3.060   0.923  -3.142  0.00  0.00    +0.004 A 
ATOM      6  C   UNL     1       4.243   1.634  -3.166  0.00  0.00    +0.000 A 
ATOM      7  C   UNL     1       4.503   2.569  -2.182  0.00  0.00    +0.000 A 
ATOM      8  C   UNL     1       3.580   2.787  -1.179  0.00  0.00    +0.002 A 
ATOM      9  C   UNL     1       2.391   2.073  -1.153  0.00  0.00    -0.061 A 
ATOM     10  C   UNL     1       1.417   2.344  -0.036  0.00  0.00    -0.042 C 
ATOM     11  N   UNL     1       0.081   1.844  -0.402  0.00  0.00    +0.389 N 
ATOM     12  H   UNL     1      -0.272   2.384  -1.201  0.00  0.00    -0.080 HD
ENDBRANCH   1  11
BRANCH   1  18
ATOM     13  C   UNL     1      -2.655   3.264   2.921  0.00  0.00    +0.148 C 
ATOM     14  N   UNL     1      -2.021   4.001   1.826  0.00  0.00    -0.355 N 
ATOM     15  C   UNL     1      -2.128   5.342   1.603  0.00  0.00    +0.085 A 
ATOM     16  C   UNL     1      -1.406   5.646   0.506  0.00  0.00    +0.019 A 
ATOM     17  C   UNL     1      -0.828   4.450   0.036  0.00  0.00    +0.021 A 
ATOM     18  C   UNL     1      -1.225   3.459   0.860  0.00  0.00    +0.006 A 
ENDBRANCH   1  18
BRANCH   1  19
ATOM     19  C   UNL     1      -0.185   1.539   2.035  0.00  0.00    +0.095 C 
BRANCH  19  20
ATOM     20  N   UNL     1       0.007   0.087   1.991  0.00  0.00    -0.316 N 
ATOM     21  C   UNL     1       0.719  -0.528   2.956  0.00  0.00    +0.218 C 
ATOM     22  O   UNL     1       1.200   0.121   3.861  0.00  0.00    -0.275 OA
ATOM     23  H   UNL     1      -0.377  -0.431   1.267  0.00  0.00    +0.149 HD
BRANCH  21  24
ATOM     24  C   UNL     1       0.917  -2.021   2.911  0.00  0.00    +0.101 C 
ATOM     25  C   UNL     1       1.681  -2.439   1.634  0.00  0.00    +0.110 C 
ATOM     26  C   UNL     1       2.575  -3.571   2.090  0.00  0.00    +0.221 C 
ATOM     27  O   UNL     1       3.128  -4.360   1.353  0.00  0.00    -0.275 OA
ATOM     28  N   UNL     1       2.667  -3.576   3.431  0.00  0.00    -0.271 N 
ATOM     29  C   UNL     1       1.884  -2.484   4.023  0.00  0.00    +0.127 C 
BRANCH  28  30
ATOM     30  C   UNL     1       3.412  -4.503   4.168  0.00  0.00    +0.036 A 
ATOM     31  C   UNL     1       4.208  -5.434   3.514  0.00  0.00    +0.023 A 
ATOM     32  C   UNL     1       4.946  -6.344   4.245  0.00  0.00    +0.002 A 
ATOM     33  C   UNL     1       4.885  -6.336   5.626  0.00  0.00    +0.000 A 
ATOM     34  C   UNL     1       4.089  -5.414   6.281  0.00  0.00    +0.002 A 
ATOM     35  C   UNL     1       3.353  -4.497   5.556  0.00  0.00    +0.023 A 
ENDBRANCH  28  30
ENDBRANCH  21  24
ENDBRANCH  19  20
ENDBRANCH   1  19
TORSDOF 6
