REMARK  Name = ZINC03665405
REMARK  8 active torsions:
REMARK  status: ('A' for Active; 'I' for Inactive)
REMARK    1  A    between atoms: C_1  and  O_2
REMARK    2  A    between atoms: O_2  and  C_3
REMARK    3  A    between atoms: C_8  and  N_9
REMARK    4  A    between atoms: N_9  and  C_10
REMARK    5  A    between atoms: C_10  and  N_12
REMARK    6  A    between atoms: N_12  and  C_13
REMARK    7  A    between atoms: N_12  and  C_19
REMARK    8  A    between atoms: C_13  and  C_14
REMARK                            x       y       z     vdW  Elec       q    Type
REMARK                         _______ _______ _______ _____ _____    ______ ____
ROOT
ATOM      1  C   UNL     1      -3.544  -0.717  -0.063  0.00  0.00    +0.138 C 
ATOM      2  S   UNL     1      -3.510  -2.428  -0.071  0.00  0.00    -0.018 S 
ENDROOT
BRANCH   1   3
ATOM      3  N   UNL     1      -2.393  -0.020   0.010  0.00  0.00    -0.294 N 
ATOM      4  H   UNL     1      -2.415   0.949   0.059  0.00  0.00    +0.154 HD
BRANCH   3  10
ATOM      5  C   UNL     1      -0.125  -0.243   0.825  0.00  0.00    +0.141 A 
ATOM      6  C   UNL     1       1.086  -0.916   0.832  0.00  0.00    +0.049 A 
ATOM      7  C   UNL     1       1.261  -2.032   0.034  0.00  0.00    +0.024 A 
ATOM      8  C   UNL     1       0.230  -2.478  -0.773  0.00  0.00    +0.043 A 
ATOM      9  C   UNL     1      -0.981  -1.811  -0.786  0.00  0.00    +0.047 A 
ATOM     10  C   UNL     1      -1.165  -0.694   0.017  0.00  0.00    +0.076 A 
ATOM     11 CL   UNL     1       0.457  -3.880  -1.772  0.00  0.00    -0.083 Cl
BRANCH   5  13
ATOM     12  C   UNL     1       0.810   1.256   2.418  0.00  0.00    +0.277 C 
ATOM     13  O   UNL     1      -0.299   0.854   1.610  0.00  0.00    -0.493 OA
ENDBRANCH   5  13
ENDBRANCH   3  10
ENDBRANCH   1   3
BRANCH   1  14
ATOM     14  N   UNL     1      -4.723  -0.066  -0.131  0.00  0.00    -0.305 N 
BRANCH  14  15
ATOM     15  C   UNL     1      -5.979  -0.820  -0.099  0.00  0.00    +0.075 C 
ATOM     16  C   UNL     1      -6.706  -0.655  -1.435  0.00  0.00    +0.022 C 
ATOM     17  C   UNL     1      -8.018  -1.443  -1.401  0.00  0.00    +0.002 C 
ATOM     18  C   UNL     1      -8.902  -0.913  -0.270  0.00  0.00    +0.000 C 
ATOM     19  C   UNL     1      -8.174  -1.078   1.066  0.00  0.00    +0.002 C 
ATOM     20  C   UNL     1      -6.863  -0.291   1.032  0.00  0.00    +0.022 C 
ENDBRANCH  14  15
BRANCH  14  21
ATOM     21  C   UNL     1      -4.748   1.395  -0.236  0.00  0.00    +0.149 C 
BRANCH  21  22
ATOM     22  C   UNL     1      -4.582   1.797  -1.679  0.00  0.00    +0.007 A 
ATOM     23  C   UNL     1      -5.534   2.104  -2.594  0.00  0.00    +0.013 A 
ATOM     24  C   UNL     1      -5.145   2.450  -3.875  0.00  0.00    +0.008 A 
ATOM     25  C   UNL     1      -3.824   2.473  -4.177  0.00  0.00    +0.045 A 
ATOM     26  S   UNL     1      -3.081   2.002  -2.624  0.00  0.00    -0.100 S 
ENDBRANCH  21  22
ENDBRANCH  14  21
ENDBRANCH   1  14
TORSDOF 7
