REMARK  Name = ZINC15056147
REMARK  6 active torsions:
REMARK  status: ('A' for Active; 'I' for Inactive)
REMARK    1  A    between atoms: C_1  and  C_2
REMARK    2  A    between atoms: C_6  and  N_8
REMARK    3  A    between atoms: C_9  and  C_11
REMARK    4  A    between atoms: C_11  and  O_12
REMARK    5  A    between atoms: O_12  and  C_13
REMARK    6  A    between atoms: C_18  and  C_19
REMARK                            x       y       z     vdW  Elec       q    Type
REMARK                         _______ _______ _______ _____ _____    ______ ____
ROOT
ATOM      1  C   UNL     1       2.560   9.313   0.664  0.00  0.00    +0.128 A 
ATOM      2  C   UNL     1       1.469  10.160   0.769  0.00  0.00    +0.046 A 
ATOM      3  C   UNL     1       1.658  11.527   0.842  0.00  0.00    +0.004 A 
ATOM      4  C   UNL     1       2.935  12.063   0.803  0.00  0.00    +0.001 A 
ATOM      5  C   UNL     1       4.032  11.237   0.694  0.00  0.00    +0.011 A 
ATOM      6  C   UNL     1       3.857   9.850   0.624  0.00  0.00    +0.018 A 
ENDROOT
BRANCH   6   7
ATOM      7  C   UNL     1       5.021   8.963   0.508  0.00  0.00    +0.031 C 
ATOM      8  C   UNL     1       6.214   9.459   0.090  0.00  0.00    +0.077 C 
ATOM      9  C   UNL     1       7.544   8.818   0.068  0.00  0.00    +0.256 C 
ATOM     10  O   UNL     1       7.710   7.678   0.460  0.00  0.00    -0.269 OA
ATOM     11  N   UNL     1       8.544   9.546  -0.398  0.00  0.00    -0.270 N 
ATOM     12  C   UNL     1       8.355  10.809  -0.830  0.00  0.00    +0.118 C 
ATOM     13  S   UNL     1       9.512  11.901  -1.462  0.00  0.00    -0.027 S 
ATOM     14  S   UNL     1       6.604  11.065  -0.591  0.00  0.00    -0.061 S 
ATOM     15  H   UNL     1       9.435   9.162  -0.430  0.00  0.00    +0.156 HD
ENDBRANCH   6   7
BRANCH   1  16
ATOM     16  O   UNL     1       2.376   7.970   0.597  0.00  0.00    -0.482 OA
BRANCH  16  17
ATOM     17  C   UNL     1       1.028   7.496   0.644  0.00  0.00    +0.324 C 
BRANCH  17  19
ATOM     18  N   UNL     1      -0.148   5.321   0.583  0.00  0.00    -0.283 N 
ATOM     19  C   UNL     1       1.021   5.992   0.557  0.00  0.00    +0.255 C 
ATOM     20  O   UNL     1       2.067   5.385   0.464  0.00  0.00    -0.272 OA
ATOM     21  H   UNL     1      -0.987   5.808   0.582  0.00  0.00    +0.155 HD
BRANCH  18  27
ATOM     22  C   UNL     1      -2.208   1.066  -0.766  0.00  0.00    +0.044 C 
ATOM     23  C   UNL     1      -1.139   1.834  -0.034  0.00  0.00    -0.049 A 
ATOM     24  C   UNL     1      -0.159   1.156   0.668  0.00  0.00    +0.003 A 
ATOM     25  C   UNL     1       0.828   1.857   1.336  0.00  0.00    +0.002 A 
ATOM     26  C   UNL     1       0.834   3.238   1.310  0.00  0.00    +0.023 A 
ATOM     27  C   UNL     1      -0.151   3.922   0.611  0.00  0.00    +0.034 A 
ATOM     28  C   UNL     1      -1.141   3.215  -0.060  0.00  0.00    +0.026 A 
ENDBRANCH  18  27
ENDBRANCH  17  19
ENDBRANCH  16  17
ENDBRANCH   1  16
TORSDOF 5
