REMARK  Name = ZINC09108688
REMARK  7 active torsions:
REMARK  status: ('A' for Active; 'I' for Inactive)
REMARK    1  A    between atoms: C_1  and  C_2
REMARK    2  A    between atoms: C_2  and  C_3
REMARK    3  A    between atoms: C_2  and  C_4
REMARK    4  A    between atoms: C_9  and  N_25
REMARK    5  A    between atoms: C_12  and  N_24
REMARK    6  A    between atoms: C_13  and  C_15
REMARK    7  A    between atoms: C_18  and  N_21
REMARK                            x       y       z     vdW  Elec       q    Type
REMARK                         _______ _______ _______ _____ _____    ______ ____
ROOT
ATOM      1  C   UNL     1      -6.810   9.578   1.209  0.00  0.00    +0.126 C 
ATOM      2  C   UNL     1      -6.024   8.268   1.117  0.00  0.00    +0.068 C 
ATOM      3  C   UNL     1      -6.979   7.107   1.047  0.00  0.00    -0.025 A 
ATOM      4  C   UNL     1      -8.283   7.226   1.401  0.00  0.00    +0.020 A 
ATOM      5  C   UNL     1      -9.129   6.109   1.331  0.00  0.00    +0.105 A 
ATOM      6  C   UNL     1      -7.416   4.774   0.562  0.00  0.00    +0.089 A 
ATOM      7  C   UNL     1      -6.484   5.844   0.597  0.00  0.00    +0.031 A 
ATOM      8  C   UNL     1      -5.186   5.532   0.186  0.00  0.00    +0.049 A 
ATOM      9  C   UNL     1      -4.943   4.120  -0.233  0.00  0.00    +0.043 A 
ATOM     10  S   UNL     1      -6.495   3.378  -0.033  0.00  0.00    -0.069 S 
ATOM     11  C   UNL     1      -8.856   8.539   1.868  0.00  0.00    +0.199 C 
ATOM     12  O   UNL     1      -7.806   9.436   2.229  0.00  0.00    -0.371 OA
ATOM     13  N   UNL     1      -8.711   4.868   0.914  0.00  0.00    -0.337 N 
ATOM     14  H   UNL     1      -9.347   4.063   0.875  0.00  0.00    +0.168 HD
ENDROOT
BRANCH   9  15
ATOM     15  C   UNL     1      -3.743   3.534  -0.688  0.00  0.00    -0.009 A 
ATOM     16  C   UNL     1      -3.740   2.214  -1.188  0.00  0.00    +0.011 A 
ATOM     17  C   UNL     1      -2.573   1.658  -1.625  0.00  0.00    +0.033 A 
ATOM     18  C   UNL     1      -1.391   2.386  -1.580  0.00  0.00    +0.126 A 
ATOM     19  C   UNL     1      -1.380   3.683  -1.086  0.00  0.00    +0.033 A 
ATOM     20  C   UNL     1      -2.535   4.263  -0.647  0.00  0.00    +0.011 A 
BRANCH  18  21
ATOM     21  N   UNL     1      -0.132   1.771  -2.057  0.00  0.00    +0.056 N 
ATOM     22  O   UNL     1      -0.136   0.539  -2.522  0.00  0.00    -0.126 OA
ATOM     23  O   UNL     1       0.991   2.458  -2.022  0.00  0.00    -0.126 OA
ENDBRANCH  18  21
ENDBRANCH   9  15
BRANCH   5  24
ATOM     24  N   UNL     1     -10.450   6.231   1.691  0.00  0.00    -0.312 N 
ATOM     25  C   UNL     1     -10.771   5.349   2.822  0.00  0.00    +0.134 C 
ATOM     26  C   UNL     1     -12.232   5.560   3.229  0.00  0.00    +0.178 C 
ATOM     27  O   UNL     1     -13.075   5.321   2.099  0.00  0.00    -0.377 OA
ATOM     28  C   UNL     1     -12.790   6.164   0.979  0.00  0.00    +0.178 C 
ATOM     29  C   UNL     1     -11.335   5.959   0.550  0.00  0.00    +0.134 C 
ENDBRANCH   5  24
BRANCH   1  31
ATOM     30  C   UNL     1      -6.658  12.025   1.688  0.00  0.00    +0.010 C 
ATOM     31  C   UNL     1      -5.863  10.724   1.571  0.00  0.00    +0.012 C 
ATOM     32  C   UNL     1      -5.182  10.420   2.907  0.00  0.00    +0.010 C 
ENDBRANCH   1  31
BRANCH   8  33
ATOM     33  N   UNL     1      -4.209   6.452   0.170  0.00  0.00    -0.357 N 
ATOM     34  H   UNL     1      -3.593   6.492  -0.579  0.00  0.00    +0.142 HD
ATOM     35  H   UNL     1      -4.119   7.077   0.906  0.00  0.00    +0.142 HD
ENDBRANCH   8  33
TORSDOF 5
