REMARK  Name = ZINC39638696
REMARK  9 active torsions:
REMARK  status: ('A' for Active; 'I' for Inactive)
REMARK    1  A    between atoms: C_1  and  C_2
REMARK    2  A    between atoms: C_2  and  O_3
REMARK    3  A    between atoms: O_3  and  C_4
REMARK    4  A    between atoms: C_9  and  C_10
REMARK    5  A    between atoms: C_10  and  N_11
REMARK    6  A    between atoms: C_12  and  C_14
REMARK    7  A    between atoms: C_25  and  C_27
REMARK    8  A    between atoms: C_32  and  S_33
REMARK    9  A    between atoms: S_33  and  C_34
REMARK                            x       y       z     vdW  Elec       q    Type
REMARK                         _______ _______ _______ _____ _____    ______ ____
ROOT
ATOM      1  C   UNL     1       5.903   0.270  -3.407  0.00  0.00    +0.100 C 
ATOM      2  C   UNL     1       5.490   1.146  -2.203  0.00  0.00    +0.121 C 
ATOM      3  N   UNL     1       6.309   2.374  -2.335  0.00  0.00    -0.296 N 
ATOM      4  C   UNL     1       6.326   2.651  -3.791  0.00  0.00    +0.115 C 
ATOM      5  C   UNL     1       6.450   1.261  -4.447  0.00  0.00    -0.004 C 
ATOM      6  C   UNL     1       5.615   1.204  -5.723  0.00  0.00    -0.010 C 
ATOM      7  C   UNL     1       6.213   2.155  -6.763  0.00  0.00    -0.082 C 
ATOM      8  N   UNL     1       7.600   1.765  -7.045  0.00  0.00    +0.379 N 
ATOM      9  C   UNL     1       8.417   1.912  -5.834  0.00  0.00    -0.082 C 
ATOM     10  C   UNL     1       7.912   0.951  -4.755  0.00  0.00    -0.010 C 
ATOM     11  C   UNL     1       6.904   3.079  -1.353  0.00  0.00    +0.249 C 
ATOM     12  O   UNL     1       7.467   4.126  -1.611  0.00  0.00    -0.270 OA
ATOM     13  H   UNL     1       7.623   0.803  -7.349  0.00  0.00    -0.086 HD
ATOM     14  H   UNL     1       7.972   2.354  -7.774  0.00  0.00    -0.086 HD
ENDROOT
BRANCH  11  15
ATOM     15  C   UNL     1       6.873   2.582   0.035  0.00  0.00    +0.069 A 
ATOM     16  C   UNL     1       5.750   1.905   0.524  0.00  0.00    +0.017 A 
ATOM     17  C   UNL     1       5.771   1.459   1.833  0.00  0.00    +0.020 A 
ATOM     18  C   UNL     1       6.889   1.690   2.615  0.00  0.00    +0.112 A 
ATOM     19  N   UNL     1       7.937   2.330   2.136  0.00  0.00    -0.248 NA
ATOM     20  C   UNL     1       7.973   2.775   0.888  0.00  0.00    +0.114 A 
BRANCH  20  21
ATOM     21  S   UNL     1       9.404   3.617   0.299  0.00  0.00    -0.069 S 
BRANCH  21  22
ATOM     22  C   UNL     1      10.430   3.764   1.724  0.00  0.00    +0.014 A 
ATOM     23  C   UNL     1      11.417   2.818   1.972  0.00  0.00    +0.015 A 
ATOM     24  C   UNL     1      12.219   2.937   3.090  0.00  0.00    +0.001 A 
ATOM     25  C   UNL     1      12.041   3.995   3.962  0.00  0.00    +0.000 A 
ATOM     26  C   UNL     1      11.059   4.938   3.719  0.00  0.00    +0.001 A 
ATOM     27  C   UNL     1      10.257   4.829   2.600  0.00  0.00    +0.015 A 
ENDBRANCH  21  22
ENDBRANCH  20  21
ENDBRANCH  11  15
BRANCH   1  29
ATOM     28  N   UNL     1       4.868  -1.652  -4.571  0.00  0.00    -0.311 N 
ATOM     29  C   UNL     1       4.707  -0.462  -3.958  0.00  0.00    +0.218 C 
ATOM     30  O   UNL     1       3.599   0.019  -3.850  0.00  0.00    -0.275 OA
ATOM     31  H   UNL     1       5.754  -2.037  -4.657  0.00  0.00    +0.149 HD
BRANCH  28  32
ATOM     32  C   UNL     1       3.705  -2.364  -5.106  0.00  0.00    +0.143 C 
BRANCH  32  38
ATOM     33  C   UNL     1       4.419  -4.761  -4.939  0.00  0.00    +0.125 A 
ATOM     34  C   UNL     1       4.827  -5.953  -5.522  0.00  0.00    +0.046 A 
ATOM     35  C   UNL     1       4.973  -6.035  -6.894  0.00  0.00    +0.004 A 
ATOM     36  C   UNL     1       4.713  -4.931  -7.685  0.00  0.00    +0.001 A 
ATOM     37  C   UNL     1       4.307  -3.743  -7.106  0.00  0.00    +0.009 A 
ATOM     38  C   UNL     1       4.154  -3.657  -5.736  0.00  0.00    +0.011 A 
BRANCH  33  39
ATOM     39  O   UNL     1       4.274  -4.679  -3.591  0.00  0.00    -0.492 OA
BRANCH  39  41
ATOM     40  C   UNL     1       4.346  -5.571  -1.346  0.00  0.00    +0.048 C 
ATOM     41  C   UNL     1       4.564  -5.855  -2.833  0.00  0.00    +0.225 C 
ENDBRANCH  39  41
ENDBRANCH  33  39
ENDBRANCH  32  38
ENDBRANCH  28  32
ENDBRANCH   1  29
TORSDOF 8
