REMARK  Name = ZINC03814410
REMARK  4 active torsions:
REMARK  status: ('A' for Active; 'I' for Inactive)
REMARK    1  A    between atoms: C_1  and  C_2
REMARK    2  A    between atoms: C_10  and  O_25
REMARK    3  A    between atoms: C_11  and  O_24
REMARK    4  A    between atoms: C_21  and  O_23
REMARK                            x       y       z     vdW  Elec       q    Type
REMARK                         _______ _______ _______ _____ _____    ______ ____
ROOT
ATOM      1  C   UNL     1      -0.019   1.526   0.010  0.00  0.00    +0.014 C 
ATOM      2  C   UNL     1       0.002  -0.004   0.002  0.00  0.00    -0.003 C 
ATOM      3  C   UNL     1      -1.406  -0.532   0.177  0.00  0.00    +0.010 C 
ATOM      4  C   UNL     1      -1.976   0.080   1.472  0.00  0.00    +0.009 C 
ATOM      5  C   UNL     1      -1.085  -0.252   2.660  0.00  0.00    +0.023 C 
ATOM      6  C   UNL     1      -1.600   0.360   3.931  0.00  0.00    -0.037 A 
ATOM      7  C   UNL     1      -2.973   0.477   4.095  0.00  0.00    +0.008 A 
ATOM      8  C   UNL     1      -3.501   1.023   5.246  0.00  0.00    +0.049 A 
ATOM      9  C   UNL     1      -2.653   1.459   6.252  0.00  0.00    +0.159 A 
ATOM     10  C   UNL     1      -1.279   1.347   6.088  0.00  0.00    +0.162 A 
ATOM     11  C   UNL     1      -0.748   0.801   4.922  0.00  0.00    +0.001 A 
ATOM     12  C   UNL     1       0.751   0.738   4.801  0.00  0.00    +0.039 C 
ATOM     13  C   UNL     1       1.179  -0.183   3.659  0.00  0.00    +0.009 C 
ATOM     14  C   UNL     1       0.362   0.202   2.425  0.00  0.00    +0.000 C 
ATOM     15  C   UNL     1       0.860  -0.520   1.191  0.00  0.00    +0.001 C 
ATOM     16  C   UNL     1       2.277  -0.171   0.720  0.00  0.00    +0.007 C 
ATOM     17  C   UNL     1       2.249  -0.555  -0.784  0.00  0.00    +0.032 C 
ATOM     18  C   UNL     1       0.764  -0.498  -1.222  0.00  0.00    +0.121 C 
ENDROOT
BRANCH  18  19
ATOM     19  O   UNL     1       0.602   0.416  -2.309  0.00  0.00    -0.391 OA
ATOM     20  H   UNL     1       1.065   0.153  -3.116  0.00  0.00    +0.210 HD
ENDBRANCH  18  19
BRANCH  10  21
ATOM     21  O   UNL     1      -0.445   1.773   7.074  0.00  0.00    -0.503 OA
ATOM     22  H   UNL     1      -0.226   1.093   7.726  0.00  0.00    +0.292 HD
ENDBRANCH  10  21
BRANCH   9  23
ATOM     23  O   UNL     1      -3.164   1.995   7.393  0.00  0.00    -0.503 OA
ATOM     24  H   UNL     1      -3.334   1.347   8.090  0.00  0.00    +0.292 HD
ENDBRANCH   9  23
TORSDOF 3
