REMARK  Name = ZINC05235083
REMARK  10 active torsions:
REMARK  status: ('A' for Active; 'I' for Inactive)
REMARK    1  A    between atoms: C_1  and  C_2
REMARK    2  A    between atoms: C_4  and  S_12
REMARK    3  A    between atoms: C_6  and  N_9
REMARK    4  A    between atoms: C_7  and  C_8
REMARK    5  A    between atoms: S_12  and  N_15
REMARK    6  A    between atoms: N_15  and  C_16
REMARK    7  A    between atoms: C_18  and  C_23
REMARK    8  A    between atoms: C_18  and  C_24
REMARK    9  A    between atoms: C_19  and  C_21
REMARK   10  A    between atoms: C_19  and  C_22
REMARK                            x       y       z     vdW  Elec       q    Type
REMARK                         _______ _______ _______ _____ _____    ______ ____
ROOT
ATOM      1  S   UNL     1       0.840   4.619  -4.277  0.00  0.00    +0.059 S 
ATOM      2  O   UNL     1       1.420   4.760  -5.567  0.00  0.00    -0.153 OA
ATOM      3  O   UNL     1      -0.561   4.708  -4.058  0.00  0.00    -0.153 OA
ENDROOT
BRANCH   1   7
ATOM      4  C   UNL     1       0.800   7.749  -0.091  0.00  0.00    +0.044 C 
ATOM      5  C   UNL     1       1.518   7.254  -1.320  0.00  0.00    -0.044 A 
ATOM      6  C   UNL     1       0.928   6.299  -2.128  0.00  0.00    +0.032 A 
ATOM      7  C   UNL     1       1.589   5.841  -3.252  0.00  0.00    +0.108 A 
ATOM      8  C   UNL     1       2.835   6.345  -3.575  0.00  0.00    +0.061 A 
ATOM      9  C   UNL     1       3.422   7.304  -2.771  0.00  0.00    +0.131 A 
ATOM     10  C   UNL     1       2.763   7.758  -1.643  0.00  0.00    -0.017 A 
ATOM     11  C   UNL     1       3.403   8.803  -0.766  0.00  0.00    +0.046 C 
BRANCH   9  12
ATOM     12  N   UNL     1       4.756   7.844  -3.116  0.00  0.00    +0.057 N 
ATOM     13  O   UNL     1       5.004   9.022  -2.928  0.00  0.00    -0.126 OA
ATOM     14  O   UNL     1       5.606   7.111  -3.590  0.00  0.00    -0.126 OA
ENDBRANCH   9  12
ENDBRANCH   1   7
BRANCH   1  15
ATOM     15  N   UNL     1       1.316   3.140  -3.704  0.00  0.00    -0.187 NA
ATOM     16  H   UNL     1       1.871   2.563  -4.252  0.00  0.00    +0.148 HD
BRANCH  15  17
ATOM     17  C   UNL     1       0.897   2.702  -2.367  0.00  0.00    +0.074 C 
ATOM     18  C   UNL     1       2.018   1.881  -1.732  0.00  0.00    +0.007 C 
ATOM     19  C   UNL     1       1.601   1.393  -0.346  0.00  0.00    -0.072 C 
ATOM     20  C   UNL     1      -0.788   1.326  -1.117  0.00  0.00    -0.072 C 
ATOM     21  C   UNL     1      -0.342   1.816  -2.493  0.00  0.00    +0.007 C 
ATOM     22  C   UNL     1      -1.845   0.220  -1.337  0.00  0.00    -0.010 C 
ATOM     23  C   UNL     1      -1.478   2.470  -0.365  0.00  0.00    -0.010 C 
ATOM     24  C   UNL     1       1.662   2.560   0.647  0.00  0.00    -0.010 C 
ATOM     25  C   UNL     1       2.642   0.348   0.112  0.00  0.00    -0.010 C 
ATOM     26  N   UNL     1       0.284   0.703  -0.296  0.00  0.00    +0.386 N 
ATOM     27  H   UNL     1      -0.030   0.690   0.681  0.00  0.00    -0.084 HD
ATOM     28  H   UNL     1       0.418  -0.261  -0.625  0.00  0.00    -0.084 HD
ENDBRANCH  15  17
ENDBRANCH   1  15
TORSDOF 4
