REMARK  Name = ZINC65031262
REMARK  6 active torsions:
REMARK  status: ('A' for Active; 'I' for Inactive)
REMARK    1  A    between atoms: C_1  and  C_2
REMARK    2  A    between atoms: C_3  and  C_23
REMARK    3  A    between atoms: C_6  and  C_7
REMARK    4  A    between atoms: C_10  and  S_12
REMARK    5  A    between atoms: S_12  and  N_15
REMARK    6  A    between atoms: C_20  and  C_22
REMARK                            x       y       z     vdW  Elec       q    Type
REMARK                         _______ _______ _______ _____ _____    ______ ____
ROOT
ATOM      1  C   UNL     1       0.216   0.009   2.147  0.00  0.00    +0.059 A 
ATOM      2  C   UNL     1       0.276  -0.880   3.205  0.00  0.00    +0.021 A 
ATOM      3  C   UNL     1       0.236  -0.377   4.485  0.00  0.00    +0.037 A 
ATOM      4  C   UNL     1       0.140   0.966   4.669  0.00  0.00    +0.143 A 
ATOM      5  S   UNL     1       0.109   1.578   2.993  0.00  0.00    -0.065 S 
ENDROOT
BRANCH   1  11
ATOM      6  C   UNL     1       0.083   2.155  -0.112  0.00  0.00    +0.049 C 
ATOM      7  C   UNL     1       0.183   0.663  -0.295  0.00  0.00    +0.020 A 
ATOM      8  C   UNL     1       0.240  -0.015  -1.520  0.00  0.00    +0.084 A 
ATOM      9  N   UNL     1       0.321  -1.294  -1.278  0.00  0.00    -0.083 NA
ATOM     10  O   UNL     1       0.320  -1.481   0.126  0.00  0.00    -0.354 OA
ATOM     11  C   UNL     1       0.240  -0.266   0.703  0.00  0.00    +0.177 A 
ATOM     12  C   UNL     1       0.211   0.625  -2.884  0.00  0.00    +0.069 C 
ENDBRANCH   1  11
BRANCH   4  13
ATOM     13  S   UNL     1       0.071   1.872   6.178  0.00  0.00    +0.067 S 
ATOM     14  O   UNL     1      -0.568   3.106   5.882  0.00  0.00    -0.152 OA
ATOM     15  O   UNL     1      -0.420   0.978   7.167  0.00  0.00    -0.152 OA
BRANCH  13  16
ATOM     16  N   UNL     1       1.630   2.236   6.603  0.00  0.00    -0.173 NA
ATOM     17  C   UNL     1       2.338   1.436   7.612  0.00  0.00    +0.110 C 
ATOM     18  C   UNL     1       2.878   2.374   8.695  0.00  0.00    +0.017 C 
ATOM     19  C   UNL     1       3.733   3.462   8.043  0.00  0.00    +0.003 C 
ATOM     20  C   UNL     1       2.872   4.282   7.079  0.00  0.00    +0.020 C 
ATOM     21  C   UNL     1       2.334   3.361   5.973  0.00  0.00    +0.077 C 
ATOM     22  C   UNL     1       1.363   4.140   5.083  0.00  0.00    +0.026 C 
ENDBRANCH  13  16
ENDBRANCH   4  13
TORSDOF 3
