REMARK  Name = ZINC12345387
REMARK  9 active torsions:
REMARK  status: ('A' for Active; 'I' for Inactive)
REMARK    1  A    between atoms: C_1  and  O_2
REMARK    2  A    between atoms: O_2  and  C_3
REMARK    3  A    between atoms: C_6  and  C_9
REMARK    4  A    between atoms: C_9  and  O_29
REMARK    5  A    between atoms: C_18  and  C_19
REMARK    6  A    between atoms: C_18  and  N_54
REMARK    7  A    between atoms: C_21  and  O_27
REMARK    8  A    between atoms: C_22  and  O_26
REMARK    9  A    between atoms: O_27  and  C_28
REMARK                            x       y       z     vdW  Elec       q    Type
REMARK                         _______ _______ _______ _____ _____    ______ ____
ROOT
ATOM      1  C   UNL     1       2.185   1.040   0.883  0.00  0.00    +0.088 C 
ATOM      2  C   UNL     1       1.559   1.254   2.264  0.00  0.00    +0.024 C 
ATOM      3  C   UNL     1       0.071   0.873   2.200  0.00  0.00    -0.065 C 
ATOM      4  C   UNL     1      -0.036  -0.497   1.493  0.00  0.00    -0.017 C 
ATOM      5  C   UNL     1      -0.146  -0.160  -0.009  0.00  0.00    -0.017 C 
ATOM      6  C   UNL     1      -0.096   1.384  -0.072  0.00  0.00    -0.065 C 
ATOM      7  C   UNL     1       1.380   1.803  -0.174  0.00  0.00    +0.024 C 
ATOM      8  N   UNL     1      -0.555   1.794   1.258  0.00  0.00    +0.386 N 
ATOM      9  H   UNL     1      -0.257   2.757   1.454  0.00  0.00    -0.081 HD
ENDROOT
BRANCH   1  13
ATOM     10  C   UNL     1       6.211   2.474   0.909  0.00  0.00    +0.120 A 
ATOM     11  C   UNL     1       5.853   1.421   0.079  0.00  0.00    +0.046 A 
ATOM     12  C   UNL     1       4.551   0.960   0.072  0.00  0.00    +0.010 A 
ATOM     13  C   UNL     1       3.605   1.546   0.892  0.00  0.00    -0.016 A 
ATOM     14  C   UNL     1       3.957   2.599   1.716  0.00  0.00    +0.010 A 
ATOM     15  C   UNL     1       5.259   3.060   1.730  0.00  0.00    +0.046 A 
BRANCH  10  17
ATOM     16  C   UNL     1       7.787   4.016   1.797  0.00  0.00    +0.277 C 
ATOM     17  O   UNL     1       7.491   2.929   0.918  0.00  0.00    -0.495 OA
ENDBRANCH  10  17
ENDBRANCH   1  13
BRANCH   1  18
ATOM     18  O   UNL     1       2.179  -0.354   0.569  0.00  0.00    -0.384 OA
ATOM     19  H   UNL     1       2.561  -0.565  -0.294  0.00  0.00    +0.211 HD
ENDBRANCH   1  18
BRANCH   8  20
ATOM     20  C   UNL     1      -2.050   1.714   1.345  0.00  0.00    -0.041 C 
BRANCH  20  21
ATOM     21  C   UNL     1      -2.680   2.693   0.388  0.00  0.00    -0.042 A 
ATOM     22  C   UNL     1      -3.252   2.239  -0.786  0.00  0.00    +0.052 A 
ATOM     23  C   UNL     1      -3.833   3.136  -1.666  0.00  0.00    +0.162 A 
ATOM     24  C   UNL     1      -3.839   4.496  -1.367  0.00  0.00    +0.160 A 
ATOM     25  C   UNL     1      -3.265   4.945  -0.189  0.00  0.00    +0.069 A 
ATOM     26  C   UNL     1      -2.691   4.043   0.689  0.00  0.00    +0.046 A 
ATOM     27 CL   UNL     1      -1.978   4.607   2.168  0.00  0.00    -0.083 Cl
BRANCH  24  28
ATOM     28  O   UNL     1      -4.407   5.381  -2.229  0.00  0.00    -0.503 OA
ATOM     29  H   UNL     1      -5.347   5.542  -2.064  0.00  0.00    +0.292 HD
ENDBRANCH  24  28
BRANCH  23  30
ATOM     30  O   UNL     1      -4.396   2.691  -2.821  0.00  0.00    -0.491 OA
ATOM     31  C   UNL     1      -4.353   1.283  -3.063  0.00  0.00    +0.277 C 
ENDBRANCH  23  30
ENDBRANCH  20  21
ENDBRANCH   8  20
TORSDOF 7
