REMARK  Name = ZINC17961859
REMARK  9 active torsions:
REMARK  status: ('A' for Active; 'I' for Inactive)
REMARK    1  A    between atoms: C_1  and  C_2
REMARK    2  A    between atoms: C_4  and  C_31
REMARK    3  A    between atoms: C_5  and  N_9
REMARK    4  A    between atoms: C_6  and  C_8
REMARK    5  A    between atoms: C_10  and  C_12
REMARK    6  A    between atoms: C_12  and  N_13
REMARK    7  A    between atoms: N_13  and  C_14
REMARK    8  A    between atoms: C_15  and  C_17
REMARK    9  A    between atoms: C_18  and  C_30
REMARK                            x       y       z     vdW  Elec       q    Type
REMARK                         _______ _______ _______ _____ _____    ______ ____
ROOT
ATOM      1  N   UNL     1       4.148   8.493   0.109  0.00  0.00    -0.289 N 
ATOM      2  C   UNL     1       5.509   8.039  -0.183  0.00  0.00    +0.133 C 
ATOM      3  C   UNL     1       3.117   7.628   0.030  0.00  0.00    +0.282 C 
ATOM      4  O   UNL     1       1.978   8.021   0.200  0.00  0.00    -0.267 OA
ENDROOT
BRANCH   3   5
ATOM      5  C   UNL     1       3.369   6.211  -0.263  0.00  0.00    +0.194 A 
ATOM      6  C   UNL     1       2.433   5.226  -0.246  0.00  0.00    +0.008 A 
ATOM      7  C   UNL     1       3.098   4.020  -0.584  0.00  0.00    +0.024 A 
ATOM      8  C   UNL     1       2.665   2.686  -0.727  0.00  0.00    +0.012 A 
ATOM      9  C   UNL     1       3.537   1.708  -1.067  0.00  0.00    +0.009 A 
ATOM     10  C   UNL     1       4.898   2.010  -1.286  0.00  0.00    -0.014 A 
ATOM     11  C   UNL     1       5.809   1.005  -1.646  0.00  0.00    +0.008 A 
ATOM     12  C   UNL     1       7.119   1.321  -1.847  0.00  0.00    +0.001 A 
ATOM     13  C   UNL     1       7.569   2.631  -1.711  0.00  0.00    +0.001 A 
ATOM     14  C   UNL     1       6.710   3.633  -1.368  0.00  0.00    +0.012 A 
ATOM     15  C   UNL     1       5.356   3.342  -1.149  0.00  0.00    +0.025 A 
ATOM     16  C   UNL     1       4.440   4.357  -0.793  0.00  0.00    +0.144 A 
ATOM     17  O   UNL     1       4.566   5.681  -0.592  0.00  0.00    -0.449 OA
ATOM     18  C   UNL     1       0.968   5.384   0.072  0.00  0.00    +0.048 C 
ENDBRANCH   3   5
BRANCH   1  19
ATOM     19  C   UNL     1       3.906   9.887   0.489  0.00  0.00    +0.203 C 
BRANCH  19  21
ATOM     20  N   UNL     1       3.816  11.226   2.567  0.00  0.00    -0.284 N 
ATOM     21  C   UNL     1       4.004  10.024   1.986  0.00  0.00    +0.235 C 
ATOM     22  O   UNL     1       4.251   9.053   2.670  0.00  0.00    -0.274 OA
ATOM     23  H   UNL     1       3.687  12.015   2.017  0.00  0.00    +0.155 HD
BRANCH  20  28
ATOM     24  C   UNL     1       3.783  11.672   8.222  0.00  0.00    +0.044 C 
ATOM     25  C   UNL     1       3.792  11.553   6.720  0.00  0.00    -0.050 A 
ATOM     26  C   UNL     1       4.610  12.376   5.968  0.00  0.00    +0.008 A 
ATOM     27  C   UNL     1       4.621  12.270   4.590  0.00  0.00    -0.029 A 
ATOM     28  C   UNL     1       3.808  11.336   3.961  0.00  0.00    +0.039 A 
ATOM     29  C   UNL     1       2.983  10.515   4.719  0.00  0.00    -0.029 A 
ATOM     30  C   UNL     1       2.982  10.622   6.096  0.00  0.00    +0.008 A 
ATOM     31  C   UNL     1       2.095   9.505   4.040  0.00  0.00    +0.045 C 
ATOM     32  C   UNL     1       5.513  13.167   3.772  0.00  0.00    +0.045 C 
ENDBRANCH  20  28
ENDBRANCH  19  21
ENDBRANCH   1  19
TORSDOF 4
