REMARK  Name = ZINC63506283
REMARK  11 active torsions:
REMARK  status: ('A' for Active; 'I' for Inactive)
REMARK    1  A    between atoms: C_1  and  C_2
REMARK    2  A    between atoms: C_6  and  C_35
REMARK    3  A    between atoms: N_8  and  C_10
REMARK    4  A    between atoms: C_10  and  C_11
REMARK    5  A    between atoms: N_13  and  C_14
REMARK    6  A    between atoms: C_14  and  C_15
REMARK    7  A    between atoms: C_15  and  C_16
REMARK    8  A    between atoms: C_19  and  O_27
REMARK    9  A    between atoms: C_24  and  C_26
REMARK   10  A    between atoms: O_27  and  C_28
REMARK   11  A    between atoms: C_28  and  C_29
REMARK                            x       y       z     vdW  Elec       q    Type
REMARK                         _______ _______ _______ _____ _____    ______ ____
ROOT
ATOM      1  C   UNL     1       4.002  -1.329   8.008  0.00  0.00    -0.037 C 
ATOM      2  C   UNL     1       4.462  -0.062   7.899  0.00  0.00    +0.003 A 
ATOM      3  C   UNL     1       4.172   1.024   6.956  0.00  0.00    +0.055 A 
ATOM      4  C   UNL     1       4.801   2.216   7.097  0.00  0.00    +0.122 A 
ATOM      5  C   UNL     1       5.732   2.456   8.122  0.00  0.00    +0.048 A 
ATOM      6  C   UNL     1       6.065   1.520   9.037  0.00  0.00    +0.029 A 
ATOM      7  C   UNL     1       5.443   0.193   8.979  0.00  0.00    +0.043 A 
ATOM      8  N   UNL     1       5.584  -0.874   9.725  0.00  0.00    -0.378 N 
ATOM      9  C   UNL     1       4.703  -1.927   9.208  0.00  0.00    +0.103 C 
ATOM     10  C   UNL     1       5.530  -3.142   8.784  0.00  0.00    +0.035 C 
ATOM     11  H   UNL     1       6.170  -0.953  10.494  0.00  0.00    +0.160 HD
ENDROOT
BRANCH   1  12
ATOM     12  C   UNL     1       2.992  -2.006   7.119  0.00  0.00    +0.052 C 
BRANCH  12  13
ATOM     13  C   UNL     1       2.542  -1.034   6.026  0.00  0.00    +0.108 C 
BRANCH  13  16
ATOM     14  C   UNL     1       1.020  -1.023   4.123  0.00  0.00    +0.229 C 
ATOM     15  O   UNL     1       1.347   0.124   3.905  0.00  0.00    -0.274 OA
ATOM     16  N   UNL     1       1.559  -1.692   5.162  0.00  0.00    -0.314 N 
ATOM     17  H   UNL     1       1.297  -2.610   5.336  0.00  0.00    +0.149 HD
BRANCH  14  18
ATOM     18  C   UNL     1       0.009  -1.700   3.234  0.00  0.00    +0.198 C 
BRANCH  18  23
ATOM     19  C   UNL     1      -0.019   1.526   0.010  0.00  0.00    +0.027 C 
ATOM     20  C   UNL     1       0.002  -0.004   0.002  0.00  0.00    +0.086 C 
ATOM     21  C   UNL     1      -1.437  -0.556   0.040  0.00  0.00    +0.117 C 
ATOM     22  C   UNL     1      -1.509  -1.359   1.359  0.00  0.00    +0.089 C 
ATOM     23  N   UNL     1      -0.423  -0.767   2.185  0.00  0.00    -0.230 NA
ATOM     24  N   UNL     1       0.662  -0.513   1.226  0.00  0.00    -0.249 NA
ATOM     25  C   UNL     1      -2.869  -1.167   2.034  0.00  0.00    +0.027 C 
ATOM     26 CL   UNL     1      -1.736  -1.635  -1.373  0.00  0.00    -0.118 Cl
ATOM     27  H   UNL     1       1.318   0.162   1.590  0.00  0.00    +0.141 HD
ENDBRANCH  18  23
ENDBRANCH  14  18
ENDBRANCH  13  16
ENDBRANCH  12  13
ENDBRANCH   1  12
BRANCH   4  28
ATOM     28  O   UNL     1       4.523   3.213   6.216  0.00  0.00    -0.487 OA
BRANCH  28  29
ATOM     29  C   UNL     1       5.210   4.452   6.402  0.00  0.00    +0.264 C 
BRANCH  29  30
ATOM     30  C   UNL     1       4.777   5.430   5.339  0.00  0.00    -0.010 A 
ATOM     31  C   UNL     1       5.458   5.492   4.138  0.00  0.00    +0.007 A 
ATOM     32  C   UNL     1       5.062   6.388   3.164  0.00  0.00    +0.000 A 
ATOM     33  C   UNL     1       3.983   7.223   3.390  0.00  0.00    +0.000 A 
ATOM     34  C   UNL     1       3.301   7.161   4.591  0.00  0.00    +0.000 A 
ATOM     35  C   UNL     1       3.696   6.261   5.564  0.00  0.00    +0.007 A 
ENDBRANCH  29  30
ENDBRANCH  28  29
ENDBRANCH   4  28
TORSDOF 8
