REMARK  Name = ZINC13017183
REMARK  2 active torsions:
REMARK  status: ('A' for Active; 'I' for Inactive)
REMARK    1  A    between atoms: C_4  and  C_7
REMARK    2  A    between atoms: C_18  and  C_20
REMARK                            x       y       z     vdW  Elec       q    Type
REMARK                         _______ _______ _______ _____ _____    ______ ____
ROOT
ATOM      1  C   UNL     1      -1.071   2.607   0.022  0.00  0.00    +0.026 C 
ATOM      2  C   UNL     1      -0.018   1.794  -0.111  0.00  0.00    +0.079 C 
ATOM      3  C   UNL     1       1.456   2.144  -0.200  0.00  0.00    +0.302 C 
ATOM      4  N   UNL     1       2.316   0.989  -0.345  0.00  0.00    -0.247 N 
ATOM      5  C   UNL     1       1.774  -0.237  -0.389  0.00  0.00    +0.281 C 
ATOM      6  O   UNL     1       2.358  -1.298  -0.507  0.00  0.00    -0.262 OA
ATOM      7  S   UNL     1       0.019   0.016  -0.238  0.00  0.00    -0.028 S 
ATOM      8  N   UNL     1       1.831   2.905   1.001  0.00  0.00    -0.186 N 
ATOM      9  C   UNL     1       3.176   3.510   1.122  0.00  0.00    +0.138 C 
ATOM     10  C   UNL     1       2.991   4.516   2.267  0.00  0.00    +0.086 C 
ATOM     11  C   UNL     1       1.644   4.146   2.853  0.00  0.00    +0.069 C 
ATOM     12  N   UNL     1       1.084   3.246   2.112  0.00  0.00    -0.183 NA
ATOM     13  C   UNL     1       3.457   4.193  -0.191  0.00  0.00    +0.018 A 
ATOM     14  C   UNL     1       4.484   5.116  -0.266  0.00  0.00    +0.024 A 
ATOM     15  C   UNL     1       4.772   5.743  -1.463  0.00  0.00    +0.018 A 
ATOM     16  C   UNL     1       4.030   5.442  -2.591  0.00  0.00    +0.019 A 
ATOM     17  C   UNL     1       3.002   4.528  -2.518  0.00  0.00    +0.047 A 
ATOM     18  C   UNL     1       2.698   3.895  -1.312  0.00  0.00    +0.131 A 
ATOM     19  O   UNL     1       1.646   3.038  -1.308  0.00  0.00    -0.446 OA
ATOM     20 BR   UNL     1       6.175   7.008  -1.559  0.00  0.00    -0.050 Br
ATOM     21  H   UNL     1       3.277   1.101  -0.411  0.00  0.00    +0.155 HD
ENDROOT
BRANCH   1  25
ATOM     22  C   UNL     1      -5.008   1.051  -0.287  0.00  0.00    +0.000 A 
ATOM     23  C   UNL     1      -4.797   2.275   0.324  0.00  0.00    +0.001 A 
ATOM     24  C   UNL     1      -3.521   2.787   0.427  0.00  0.00    +0.008 A 
ATOM     25  C   UNL     1      -2.439   2.066  -0.085  0.00  0.00    -0.024 A 
ATOM     26  C   UNL     1      -2.660   0.834  -0.705  0.00  0.00    +0.008 A 
ATOM     27  C   UNL     1      -3.942   0.332  -0.797  0.00  0.00    +0.001 A 
ENDBRANCH   1  25
BRANCH  11  28
ATOM     28  C   UNL     1       1.061   4.724   4.079  0.00  0.00    -0.002 A 
ATOM     29  C   UNL     1       1.764   5.689   4.803  0.00  0.00    +0.010 A 
ATOM     30  C   UNL     1       1.212   6.228   5.946  0.00  0.00    +0.001 A 
ATOM     31  C   UNL     1      -0.032   5.807   6.381  0.00  0.00    +0.000 A 
ATOM     32  C   UNL     1      -0.733   4.847   5.672  0.00  0.00    +0.001 A 
ATOM     33  C   UNL     1      -0.194   4.303   4.524  0.00  0.00    +0.010 A 
ENDBRANCH  11  28
TORSDOF 2
