REMARK  Name = ZINC39850580
REMARK  7 active torsions:
REMARK  status: ('A' for Active; 'I' for Inactive)
REMARK    1  A    between atoms: C_1  and  C_2
REMARK    2  A    between atoms: C_5  and  C_13
REMARK    3  A    between atoms: C_6  and  C_7
REMARK    4  A    between atoms: C_6  and  C_8
REMARK    5  A    between atoms: C_10  and  O_12
REMARK    6  A    between atoms: N_15  and  C_16
REMARK    7  A    between atoms: C_21  and  N_22
REMARK                            x       y       z     vdW  Elec       q    Type
REMARK                         _______ _______ _______ _____ _____    ______ ____
ROOT
ATOM      1  C   UNL     1       1.038  -3.257   1.613  0.00  0.00    +0.224 C 
ATOM      2  O   UNL     1       1.612  -2.969   2.642  0.00  0.00    -0.275 OA
ATOM      3  N   UNL     1       0.886  -4.550   1.265  0.00  0.00    -0.283 N 
ATOM      4  H   UNL     1       0.359  -4.784   0.485  0.00  0.00    +0.155 HD
ENDROOT
BRANCH   1   9
ATOM      5  C   UNL     1       0.013   1.526  -0.009  0.00  0.00    +0.014 C 
ATOM      6  C   UNL     1       0.028  -0.004  -0.014  0.00  0.00    +0.000 C 
ATOM      7  C   UNL     1       0.776  -0.674  -1.206  0.00  0.00    +0.011 C 
ATOM      8  C   UNL     1       1.084  -2.108  -0.718  0.00  0.00    +0.017 C 
ATOM      9  C   UNL     1       0.494  -2.168   0.724  0.00  0.00    +0.055 C 
ATOM     10  C   UNL     1       0.742  -0.694   1.202  0.00  0.00    -0.013 C 
ATOM     11  C   UNL     1       0.038  -0.394   2.527  0.00  0.00    +0.012 C 
ATOM     12  C   UNL     1       2.232  -0.353   1.260  0.00  0.00    +0.012 C 
ATOM     13  C   UNL     1      -1.051  -2.147   0.514  0.00  0.00    +0.048 C 
ATOM     14  C   UNL     1      -1.367  -0.699   0.038  0.00  0.00    +0.122 C 
BRANCH  14  15
ATOM     15  O   UNL     1      -1.955  -0.734  -1.263  0.00  0.00    -0.391 OA
ATOM     16  H   UNL     1      -2.825  -1.155  -1.291  0.00  0.00    +0.210 HD
ENDBRANCH  14  15
ENDBRANCH   1   9
BRANCH   3  17
ATOM     17  C   UNL     1       1.490  -5.556   2.029  0.00  0.00    +0.057 A 
ATOM     18  C   UNL     1       2.616  -5.272   2.789  0.00  0.00    +0.025 A 
ATOM     19  C   UNL     1       3.211  -6.266   3.542  0.00  0.00    +0.002 A 
ATOM     20  C   UNL     1       2.687  -7.546   3.541  0.00  0.00    +0.002 A 
ATOM     21  C   UNL     1       1.565  -7.838   2.788  0.00  0.00    +0.028 A 
ATOM     22  C   UNL     1       0.959  -6.845   2.033  0.00  0.00    +0.067 A 
BRANCH  22  23
ATOM     23  N   UNL     1      -0.182  -7.138   1.272  0.00  0.00    -0.321 N 
ATOM     24  C   UNL     1      -1.343  -6.419   1.270  0.00  0.00    +0.091 A 
ATOM     25  C   UNL     1      -2.203  -7.010   0.415  0.00  0.00    +0.019 A 
ATOM     26  C   UNL     1      -1.551  -8.134  -0.131  0.00  0.00    +0.019 A 
ATOM     27  C   UNL     1      -0.315  -8.185   0.406  0.00  0.00    +0.091 A 
ENDBRANCH  22  23
ENDBRANCH   3  17
TORSDOF 4
