REMARK  Name = ZINC09716034
REMARK  6 active torsions:
REMARK  status: ('A' for Active; 'I' for Inactive)
REMARK    1  A    between atoms: C_1  and  C_2
REMARK    2  A    between atoms: C_7  and  N_8
REMARK    3  A    between atoms: C_11  and  C_16
REMARK    4  A    between atoms: C_16  and  S_17
REMARK    5  A    between atoms: S_17  and  C_18
REMARK    6  A    between atoms: N_28  and  C_29
REMARK                            x       y       z     vdW  Elec       q    Type
REMARK                         _______ _______ _______ _____ _____    ______ ____
ROOT
ATOM      1  C   UNL     1       2.437   5.899  -0.323  0.00  0.00    +0.153 C 
ENDROOT
BRANCH   1   5
ATOM      2  N   UNL     1      -0.700   8.351  -3.001  0.00  0.00    -0.283 N 
ATOM      3  C   UNL     1      -0.097   8.139  -1.776  0.00  0.00    +0.224 A 
ATOM      4  N   UNL     1       0.825   7.188  -1.643  0.00  0.00    -0.198 NA
ATOM      5  C   UNL     1       1.399   6.981  -0.471  0.00  0.00    +0.146 A 
ATOM      6  N   UNL     1       1.067   7.723   0.572  0.00  0.00    -0.199 NA
ATOM      7  C   UNL     1       0.150   8.680   0.445  0.00  0.00    +0.217 A 
ATOM      8  N   UNL     1      -0.432   8.887  -0.731  0.00  0.00    -0.181 NA
ATOM      9  N   UNL     1      -0.195   9.454   1.534  0.00  0.00    -0.327 N 
ATOM     10  H   UNL     1      -0.396   7.863  -3.782  0.00  0.00    +0.155 HD
ATOM     11  H   UNL     1       0.230   9.301   2.392  0.00  0.00    +0.145 HD
ATOM     12  H   UNL     1      -0.864  10.151   1.441  0.00  0.00    +0.145 HD
BRANCH   2  19
ATOM     13  C   UNL     1      -0.986   9.767  -5.452  0.00  0.00    +0.045 C 
ATOM     14  C   UNL     1      -1.925   9.982  -4.293  0.00  0.00    -0.029 A 
ATOM     15  C   UNL     1      -2.962  10.888  -4.402  0.00  0.00    +0.005 A 
ATOM     16  C   UNL     1      -3.824  11.085  -3.339  0.00  0.00    +0.000 A 
ATOM     17  C   UNL     1      -3.651  10.377  -2.164  0.00  0.00    +0.002 A 
ATOM     18  C   UNL     1      -2.619   9.466  -2.050  0.00  0.00    +0.023 A 
ATOM     19  C   UNL     1      -1.748   9.269  -3.114  0.00  0.00    +0.036 A 
ENDBRANCH   2  19
ENDBRANCH   1   5
BRANCH   1  20
ATOM     20  S   UNL     1       1.630   4.348   0.144  0.00  0.00    -0.079 S 
BRANCH  20  21
ATOM     21  C   UNL     1       3.036   3.290   0.245  0.00  0.00    +0.177 A 
ATOM     22  N   UNL     1       4.218   3.797  -0.004  0.00  0.00    -0.223 NA
ATOM     23  C   UNL     1       5.339   3.039   0.051  0.00  0.00    +0.079 A 
ATOM     24  C   UNL     1       6.601   3.576  -0.221  0.00  0.00    +0.028 A 
ATOM     25  C   UNL     1       7.705   2.775  -0.155  0.00  0.00    +0.002 A 
ATOM     26  C   UNL     1       7.594   1.431   0.179  0.00  0.00    +0.001 A 
ATOM     27  C   UNL     1       6.374   0.876   0.450  0.00  0.00    +0.015 A 
ATOM     28  C   UNL     1       5.230   1.671   0.390  0.00  0.00    +0.065 A 
ATOM     29  C   UNL     1       3.893   1.130   0.670  0.00  0.00    +0.267 A 
ATOM     30  O   UNL     1       3.736  -0.040   0.967  0.00  0.00    -0.267 OA
ATOM     31  N   UNL     1       2.843   1.980   0.586  0.00  0.00    -0.255 N 
BRANCH  31  32
ATOM     32  C   UNL     1       1.548   1.512   0.844  0.00  0.00    +0.052 A 
ATOM     33  C   UNL     1       0.938   0.631  -0.040  0.00  0.00    +0.026 A 
ATOM     34  C   UNL     1      -0.339   0.172   0.217  0.00  0.00    +0.002 A 
ATOM     35  C   UNL     1      -1.010   0.588   1.353  0.00  0.00    +0.000 A 
ATOM     36  C   UNL     1      -0.405   1.465   2.234  0.00  0.00    +0.002 A 
ATOM     37  C   UNL     1       0.872   1.928   1.983  0.00  0.00    +0.026 A 
ENDBRANCH  31  32
ENDBRANCH  20  21
ENDBRANCH   1  20
TORSDOF 5
