REMARK  Name = ZINC23664830
REMARK  9 active torsions:
REMARK  status: ('A' for Active; 'I' for Inactive)
REMARK    1  A    between atoms: C_1  and  C_2
REMARK    2  A    between atoms: C_5  and  C_8
REMARK    3  A    between atoms: C_8  and  C_10
REMARK    4  A    between atoms: C_8  and  N_15
REMARK    5  A    between atoms: C_16  and  C_18
REMARK    6  A    between atoms: C_18  and  N_19
REMARK    7  A    between atoms: N_22  and  C_25
REMARK    8  A    between atoms: C_25  and  C_26
REMARK    9  A    between atoms: N_28  and  C_29
REMARK                            x       y       z     vdW  Elec       q    Type
REMARK                         _______ _______ _______ _____ _____    ______ ____
ROOT
ATOM      1  C   UNL     1       2.175  -2.925  -3.018  0.00  0.00    +0.019 C 
ENDROOT
BRANCH   1   2
ATOM      2  N   UNL     1       2.472  -2.822  -4.453  0.00  0.00    +0.387 N 
ATOM      3  C   UNL     1       2.019  -1.532  -4.993  0.00  0.00    -0.063 C 
ATOM      4  C   UNL     1       2.416  -1.432  -6.467  0.00  0.00    +0.066 C 
ATOM      5  N   UNL     1       1.818  -2.550  -7.210  0.00  0.00    -0.298 NA
ATOM      6  C   UNL     1       2.271  -3.839  -6.670  0.00  0.00    +0.066 C 
ATOM      7  C   UNL     1       1.873  -3.940  -5.196  0.00  0.00    -0.063 C 
ATOM      8  H   UNL     1       3.563  -2.877  -4.576  0.00  0.00    -0.081 HD
BRANCH   5   9
ATOM      9  C   UNL     1       2.114  -2.446  -8.645  0.00  0.00    +0.180 C 
BRANCH   9  10
ATOM     10  C   UNL     1       1.426  -1.232  -9.214  0.00  0.00    +0.231 C 
ATOM     11  O   UNL     1       0.754  -0.523  -8.495  0.00  0.00    -0.274 OA
ATOM     12  N   UNL     1       1.556  -0.935 -10.522  0.00  0.00    -0.284 N 
ATOM     13  H   UNL     1       2.233  -1.526 -11.156  0.00  0.00    +0.155 HD
BRANCH  12  14
ATOM     14  C   UNL     1       0.830   0.126 -11.074  0.00  0.00    +0.033 A 
ATOM     15  C   UNL     1      -0.440   0.423 -10.597  0.00  0.00    +0.023 A 
ATOM     16  C   UNL     1      -1.151   1.475 -11.140  0.00  0.00    +0.002 A 
ATOM     17  C   UNL     1      -0.605   2.225 -12.165  0.00  0.00    +0.000 A 
ATOM     18  C   UNL     1       0.657   1.928 -12.647  0.00  0.00    +0.002 A 
ATOM     19  C   UNL     1       1.376   0.881 -12.104  0.00  0.00    +0.023 A 
ENDBRANCH  12  14
ENDBRANCH   9  10
ENDBRANCH   5   9
ENDBRANCH   1   2
BRANCH   1  21
ATOM     20  N   UNL     1       2.891  -1.827  -0.920  0.00  0.00    -0.306 N 
ATOM     21  C   UNL     1       2.998  -1.915  -2.261  0.00  0.00    +0.197 C 
ATOM     22  O   UNL     1       3.757  -1.181  -2.858  0.00  0.00    -0.278 OA
ATOM     23  H   UNL     1       2.203  -2.492  -0.379  0.00  0.00    +0.150 HD
BRANCH  20  24
ATOM     24  C   UNL     1       3.691  -0.845  -0.184  0.00  0.00    +0.140 C 
BRANCH  24  29
ATOM     25  C   UNL     1       4.418  -2.640   5.260  0.00  0.00    +0.044 C 
ATOM     26  C   UNL     1       4.229  -2.172   3.840  0.00  0.00    -0.050 A 
ATOM     27  C   UNL     1       5.275  -1.573   3.164  0.00  0.00    +0.004 A 
ATOM     28  C   UNL     1       5.101  -1.143   1.862  0.00  0.00    +0.006 A 
ATOM     29  C   UNL     1       3.881  -1.313   1.235  0.00  0.00    -0.022 A 
ATOM     30  C   UNL     1       2.833  -1.908   1.913  0.00  0.00    +0.006 A 
ATOM     31  C   UNL     1       3.009  -2.342   3.213  0.00  0.00    +0.004 A 
ENDBRANCH  24  29
BRANCH  24  32
ATOM     32  C   UNL     1       2.980   0.484  -0.184  0.00  0.00    +0.014 A 
ATOM     33  C   UNL     1       3.496   1.729  -0.327  0.00  0.00    +0.013 A 
ATOM     34  C   UNL     1       2.643   2.816  -0.293  0.00  0.00    +0.008 A 
ATOM     35  C   UNL     1       1.316   2.606  -0.118  0.00  0.00    +0.045 A 
ATOM     36  S   UNL     1       1.238   0.826   0.006  0.00  0.00    -0.099 S 
ENDBRANCH  24  32
ENDBRANCH  20  24
ENDBRANCH   1  21
TORSDOF 8
