REMARK  Name = ZINC04436302
REMARK  6 active torsions:
REMARK  status: ('A' for Active; 'I' for Inactive)
REMARK    1  A    between atoms: C_1  and  C_2
REMARK    2  A    between atoms: C_7  and  C_8
REMARK    3  A    between atoms: C_13  and  C_17
REMARK    4  A    between atoms: C_13  and  C_18
REMARK    5  A    between atoms: C_23  and  S_25
REMARK    6  A    between atoms: S_25  and  C_26
REMARK                            x       y       z     vdW  Elec       q    Type
REMARK                         _______ _______ _______ _____ _____    ______ ____
ROOT
ATOM      1  C   UNL     1       0.243   0.048   2.493  0.00  0.00    +0.176 C 
ATOM      2  C   UNL     1       1.607  -0.204   3.096  0.00  0.00    +0.041 C 
ATOM      3  C   UNL     1       1.781  -1.005   4.169  0.00  0.00    +0.020 C 
ATOM      4  C   UNL     1       3.155  -1.237   4.751  0.00  0.00    +0.058 C 
ATOM      5  C   UNL     1       4.206  -1.150   3.642  0.00  0.00    -0.023 C 
ATOM      6  C   UNL     1       4.106   0.234   2.992  0.00  0.00    +0.086 C 
ATOM      7  C   UNL     1       2.703   0.436   2.489  0.00  0.00    +0.164 C 
ATOM      8  O   UNL     1       2.512   1.168   1.538  0.00  0.00    -0.292 OA
ATOM      9  C   UNL     1       5.602  -1.339   4.239  0.00  0.00    +0.011 C 
ATOM     10  C   UNL     1       3.941  -2.232   2.594  0.00  0.00    +0.011 C 
ATOM     11  N   UNL     1       0.724  -1.636   4.780  0.00  0.00    -0.287 N 
ATOM     12  C   UNL     1      -0.557  -1.204   4.475  0.00  0.00    +0.219 A 
ATOM     13  N   UNL     1      -0.796  -0.409   3.406  0.00  0.00    -0.220 N 
ATOM     14  N   UNL     1      -2.168  -0.160   3.399  0.00  0.00    -0.141 NA
ATOM     15  C   UNL     1      -2.675  -0.803   4.429  0.00  0.00    +0.210 A 
ATOM     16  N   UNL     1      -1.693  -1.434   5.075  0.00  0.00    -0.187 NA
ATOM     17  H   UNL     1       0.869  -2.363   5.405  0.00  0.00    +0.155 HD
ENDROOT
BRANCH   1  24
ATOM     18  C   UNL     1      -0.476   1.459   0.076  0.00  0.00    +0.044 C 
ATOM     19  C   UNL     1      -0.217  -0.025   0.034  0.00  0.00    -0.045 A 
ATOM     20  C   UNL     1      -0.318  -0.710  -1.163  0.00  0.00    +0.004 A 
ATOM     21  C   UNL     1      -0.080  -2.071  -1.202  0.00  0.00    +0.000 A 
ATOM     22  C   UNL     1       0.259  -2.747  -0.045  0.00  0.00    +0.000 A 
ATOM     23  C   UNL     1       0.361  -2.062   1.151  0.00  0.00    +0.006 A 
ATOM     24  C   UNL     1       0.127  -0.700   1.190  0.00  0.00    -0.016 A 
ENDBRANCH   1  24
BRANCH  15  25
ATOM     25  S   UNL     1      -4.378  -0.827   4.882  0.00  0.00    -0.088 S 
ATOM     26  C   UNL     1      -4.422  -1.873   6.364  0.00  0.00    +0.093 C 
ENDBRANCH  15  25
TORSDOF 2
