REMARK  Name = ZINC58982502
REMARK  5 active torsions:
REMARK  status: ('A' for Active; 'I' for Inactive)
REMARK    1  A    between atoms: C_1  and  C_2
REMARK    2  A    between atoms: C_2  and  C_9
REMARK    3  A    between atoms: C_13  and  N_15
REMARK    4  A    between atoms: C_16  and  C_18
REMARK    5  A    between atoms: C_18  and  C_19
REMARK                            x       y       z     vdW  Elec       q    Type
REMARK                         _______ _______ _______ _____ _____    ______ ____
ROOT
ATOM      1  N   UNL     1       0.216  -0.319  -4.900  0.00  0.00    -0.285 N 
ATOM      2  C   UNL     1       0.860  -0.694  -6.023  0.00  0.00    +0.219 C 
ATOM      3  O   UNL     1       1.843  -1.400  -5.951  0.00  0.00    -0.275 OA
ATOM      4  H   UNL     1      -0.613   0.181  -4.960  0.00  0.00    +0.155 HD
ENDROOT
BRANCH   1   9
ATOM      5  C   UNL     1       0.416  -1.248  -1.347  0.00  0.00    -0.014 A 
ATOM      6  C   UNL     1       1.787  -1.307  -1.170  0.00  0.00    +0.006 A 
ATOM      7  C   UNL     1       2.636  -1.040  -2.227  0.00  0.00    +0.002 A 
ATOM      8  C   UNL     1       2.119  -0.712  -3.465  0.00  0.00    +0.023 A 
ATOM      9  C   UNL     1       0.744  -0.651  -3.647  0.00  0.00    +0.034 A 
ATOM     10  C   UNL     1      -0.107  -0.926  -2.584  0.00  0.00    +0.029 A 
BRANCH   5  12
ATOM     11  C   UNL     1      -1.406  -0.337   0.094  0.00  0.00    +0.047 C 
ATOM     12  C   UNL     1      -0.506  -1.541  -0.192  0.00  0.00    +0.135 C 
ATOM     13  C   UNL     1      -1.339  -2.776  -0.471  0.00  0.00    +0.248 C 
ATOM     14  O   UNL     1      -2.134  -2.935  -1.373  0.00  0.00    -0.273 OA
ATOM     15  N   UNL     1      -1.012  -3.661   0.492  0.00  0.00    -0.238 N 
ATOM     16  C   UNL     1      -0.098  -3.161   1.331  0.00  0.00    +0.307 C 
ATOM     17  O   UNL     1       0.354  -3.773   2.279  0.00  0.00    -0.252 OA
ATOM     18  N   UNL     1       0.266  -1.907   1.007  0.00  0.00    -0.282 N 
ATOM     19  H   UNL     1      -1.393  -4.549   0.567  0.00  0.00    +0.159 HD
ATOM     20  H   UNL     1       0.911  -1.353   1.473  0.00  0.00    +0.152 HD
ENDBRANCH   5  12
ENDBRANCH   1   9
BRANCH   2  21
ATOM     21  C   UNL     1       0.357  -0.236  -7.368  0.00  0.00    +0.120 C 
BRANCH  21  22
ATOM     22  C   UNL     1       1.260  -0.798  -8.468  0.00  0.00    +0.146 C 
ATOM     23  C   UNL     1       0.830  -0.252  -9.804  0.00  0.00    +0.231 C 
ATOM     24  O   UNL     1       1.435   0.693 -10.264  0.00  0.00    -0.274 OA
ATOM     25  N   UNL     1      -0.181  -0.756 -10.505  0.00  0.00    -0.284 N 
ATOM     26  C   UNL     1      -0.913  -1.900 -10.201  0.00  0.00    +0.048 A 
ATOM     27  C   UNL     1      -2.140  -2.106 -10.825  0.00  0.00    +0.044 A 
ATOM     28  C   UNL     1      -2.890  -3.229 -10.533  0.00  0.00    +0.043 A 
ATOM     29  C   UNL     1      -2.430  -4.161  -9.619  0.00  0.00    +0.021 A 
ATOM     30  C   UNL     1      -1.211  -3.971  -8.995  0.00  0.00    +0.018 A 
ATOM     31  C   UNL     1      -0.453  -2.849  -9.288  0.00  0.00    +0.030 A 
ATOM     32  S   UNL     1       1.120  -2.611  -8.508  0.00  0.00    -0.110 S 
ATOM     33 CL   UNL     1      -4.418  -3.473 -11.319  0.00  0.00    -0.083 Cl
ATOM     34  H   UNL     1      -0.435  -0.278 -11.310  0.00  0.00    +0.155 HD
ENDBRANCH  21  22
ENDBRANCH   2  21
TORSDOF 4
