REMARK  Name = ZINC01465353
REMARK  6 active torsions:
REMARK  status: ('A' for Active; 'I' for Inactive)
REMARK    1  A    between atoms: C_1  and  C_2
REMARK    2  A    between atoms: C_4  and  S_13
REMARK    3  A    between atoms: S_13  and  C_14
REMARK    4  A    between atoms: C_14  and  C_15
REMARK    5  A    between atoms: C_15  and  C_17
REMARK    6  A    between atoms: C_18  and  C_27
REMARK                            x       y       z     vdW  Elec       q    Type
REMARK                         _______ _______ _______ _____ _____    ______ ____
ROOT
ATOM      1  C   UNL     1       4.524   5.204   0.101  0.00  0.00    +0.155 C 
ENDROOT
BRANCH   1   2
ATOM      2  C   UNL     1       3.598   4.021  -0.013  0.00  0.00    +0.176 C 
ATOM      3  O   UNL     1       4.054   2.900  -0.111  0.00  0.00    -0.291 OA
BRANCH   2   4
ATOM      4  C   UNL     1       2.194   4.216  -0.004  0.00  0.00    +0.046 A 
ATOM      5  C   UNL     1       1.368   4.338  -1.101  0.00  0.00    +0.024 A 
ATOM      6  N   UNL     1       0.097   4.512  -0.694  0.00  0.00    -0.358 N 
ATOM      7  H   UNL     1      -0.663   4.621  -1.287  0.00  0.00    +0.166 HD
ATOM      8  C   UNL     1       0.022   4.514   0.685  0.00  0.00    +0.047 A 
ATOM      9  C   UNL     1       1.322   4.329   1.182  0.00  0.00    +0.010 A 
ATOM     10  C   UNL     1       1.546   4.289   2.554  0.00  0.00    +0.011 A 
ATOM     11  C   UNL     1       0.486   4.431   3.424  0.00  0.00    +0.001 A 
ATOM     12  C   UNL     1      -0.800   4.607   2.935  0.00  0.00    +0.002 A 
ATOM     13  C   UNL     1      -1.035   4.655   1.578  0.00  0.00    +0.026 A 
ATOM     14  C   UNL     1       1.820   4.285  -2.538  0.00  0.00    +0.064 C 
ENDBRANCH   2   4
ENDBRANCH   1   2
BRANCH   1  15
ATOM     15  S   UNL     1       6.236   4.652  -0.097  0.00  0.00    -0.098 S 
BRANCH  15  19
ATOM     16  C   UNL     1      10.641   7.462   0.024  0.00  0.00    +0.044 C 
ATOM     17  C   UNL     1       9.138   7.404   0.116  0.00  0.00    -0.039 A 
ATOM     18  C   UNL     1       8.476   6.220  -0.009  0.00  0.00    +0.038 A 
ATOM     19  C   UNL     1       7.076   6.191   0.075  0.00  0.00    +0.098 A 
ATOM     20  N   UNL     1       6.375   7.287   0.284  0.00  0.00    -0.240 NA
ATOM     21  C   UNL     1       6.971   8.477   0.421  0.00  0.00    +0.073 A 
ATOM     22  C   UNL     1       8.382   8.573   0.340  0.00  0.00    +0.005 A 
ATOM     23  C   UNL     1       9.001   9.824   0.483  0.00  0.00    +0.030 A 
ATOM     24  C   UNL     1       8.238  10.933   0.697  0.00  0.00    +0.042 A 
ATOM     25  C   UNL     1       6.850  10.840   0.777  0.00  0.00    +0.022 A 
ATOM     26  C   UNL     1       6.218   9.642   0.643  0.00  0.00    +0.030 A 
ATOM     27 CL   UNL     1       9.006  12.480   0.874  0.00  0.00    -0.084 Cl
ENDBRANCH  15  19
ENDBRANCH   1  15
TORSDOF 4
