REMARK  Name = ZINC59880754
REMARK  8 active torsions:
REMARK  status: ('A' for Active; 'I' for Inactive)
REMARK    1  A    between atoms: C_1  and  O_2
REMARK    2  A    between atoms: O_2  and  C_3
REMARK    3  A    between atoms: C_8  and  C_9
REMARK    4  A    between atoms: N_10  and  N_11
REMARK    5  A    between atoms: C_14  and  S_17
REMARK    6  A    between atoms: S_17  and  C_18
REMARK    7  A    between atoms: C_18  and  C_19
REMARK    8  A    between atoms: C_22  and  C_24
REMARK                            x       y       z     vdW  Elec       q    Type
REMARK                         _______ _______ _______ _____ _____    ______ ____
ROOT
ATOM      1  N   UNL     1       2.318  -2.984  -0.035  0.00  0.00    -0.205 N 
ATOM      2  C   UNL     1       3.545  -2.347  -0.043  0.00  0.00    +0.232 A 
ATOM      3  N   UNL     1       3.741  -1.045  -0.032  0.00  0.00    -0.186 NA
ATOM      4  C   UNL     1       5.053  -0.787  -0.044  0.00  0.00    +0.211 A 
ATOM      5  N   UNL     1       5.710  -1.922  -0.062  0.00  0.00    -0.144 NA
ATOM      6  N   UNL     1       4.753  -2.949  -0.057  0.00  0.00    -0.245 N 
ATOM      7  H   UNL     1       2.275  -3.953  -0.040  0.00  0.00    +0.177 HD
ATOM      8  H   UNL     1       4.926  -3.904  -0.064  0.00  0.00    +0.192 HD
ENDROOT
BRANCH   1  10
ATOM      9  C   UNL     1      -0.015  -2.830  -0.013  0.00  0.00    +0.142 C 
ATOM     10  N   UNL     1       1.137  -2.231  -0.020  0.00  0.00    -0.187 NA
BRANCH   9  16
ATOM     11  C   UNL     1      -1.200  -0.637   0.010  0.00  0.00    +0.129 A 
ATOM     12  C   UNL     1      -2.373   0.099   0.019  0.00  0.00    +0.047 A 
ATOM     13  C   UNL     1      -3.596  -0.546   0.027  0.00  0.00    +0.019 A 
ATOM     14  C   UNL     1      -3.658  -1.930   0.026  0.00  0.00    +0.019 A 
ATOM     15  C   UNL     1      -2.498  -2.678   0.017  0.00  0.00    +0.028 A 
ATOM     16  C   UNL     1      -1.257  -2.037   0.003  0.00  0.00    +0.037 A 
ATOM     17 BR   UNL     1      -5.338  -2.797   0.037  0.00  0.00    -0.050 Br
BRANCH  11  19
ATOM     18  C   UNL     1      -0.017   1.425   0.010  0.00  0.00    +0.277 C 
ATOM     19  O   UNL     1       0.002  -0.004   0.002  0.00  0.00    -0.494 OA
ENDBRANCH  11  19
ENDBRANCH   9  16
ENDBRANCH   1  10
BRANCH   4  20
ATOM     20  S   UNL     1       5.781   0.818  -0.036  0.00  0.00    -0.075 S 
BRANCH  20  21
ATOM     21  C   UNL     1       7.565   0.490  -0.059  0.00  0.00    +0.175 C 
BRANCH  21  22
ATOM     22  C   UNL     1       8.316   1.797  -0.055  0.00  0.00    +0.227 A 
ATOM     23  N   UNL     1       8.716   2.453   0.997  0.00  0.00    -0.112 NA
ATOM     24  N   UNL     1       9.324   3.524   0.626  0.00  0.00    -0.112 NA
ATOM     25  C   UNL     1       9.332   3.589  -0.675  0.00  0.00    +0.220 A 
ATOM     26  O   UNL     1       8.700   2.497  -1.136  0.00  0.00    -0.424 OA
BRANCH  25  27
ATOM     27  C   UNL     1       9.944   4.684  -1.509  0.00  0.00    +0.077 C 
ATOM     28  C   UNL     1      11.262   5.232  -0.937  0.00  0.00    +0.013 C 
ATOM     29  C   UNL     1      10.770   6.629  -1.353  0.00  0.00    +0.001 C 
ATOM     30  C   UNL     1       9.341   6.073  -1.240  0.00  0.00    +0.013 C 
ENDBRANCH  25  27
ENDBRANCH  21  22
ENDBRANCH  20  21
ENDBRANCH   4  20
TORSDOF 7
