REMARK  Name = ZINC43210334
REMARK  11 active torsions:
REMARK  status: ('A' for Active; 'I' for Inactive)
REMARK    1  A    between atoms: C_1  and  C_2
REMARK    2  A    between atoms: C_2  and  C_3
REMARK    3  A    between atoms: C_4  and  C_19
REMARK    4  A    between atoms: C_5  and  C_16
REMARK    5  A    between atoms: C_6  and  C_15
REMARK    6  A    between atoms: N_7  and  C_8
REMARK    7  A    between atoms: C_8  and  C_9
REMARK    8  A    between atoms: C_9  and  C_10
REMARK    9  A    between atoms: C_22  and  N_25
REMARK   10  A    between atoms: N_25  and  C_26
REMARK   11  A    between atoms: N_25  and  C_27
REMARK                            x       y       z     vdW  Elec       q    Type
REMARK                         _______ _______ _______ _____ _____    ______ ____
ROOT
ATOM      1  C   UNL     1      -1.412  -0.526   0.013  0.00  0.00    +0.027 A 
ATOM      2  C   UNL     1      -2.146  -0.800   1.121  0.00  0.00    +0.015 A 
ATOM      3  C   UNL     1      -3.452  -1.280   0.636  0.00  0.00    +0.065 A 
ATOM      4  C   UNL     1      -3.383  -1.250  -0.728  0.00  0.00    +0.029 A 
ATOM      5  N   UNL     1      -2.168  -0.795  -1.089  0.00  0.00    -0.346 N 
ATOM      6  C   UNL     1      -4.486  -1.653  -1.673  0.00  0.00    +0.064 C 
ENDROOT
BRANCH   2   7
ATOM      7  C   UNL     1      -1.720  -0.648   2.533  0.00  0.00    -0.015 A 
ATOM      8  C   UNL     1      -0.681  -1.430   3.038  0.00  0.00    +0.010 A 
ATOM      9  C   UNL     1      -0.286  -1.286   4.351  0.00  0.00    +0.024 A 
ATOM     10  C   UNL     1      -0.923  -0.363   5.172  0.00  0.00    +0.029 A 
ATOM     11  C   UNL     1      -1.958   0.418   4.671  0.00  0.00    +0.024 A 
ATOM     12  C   UNL     1      -2.353   0.282   3.357  0.00  0.00    +0.010 A 
BRANCH  10  13
ATOM     13  N   UNL     1      -0.522  -0.220   6.502  0.00  0.00    -0.336 N 
ATOM     14  C   UNL     1       0.569  -1.042   7.031  0.00  0.00    +0.129 C 
ATOM     15  C   UNL     1      -1.192   0.753   7.369  0.00  0.00    +0.129 C 
ENDBRANCH  10  13
ENDBRANCH   2   7
BRANCH   3  16
ATOM     16  C   UNL     1      -4.598  -1.705   1.455  0.00  0.00    +0.244 C 
ATOM     17  O   UNL     1      -5.436  -0.892   1.797  0.00  0.00    -0.270 OA
ATOM     18  N   UNL     1      -4.719  -2.995   1.826  0.00  0.00    -0.325 N 
ATOM     19  H   UNL     1      -4.051  -3.643   1.554  0.00  0.00    +0.145 HD
ATOM     20  H   UNL     1      -5.475  -3.275   2.366  0.00  0.00    +0.145 HD
ENDBRANCH   3  16
BRANCH   1  22
ATOM     21  C   UNL     1      -0.019   1.526   0.010  0.00  0.00    +0.010 C 
ATOM     22  C   UNL     1       0.002  -0.004   0.002  0.00  0.00    +0.050 C 
ENDBRANCH   1  22
BRANCH   5  23
ATOM     23  C   UNL     1      -1.720  -0.617  -2.473  0.00  0.00    +0.127 C 
BRANCH  23  24
ATOM     24  C   UNL     1      -1.065  -1.908  -2.966  0.00  0.00    +0.064 C 
BRANCH  24  25
ATOM     25  C   UNL     1      -0.604  -1.725  -4.389  0.00  0.00    -0.009 A 
ATOM     26  C   UNL     1       0.593  -1.286  -4.849  0.00  0.00    +0.011 A 
ATOM     27  C   UNL     1       0.795  -1.198  -6.214  0.00  0.00    +0.008 A 
ATOM     28  C   UNL     1      -0.209  -1.554  -7.052  0.00  0.00    +0.045 A 
ATOM     29  S   UNL     1      -1.490  -2.039  -5.907  0.00  0.00    -0.102 S 
ENDBRANCH  24  25
ENDBRANCH  23  24
ENDBRANCH   5  23
TORSDOF 7
