REMARK  Name = ZINC22442979
REMARK  4 active torsions:
REMARK  status: ('A' for Active; 'I' for Inactive)
REMARK    1  A    between atoms: C_4  and  N_7
REMARK    2  A    between atoms: N_14  and  C_15
REMARK    3  A    between atoms: C_15  and  C_16
REMARK    4  A    between atoms: C_23  and  C_28
REMARK                            x       y       z     vdW  Elec       q    Type
REMARK                         _______ _______ _______ _____ _____    ______ ____
ROOT
ATOM      1  N   UNL     1       2.164  -5.648   3.644  0.00  0.00    -0.299 N 
ATOM      2  C   UNL     1       1.908  -5.727   2.292  0.00  0.00    +0.139 A 
ATOM      3  C   UNL     1       0.992  -6.673   1.783  0.00  0.00    +0.079 A 
ATOM      4  C   UNL     1       0.764  -6.721   0.405  0.00  0.00    +0.059 A 
ATOM      5  N   UNL     1       1.411  -5.868  -0.372  0.00  0.00    -0.219 NA
ATOM      6  C   UNL     1       2.269  -4.992   0.136  0.00  0.00    +0.217 A 
ATOM      7  N   UNL     1       2.518  -4.913   1.435  0.00  0.00    -0.199 NA
ATOM      8  N   UNL     1       2.921  -4.129  -0.718  0.00  0.00    -0.311 N 
ATOM      9  C   UNL     1      -0.192  -7.708  -0.201  0.00  0.00    +0.068 C 
ATOM     10  C   UNL     1      -1.211  -8.191   0.829  0.00  0.00    +0.068 C 
ATOM     11  C   UNL     1      -0.474  -8.739   2.058  0.00  0.00    +0.091 C 
ATOM     12  C   UNL     1       0.286  -7.588   2.683  0.00  0.00    +0.169 C 
ATOM     13  O   UNL     1       0.309  -7.428   3.886  0.00  0.00    -0.292 OA
ATOM     14  H   UNL     1       1.728  -6.388   4.331  0.00  0.00    +0.154 HD
ATOM     15  H   UNL     1       2.730  -4.177  -1.800  0.00  0.00    +0.149 HD
ENDROOT
BRANCH   1  19
ATOM     16  C   UNL     1       4.590  -2.606   5.131  0.00  0.00    +0.000 A 
ATOM     17  C   UNL     1       4.590  -3.848   5.739  0.00  0.00    +0.002 A 
ATOM     18  C   UNL     1       3.787  -4.859   5.249  0.00  0.00    +0.023 A 
ATOM     19  C   UNL     1       2.978  -4.627   4.144  0.00  0.00    +0.032 A 
ATOM     20  C   UNL     1       2.985  -3.380   3.532  0.00  0.00    +0.023 A 
ATOM     21  C   UNL     1       3.786  -2.372   4.031  0.00  0.00    +0.002 A 
ENDBRANCH   1  19
BRANCH  10  22
ATOM     22  C   UNL     1      -2.059  -9.281   0.224  0.00  0.00    +0.109 A 
ATOM     23  C   UNL     1      -3.395  -9.244   0.071  0.00  0.00    +0.045 A 
ATOM     24  C   UNL     1      -3.771 -10.465  -0.534  0.00  0.00    +0.041 A 
ATOM     25  C   UNL     1      -2.643 -11.175  -0.715  0.00  0.00    +0.195 A 
ATOM     26  O   UNL     1      -1.608 -10.450  -0.259  0.00  0.00    -0.468 OA
ENDBRANCH  10  22
BRANCH   8  27
ATOM     27  C   UNL     1       3.869  -3.148  -0.185  0.00  0.00    +0.136 C 
BRANCH  27  28
ATOM     28  C   UNL     1       4.449  -2.321  -1.335  0.00  0.00    +0.135 C 
ATOM     29  C   UNL     1       5.495  -1.313  -0.798  0.00  0.00    +0.035 C 
ATOM     30  C   UNL     1       5.449  -0.223  -1.903  0.00  0.00    +0.031 C 
ATOM     31  C   UNL     1       3.964  -0.246  -2.324  0.00  0.00    +0.160 C 
ATOM     32  O   UNL     1       3.423  -1.514  -1.934  0.00  0.00    -0.375 OA
ENDBRANCH  27  28
ENDBRANCH   8  27
TORSDOF 4
