REMARK  Name = ZINC05900219
REMARK  3 active torsions:
REMARK  status: ('A' for Active; 'I' for Inactive)
REMARK    1  A    between atoms: C_1  and  C_2
REMARK    2  A    between atoms: C_5  and  C_8
REMARK    3  A    between atoms: C_11  and  C_22
REMARK                            x       y       z     vdW  Elec       q    Type
REMARK                         _______ _______ _______ _____ _____    ______ ____
ROOT
ATOM      1  C   UNL     1       0.059  -4.275  -0.021  0.00  0.00    +0.126 C 
ATOM      2  C   UNL     1       1.311  -4.781   0.704  0.00  0.00    +0.086 C 
ATOM      3  C   UNL     1       1.171  -6.230   1.075  0.00  0.00    +0.054 C 
ATOM      4  N   UNL     1       0.028  -6.761   1.416  0.00  0.00    -0.218 NA
ATOM      5  C   UNL     1      -1.095  -5.995   1.368  0.00  0.00    +0.210 A 
ATOM      6  N   UNL     1      -1.117  -4.790   0.686  0.00  0.00    -0.302 N 
ATOM      7  C   UNL     1      -2.365  -4.267   0.824  0.00  0.00    +0.069 A 
ATOM      8  C   UNL     1      -2.956  -3.090   0.376  0.00  0.00    +0.028 A 
ATOM      9  C   UNL     1      -4.283  -2.884   0.716  0.00  0.00    +0.002 A 
ATOM     10  C   UNL     1      -5.001  -3.800   1.466  0.00  0.00    +0.002 A 
ATOM     11  C   UNL     1      -4.444  -4.969   1.921  0.00  0.00    +0.028 A 
ATOM     12  C   UNL     1      -3.102  -5.205   1.594  0.00  0.00    +0.066 A 
ATOM     13  N   UNL     1      -2.277  -6.229   1.881  0.00  0.00    -0.324 N 
ATOM     14  H   UNL     1      -2.521  -7.020   2.388  0.00  0.00    +0.169 HD
ENDROOT
BRANCH   1  19
ATOM     15  C   UNL     1      -0.018   1.503   0.010  0.00  0.00    +0.044 C 
ATOM     16  C   UNL     1       0.002  -0.004   0.002  0.00  0.00    -0.050 A 
ATOM     17  C   UNL     1       0.006  -0.689  -1.199  0.00  0.00    +0.004 A 
ATOM     18  C   UNL     1       0.025  -2.071  -1.206  0.00  0.00    +0.006 A 
ATOM     19  C   UNL     1       0.040  -2.768  -0.013  0.00  0.00    -0.024 A 
ATOM     20  C   UNL     1       0.037  -2.084   1.188  0.00  0.00    +0.006 A 
ATOM     21  C   UNL     1       0.023  -0.702   1.195  0.00  0.00    +0.004 A 
ENDBRANCH   1  19
BRANCH   3  22
ATOM     22  C   UNL     1       2.369  -7.084   1.053  0.00  0.00    -0.004 A 
ATOM     23  C   UNL     1       3.610  -6.545   0.698  0.00  0.00    +0.010 A 
ATOM     24  C   UNL     1       4.728  -7.352   0.680  0.00  0.00    +0.001 A 
ATOM     25  C   UNL     1       4.624  -8.692   1.012  0.00  0.00    +0.000 A 
ATOM     26  C   UNL     1       3.400  -9.232   1.365  0.00  0.00    +0.001 A 
ATOM     27  C   UNL     1       2.273  -8.437   1.393  0.00  0.00    +0.010 A 
ENDBRANCH   3  22
TORSDOF 2
