REMARK  Name = ZINC12028660
REMARK  4 active torsions:
REMARK  status: ('A' for Active; 'I' for Inactive)
REMARK    1  A    between atoms: C_10  and  C_12
REMARK    2  A    between atoms: C_12  and  N_13
REMARK    3  A    between atoms: C_14  and  C_16
REMARK    4  A    between atoms: N_23  and  C_24
REMARK                            x       y       z     vdW  Elec       q    Type
REMARK                         _______ _______ _______ _____ _____    ______ ____
ROOT
ATOM      1  C   UNL     1      -0.016   1.359   0.009  0.00  0.00    +0.022 A 
ATOM      2  C   UNL     1       0.002  -0.004   0.002  0.00  0.00    +0.030 A 
ATOM      3  C   UNL     1       1.230  -0.679  -0.013  0.00  0.00    +0.076 A 
ATOM      4  C   UNL     1       2.433   0.068  -0.021  0.00  0.00    +0.042 A 
ATOM      5  C   UNL     1       2.380   1.466  -0.013  0.00  0.00    +0.033 A 
ATOM      6  C   UNL     1       1.167   2.093   0.002  0.00  0.00    +0.042 A 
ATOM      7 CL   UNL     1       1.100   3.828   0.012  0.00  0.00    -0.084 Cl
ATOM      8  C   UNL     1       3.660  -0.639  -0.036  0.00  0.00    +0.130 A 
ATOM      9  N   UNL     1       3.618  -1.965  -0.042  0.00  0.00    -0.215 NA
ATOM     10  C   UNL     1       2.469  -2.621  -0.035  0.00  0.00    +0.149 A 
ATOM     11  N   UNL     1       1.303  -2.019  -0.021  0.00  0.00    -0.230 NA
ATOM     12  N   UNL     1       4.864   0.032  -0.043  0.00  0.00    -0.326 N 
ATOM     13  H   UNL     1       4.879   1.002  -0.038  0.00  0.00    +0.148 HD
ENDROOT
BRANCH  12  14
ATOM     14  C   UNL     1       6.121  -0.720  -0.059  0.00  0.00    +0.072 C 
ATOM     15  C   UNL     1       6.550  -1.062   1.383  0.00  0.00    +0.022 C 
ATOM     16  C   UNL     1       8.094  -0.926   1.362  0.00  0.00    +0.002 C 
ATOM     17  C   UNL     1       8.317   0.297   0.438  0.00  0.00    +0.002 C 
ATOM     18  C   UNL     1       7.244   0.144  -0.659  0.00  0.00    +0.022 C 
ENDBRANCH  12  14
BRANCH  10  19
ATOM     19  C   UNL     1       2.500  -4.128  -0.043  0.00  0.00    +0.180 C 
BRANCH  19  20
ATOM     20  N   UNL     1       2.523  -4.623   1.335  0.00  0.00    -0.308 N 
ATOM     21  C   UNL     1       2.554  -5.949   1.574  0.00  0.00    +0.217 C 
ATOM     22  O   UNL     1       2.561  -6.732   0.648  0.00  0.00    -0.275 OA
ATOM     23  H   UNL     1       2.517  -3.997   2.076  0.00  0.00    +0.149 HD
BRANCH  21  24
ATOM     24  C   UNL     1       2.578  -6.459   2.992  0.00  0.00    +0.079 C 
ATOM     25  C   UNL     1       2.583  -7.993   2.989  0.00  0.00    +0.017 C 
ATOM     26  C   UNL     1       2.787  -8.480   4.425  0.00  0.00    +0.027 C 
ATOM     27  C   UNL     1       1.834  -7.780   5.348  0.00  0.00    -0.031 C 
ATOM     28  C   UNL     1       1.202  -6.691   5.048  0.00  0.00    -0.030 C 
ATOM     29  C   UNL     1       1.326  -5.981   3.732  0.00  0.00    +0.039 C 
ENDBRANCH  21  24
ENDBRANCH  19  20
ENDBRANCH  10  19
TORSDOF 4
