REMARK  Name = ZINC10650961
REMARK  4 active torsions:
REMARK  status: ('A' for Active; 'I' for Inactive)
REMARK    1  A    between atoms: C_1  and  C_2
REMARK    2  A    between atoms: C_2  and  N_3
REMARK    3  A    between atoms: C_13  and  C_15
REMARK    4  A    between atoms: C_16  and  C_24
REMARK                            x       y       z     vdW  Elec       q    Type
REMARK                         _______ _______ _______ _____ _____    ______ ____
ROOT
ATOM      1  N   UNL     1       3.631   2.171   5.512  0.00  0.00    -0.312 N 
ATOM      2  C   UNL     1       4.987   1.916   5.402  0.00  0.00    +0.070 A 
ATOM      3  C   UNL     1       6.058   2.009   6.278  0.00  0.00    +0.028 A 
ATOM      4  C   UNL     1       7.327   1.677   5.850  0.00  0.00    +0.002 A 
ATOM      5  C   UNL     1       7.540   1.251   4.547  0.00  0.00    +0.002 A 
ATOM      6  C   UNL     1       6.489   1.154   3.663  0.00  0.00    +0.030 A 
ATOM      7  C   UNL     1       5.197   1.485   4.081  0.00  0.00    +0.091 A 
ATOM      8  N   UNL     1       3.988   1.491   3.462  0.00  0.00    -0.214 NA
ATOM      9  C   UNL     1       3.066   1.890   4.302  0.00  0.00    +0.203 A 
ATOM     10  N   UNL     1       1.721   2.014   4.004  0.00  0.00    -0.249 N 
ATOM     11  C   UNL     1       1.273   1.714   2.769  0.00  0.00    +0.286 C 
ATOM     12  O   UNL     1       2.052   1.333   1.916  0.00  0.00    -0.266 OA
ATOM     13  H   UNL     1       1.100   2.318   4.685  0.00  0.00    +0.158 HD
ENDROOT
BRANCH  11  14
ATOM     14  C   UNL     1      -0.155   1.846   2.454  0.00  0.00    +0.194 A 
ATOM     15  C   UNL     1      -0.718   1.572   1.248  0.00  0.00    +0.008 A 
ATOM     16  C   UNL     1      -2.146   1.850   1.395  0.00  0.00    +0.024 A 
ATOM     17  C   UNL     1      -3.248   1.763   0.541  0.00  0.00    +0.012 A 
ATOM     18  C   UNL     1      -4.490   2.099   1.001  0.00  0.00    +0.001 A 
ATOM     19  C   UNL     1      -4.663   2.522   2.312  0.00  0.00    +0.004 A 
ATOM     20  C   UNL     1      -3.590   2.610   3.172  0.00  0.00    +0.047 A 
ATOM     21  C   UNL     1      -2.317   2.273   2.727  0.00  0.00    +0.136 A 
ATOM     22  O   UNL     1      -1.107   2.258   3.317  0.00  0.00    -0.450 OA
ATOM     23  C   UNL     1      -0.013   1.086   0.008  0.00  0.00    +0.048 C 
ENDBRANCH  11  14
BRANCH   1  25
ATOM     24  C   UNL     1       2.470   1.453   7.542  0.00  0.00    +0.027 C 
ATOM     25  C   UNL     1       2.932   2.650   6.707  0.00  0.00    +0.122 C 
ENDBRANCH   1  25
TORSDOF 2
