REMARK  Name = ZINC14334784
REMARK  11 active torsions:
REMARK  status: ('A' for Active; 'I' for Inactive)
REMARK    1  A    between atoms: C_1  and  C_2
REMARK    2  A    between atoms: C_2  and  N_3
REMARK    3  A    between atoms: C_6  and  C_19
REMARK    4  A    between atoms: C_7  and  N_18
REMARK    5  A    between atoms: N_8  and  C_11
REMARK    6  A    between atoms: C_11  and  C_12
REMARK    7  A    between atoms: C_19  and  C_21
REMARK    8  A    between atoms: C_21  and  S_22
REMARK    9  A    between atoms: S_22  and  C_23
REMARK   10  A    between atoms: C_25  and  C_28
REMARK   11  A    between atoms: C_29  and  C_30
REMARK                            x       y       z     vdW  Elec       q    Type
REMARK                         _______ _______ _______ _____ _____    ______ ____
ROOT
ATOM      1  N   UNL     1      -1.389  -0.490  -0.151  0.00  0.00    -0.260 N 
ATOM      2  C   UNL     1      -1.863  -0.696   1.095  0.00  0.00    +0.269 A 
ATOM      3  O   UNL     1      -1.177  -0.448   2.069  0.00  0.00    -0.267 OA
ATOM      4  C   UNL     1      -3.224  -1.226   1.252  0.00  0.00    +0.121 A 
ATOM      5  C   UNL     1      -3.963  -1.492   0.087  0.00  0.00    +0.116 A 
ATOM      6  N   UNL     1      -3.391  -1.248  -1.129  0.00  0.00    -0.277 N 
ATOM      7  C   UNL     1      -2.146  -0.758  -1.228  0.00  0.00    +0.334 A 
ATOM      8  O   UNL     1      -1.683  -0.554  -2.333  0.00  0.00    -0.246 OA
ENDROOT
BRANCH   5   9
ATOM      9  N   UNL     1      -5.229  -1.984   0.169  0.00  0.00    -0.344 N 
ATOM     10  H   UNL     1      -5.658  -2.078   1.034  0.00  0.00    +0.144 HD
ATOM     11  H   UNL     1      -5.702  -2.242  -0.638  0.00  0.00    +0.144 HD
ENDBRANCH   5   9
BRANCH   1  13
ATOM     12  C   UNL     1      -0.084   1.566  -0.364  0.00  0.00    +0.027 C 
ATOM     13  C   UNL     1      -0.035   0.037  -0.332  0.00  0.00    +0.126 C 
ENDBRANCH   1  13
BRANCH   4  14
ATOM     14  C   UNL     1      -3.770  -1.462   2.532  0.00  0.00    +0.182 C 
ATOM     15  O   UNL     1      -4.932  -1.798   2.643  0.00  0.00    -0.291 OA
BRANCH  14  16
ATOM     16  C   UNL     1      -2.913  -1.296   3.760  0.00  0.00    +0.157 C 
BRANCH  16  17
ATOM     17  S   UNL     1      -3.896  -1.667   5.238  0.00  0.00    -0.076 S 
BRANCH  17  18
ATOM     18  C   UNL     1      -2.768  -1.431   6.571  0.00  0.00    +0.209 A 
ATOM     19  N   UNL     1      -3.053  -1.598   7.863  0.00  0.00    -0.202 NA
ATOM     20  C   UNL     1      -1.981  -1.339   8.593  0.00  0.00    +0.150 A 
ATOM     21  N   UNL     1      -0.974  -0.994   7.743  0.00  0.00    -0.258 N 
ATOM     22  N   UNL     1      -1.511  -1.068   6.448  0.00  0.00    -0.145 NA
ATOM     23  H   UNL     1      -0.067  -0.750   7.984  0.00  0.00    +0.191 HD
BRANCH  20  24
ATOM     24  C   UNL     1      -1.892  -1.410  10.054  0.00  0.00    +0.049 C 
ATOM     25  C   UNL     1      -2.974  -1.769  10.779  0.00  0.00    +0.018 C 
BRANCH  25  26
ATOM     26  C   UNL     1      -2.886  -1.840  12.238  0.00  0.00    +0.012 A 
ATOM     27  C   UNL     1      -3.864  -2.187  13.157  0.00  0.00    +0.015 A 
ATOM     28  C   UNL     1      -3.537  -2.180  14.492  0.00  0.00    +0.008 A 
ATOM     29  C   UNL     1      -2.276  -1.836  14.867  0.00  0.00    +0.046 A 
ATOM     30  S   UNL     1      -1.488  -1.509  13.299  0.00  0.00    -0.097 S 
ENDBRANCH  25  26
ENDBRANCH  20  24
ENDBRANCH  17  18
ENDBRANCH  16  17
ENDBRANCH  14  16
ENDBRANCH   4  14
BRANCH   6  31
ATOM     31  C   UNL     1      -4.154  -1.522  -2.349  0.00  0.00    +0.163 C 
BRANCH  31  32
ATOM     32  C   UNL     1      -4.929  -0.291  -2.744  0.00  0.00    -0.028 A 
ATOM     33  C   UNL     1      -6.208  -0.095  -2.259  0.00  0.00    +0.005 A 
ATOM     34  C   UNL     1      -6.919   1.034  -2.621  0.00  0.00    +0.000 A 
ATOM     35  C   UNL     1      -6.350   1.967  -3.468  0.00  0.00    +0.000 A 
ATOM     36  C   UNL     1      -5.070   1.770  -3.953  0.00  0.00    +0.000 A 
ATOM     37  C   UNL     1      -4.358   0.644  -3.587  0.00  0.00    +0.005 A 
ENDBRANCH  31  32
ENDBRANCH   6  31
TORSDOF 10
