REMARK  Name = ZINC06281774
REMARK  9 active torsions:
REMARK  status: ('A' for Active; 'I' for Inactive)
REMARK    1  A    between atoms: C_1  and  C_2
REMARK    2  A    between atoms: C_9  and  C_14
REMARK    3  A    between atoms: C_14  and  C_16
REMARK    4  A    between atoms: C_14  and  N_65
REMARK    5  A    between atoms: N_20  and  C_21
REMARK    6  A    between atoms: C_21  and  C_22
REMARK    7  A    between atoms: C_21  and  C_23
REMARK    8  A    between atoms: C_21  and  C_24
REMARK    9  A    between atoms: N_27  and  C_30
REMARK                            x       y       z     vdW  Elec       q    Type
REMARK                         _______ _______ _______ _____ _____    ______ ____
ROOT
ATOM      1  C   UNL     1       2.551   1.019  -0.052  0.00  0.00    +0.039 C 
ENDROOT
BRANCH   1  10
ATOM      2  C   UNL     1      -4.790   2.207  -0.611  0.00  0.00    +0.044 C 
ATOM      3  C   UNL     1      -3.374   2.722  -0.580  0.00  0.00    -0.050 A 
ATOM      4  C   UNL     1      -3.134   4.083  -0.710  0.00  0.00    +0.005 A 
ATOM      5  C   UNL     1      -1.848   4.577  -0.676  0.00  0.00    +0.026 A 
ATOM      6  C   UNL     1      -0.777   3.702  -0.523  0.00  0.00    +0.049 A 
ATOM      7  C   UNL     1      -1.024   2.323  -0.395  0.00  0.00    -0.001 A 
ATOM      8  C   UNL     1      -2.339   1.845  -0.424  0.00  0.00    +0.013 A 
ATOM      9  C   UNL     1       0.109   1.411  -0.230  0.00  0.00    +0.017 A 
ATOM     10  C   UNL     1       1.362   1.930  -0.215  0.00  0.00    +0.011 A 
ATOM     11  C   UNL     1       1.556   3.322  -0.351  0.00  0.00    +0.251 A 
ATOM     12  O   UNL     1       2.690   3.768  -0.335  0.00  0.00    -0.268 OA
ATOM     13  N   UNL     1       0.521   4.167  -0.499  0.00  0.00    -0.322 N 
ATOM     14  H   UNL     1       0.690   5.118  -0.590  0.00  0.00    +0.169 HD
ENDBRANCH   1  10
BRANCH   1  20
ATOM     15  C   UNL     1       2.820   1.028  -2.458  0.00  0.00    -0.058 C 
ATOM     16  C   UNL     1       3.804   1.335  -3.589  0.00  0.00    +0.086 C 
ATOM     17  N   UNL     1       4.979   0.461  -3.463  0.00  0.00    -0.333 N 
ATOM     18  C   UNL     1       5.645   0.662  -2.169  0.00  0.00    +0.086 C 
ATOM     19  C   UNL     1       4.661   0.356  -1.038  0.00  0.00    -0.058 C 
ATOM     20  N   UNL     1       3.495   1.257  -1.164  0.00  0.00    +0.391 N 
ATOM     21  H   UNL     1       3.820   2.230  -1.124  0.00  0.00    -0.080 HD
BRANCH  17  22
ATOM     22  C   UNL     1       5.869   0.662  -4.522  0.00  0.00    +0.030 A 
ATOM     23  C   UNL     1       7.188   1.011  -4.265  0.00  0.00    +0.026 A 
ATOM     24  C   UNL     1       8.068   1.204  -5.312  0.00  0.00    +0.040 A 
ATOM     25  C   UNL     1       7.632   1.061  -6.619  0.00  0.00    +0.124 A 
ATOM     26  C   UNL     1       6.315   0.718  -6.878  0.00  0.00    +0.040 A 
ATOM     27  C   UNL     1       5.434   0.519  -5.833  0.00  0.00    +0.026 A 
ATOM     28  F   UNL     1       8.492   1.256  -7.642  0.00  0.00    -0.205 F 
ENDBRANCH  17  22
ENDBRANCH   1  20
BRANCH   1  29
ATOM     29  C   UNL     1       3.243   1.325   1.252  0.00  0.00    +0.143 A 
ATOM     30  N   UNL     1       3.919   2.409   1.543  0.00  0.00    -0.115 NA
ATOM     31  N   UNL     1       4.355   2.294   2.750  0.00  0.00    -0.023 NA
ATOM     32  N   UNL     1       3.974   1.164   3.236  0.00  0.00    -0.043 NA
ATOM     33  N   UNL     1       3.281   0.540   2.345  0.00  0.00    -0.225 N 
BRANCH  33  34
ATOM     34  C   UNL     1       2.658  -0.777   2.493  0.00  0.00    +0.059 C 
ATOM     35  C   UNL     1       3.278  -1.751   1.488  0.00  0.00    +0.036 C 
ATOM     36  C   UNL     1       2.889  -1.294   3.914  0.00  0.00    +0.036 C 
ATOM     37  C   UNL     1       1.155  -0.662   2.230  0.00  0.00    +0.036 C 
ENDBRANCH  33  34
ENDBRANCH   1  29
TORSDOF 5
