REMARK  Name = ZINC39937731
REMARK  10 active torsions:
REMARK  status: ('A' for Active; 'I' for Inactive)
REMARK    1  A    between atoms: C_1  and  C_2
REMARK    2  A    between atoms: C_4  and  C_12
REMARK    3  A    between atoms: C_12  and  C_14
REMARK    4  A    between atoms: C_14  and  N_15
REMARK    5  A    between atoms: N_15  and  C_16
REMARK    6  A    between atoms: N_15  and  C_17
REMARK    7  A    between atoms: C_17  and  C_19
REMARK    8  A    between atoms: C_17  and  C_20
REMARK    9  A    between atoms: C_23  and  S_26
REMARK   10  A    between atoms: S_26  and  N_29
REMARK                            x       y       z     vdW  Elec       q    Type
REMARK                         _______ _______ _______ _____ _____    ______ ____
ROOT
ATOM      1  N   UNL     1      -4.661  -0.586  -1.844  0.00  0.00    -0.291 NA
ATOM      2  C   UNL     1      -4.184  -1.181  -3.099  0.00  0.00    +0.106 C 
ENDROOT
BRANCH   1   3
ATOM      3  C   UNL     1      -6.053  -0.970  -1.575  0.00  0.00    +0.084 C 
ATOM      4  C   UNL     1      -6.545  -0.254  -0.315  0.00  0.00    +0.029 C 
BRANCH   3   5
ATOM      5  C   UNL     1      -6.918  -0.578  -2.745  0.00  0.00    -0.030 A 
ATOM      6  C   UNL     1      -6.701   0.624  -3.392  0.00  0.00    +0.007 A 
ATOM      7  C   UNL     1      -7.494   0.983  -4.466  0.00  0.00    +0.029 A 
ATOM      8  C   UNL     1      -8.503   0.140  -4.893  0.00  0.00    +0.105 A 
ATOM      9  C   UNL     1      -8.719  -1.062  -4.247  0.00  0.00    +0.029 A 
ATOM     10  C   UNL     1      -7.923  -1.424  -3.175  0.00  0.00    +0.007 A 
BRANCH   8  11
ATOM     11  S   UNL     1      -9.514   0.599  -6.261  0.00  0.00    +0.056 S 
ATOM     12  O   UNL     1     -10.737  -0.112  -6.119  0.00  0.00    -0.153 OA
ATOM     13  O   UNL     1      -9.463   2.016  -6.347  0.00  0.00    -0.153 OA
BRANCH  11  14
ATOM     14  N   UNL     1      -8.784   0.015  -7.628  0.00  0.00    -0.204 NA
ATOM     15  H   UNL     1      -7.950  -0.476  -7.560  0.00  0.00    +0.144 HD
ATOM     16  H   UNL     1      -9.189   0.165  -8.496  0.00  0.00    +0.144 HD
ENDBRANCH  11  14
ENDBRANCH   8  11
ENDBRANCH   3   5
ENDBRANCH   1   3
BRANCH   1  17
ATOM     17  C   UNL     1      -3.787  -0.953  -0.721  0.00  0.00    +0.164 C 
BRANCH  17  18
ATOM     18  C   UNL     1      -2.428  -0.333  -0.919  0.00  0.00    +0.176 C 
ATOM     19  O   UNL     1      -2.209   0.349  -1.899  0.00  0.00    -0.291 OA
BRANCH  18  22
ATOM     20  C   UNL     1      -0.019   1.526   0.010  0.00  0.00    +0.035 C 
ATOM     21  C   UNL     1       0.002  -0.004   0.002  0.00  0.00    +0.111 C 
ATOM     22  C   UNL     1      -1.411  -0.544   0.036  0.00  0.00    +0.027 C 
ATOM     23  C   UNL     1      -1.496  -1.289   1.198  0.00  0.00    +0.006 A 
ATOM     24  C   UNL     1      -2.543  -2.035   1.788  0.00  0.00    +0.010 A 
ATOM     25  C   UNL     1      -2.344  -2.680   2.960  0.00  0.00    +0.001 A 
ATOM     26  C   UNL     1      -1.116  -2.646   3.640  0.00  0.00    +0.002 A 
ATOM     27  C   UNL     1      -0.053  -1.963   3.162  0.00  0.00    +0.026 A 
ATOM     28  C   UNL     1      -0.185  -1.232   1.891  0.00  0.00    +0.043 A 
ATOM     29  N   UNL     1       0.660  -0.506   1.212  0.00  0.00    -0.377 N 
ATOM     30  H   UNL     1       1.578  -0.327   1.468  0.00  0.00    +0.160 HD
ENDBRANCH  18  22
ENDBRANCH  17  18
ENDBRANCH   1  17
TORSDOF 7
