REMARK  Name = ZINC35769568
REMARK  6 active torsions:
REMARK  status: ('A' for Active; 'I' for Inactive)
REMARK    1  A    between atoms: C_4  and  C_7
REMARK    2  A    between atoms: C_7  and  N_8
REMARK    3  A    between atoms: C_11  and  N_14
REMARK    4  A    between atoms: C_15  and  C_17
REMARK    5  A    between atoms: C_26  and  C_29
REMARK    6  A    between atoms: C_29  and  C_30
REMARK                            x       y       z     vdW  Elec       q    Type
REMARK                         _______ _______ _______ _____ _____    ______ ____
ROOT
ATOM      1  C   UNL     1       6.813  -3.821   6.694  0.00  0.00    +0.092 C 
ATOM      2  C   UNL     1       7.857  -4.933   6.813  0.00  0.00    +0.016 C 
ATOM      3  C   UNL     1       8.284  -5.080   8.275  0.00  0.00    +0.020 C 
ATOM      4  C   UNL     1       8.916  -3.769   8.753  0.00  0.00    +0.107 C 
ATOM      5  N   UNL     1       7.971  -2.671   8.508  0.00  0.00    -0.308 N 
ATOM      6  C   UNL     1       7.428  -2.495   7.154  0.00  0.00    +0.119 C 
ATOM      7  C   UNL     1       7.600  -1.819   9.532  0.00  0.00    +0.181 A 
ATOM      8  N   UNL     1       7.988  -1.825  10.797  0.00  0.00    -0.208 NA
ATOM      9  C   UNL     1       7.492  -0.903  11.592  0.00  0.00    +0.145 A 
ATOM     10  N   UNL     1       6.647  -0.038  11.087  0.00  0.00    -0.192 NA
ATOM     11  S   UNL     1       6.547  -0.510   9.482  0.00  0.00    +0.049 S 
ENDROOT
BRANCH   1  13
ATOM     12  N   UNL     1       5.449  -2.776   4.914  0.00  0.00    -0.312 N 
ATOM     13  C   UNL     1       6.370  -3.698   5.258  0.00  0.00    +0.218 C 
ATOM     14  O   UNL     1       6.842  -4.429   4.414  0.00  0.00    -0.275 OA
ATOM     15  H   UNL     1       5.071  -2.192   5.589  0.00  0.00    +0.149 HD
BRANCH  12  19
ATOM     16  N   UNL     1       4.153  -0.953   1.342  0.00  0.00    +0.382 N 
ATOM     17  C   UNL     1       3.203  -1.854   2.005  0.00  0.00    -0.077 C 
ATOM     18  C   UNL     1       3.614  -2.050   3.466  0.00  0.00    +0.003 C 
ATOM     19  C   UNL     1       5.019  -2.657   3.518  0.00  0.00    +0.069 C 
ATOM     20  C   UNL     1       5.987  -1.746   2.760  0.00  0.00    +0.003 C 
ATOM     21  C   UNL     1       5.489  -1.562   1.325  0.00  0.00    -0.077 C 
ATOM     22  H   UNL     1       4.190  -0.078   1.843  0.00  0.00    -0.081 HD
BRANCH  16  23
ATOM     23  C   UNL     1       3.711  -0.707  -0.038  0.00  0.00    -0.043 C 
BRANCH  23  27
ATOM     24  C   UNL     1      -0.017   1.378   0.010  0.00  0.00    +0.000 A 
ATOM     25  C   UNL     1       1.171   2.086   0.002  0.00  0.00    +0.000 A 
ATOM     26  C   UNL     1       2.377   1.411  -0.013  0.00  0.00    +0.002 A 
ATOM     27  C   UNL     1       2.396   0.029  -0.020  0.00  0.00    -0.064 A 
ATOM     28  C   UNL     1       1.208  -0.679  -0.012  0.00  0.00    +0.002 A 
ATOM     29  C   UNL     1       0.002  -0.004   0.002  0.00  0.00    +0.000 A 
ENDBRANCH  23  27
ENDBRANCH  16  23
ENDBRANCH  12  19
ENDBRANCH   1  13
BRANCH   9  30
ATOM     30  C   UNL     1       7.884  -0.843  13.046  0.00  0.00    +0.112 C 
BRANCH  30  31
ATOM     31  C   UNL     1       9.095   0.041  13.203  0.00  0.00    -0.040 A 
ATOM     32  C   UNL     1      10.363  -0.503  13.116  0.00  0.00    +0.005 A 
ATOM     33  C   UNL     1      11.474   0.307  13.261  0.00  0.00    +0.020 A 
ATOM     34  C   UNL     1      11.316   1.662  13.492  0.00  0.00    +0.041 A 
ATOM     35  C   UNL     1      10.047   2.205  13.578  0.00  0.00    +0.020 A 
ATOM     36  C   UNL     1       8.937   1.395  13.428  0.00  0.00    +0.005 A 
ATOM     37 CL   UNL     1      12.711   2.679  13.674  0.00  0.00    -0.084 Cl
ENDBRANCH  30  31
ENDBRANCH   9  30
TORSDOF 6
