REMARK  Name = ZINC14550512
REMARK  8 active torsions:
REMARK  status: ('A' for Active; 'I' for Inactive)
REMARK    1  A    between atoms: C_1  and  C_2
REMARK    2  A    between atoms: C_2  and  C_3
REMARK    3  A    between atoms: C_3  and  C_4
REMARK    4  A    between atoms: C_4  and  O_5
REMARK    5  A    between atoms: O_5  and  C_6
REMARK    6  A    between atoms: C_13  and  C_22
REMARK    7  A    between atoms: C_26  and  O_28
REMARK    8  A    between atoms: O_28  and  C_29
REMARK                            x       y       z     vdW  Elec       q    Type
REMARK                         _______ _______ _______ _____ _____    ______ ____
ROOT
ATOM      1  C   UNL     1      -4.852   7.791   4.319  0.00  0.00    +0.142 A 
ATOM      2  C   UNL     1      -5.515   8.400   5.368  0.00  0.00    +0.047 A 
ATOM      3  C   UNL     1      -5.000   8.311   6.649  0.00  0.00    +0.004 A 
ATOM      4  C   UNL     1      -3.831   7.616   6.876  0.00  0.00    +0.006 A 
ATOM      5  C   UNL     1      -3.157   6.997   5.830  0.00  0.00    -0.016 A 
ATOM      6  C   UNL     1      -3.666   7.087   4.548  0.00  0.00    +0.074 A 
ATOM      7  N   UNL     1      -3.033   6.493   3.452  0.00  0.00    -0.334 N 
ATOM      8  C   UNL     1      -2.223   5.338   3.843  0.00  0.00    +0.105 C 
ATOM      9  C   UNL     1      -1.176   5.775   4.870  0.00  0.00    +0.029 C 
ATOM     10  C   UNL     1      -1.897   6.248   6.151  0.00  0.00    +0.049 C 
ATOM     11  C   UNL     1      -2.213   4.969   6.891  0.00  0.00    -0.023 C 
ATOM     12  C   UNL     1      -1.434   3.998   6.482  0.00  0.00    -0.030 C 
ATOM     13  C   UNL     1      -0.480   4.495   5.414  0.00  0.00    +0.033 C 
ATOM     14  H   UNL     1      -3.703   6.240   2.741  0.00  0.00    +0.147 HD
ENDROOT
BRANCH   8  15
ATOM     15  C   UNL     1      -1.531   4.776   2.628  0.00  0.00    -0.024 A 
ATOM     16  C   UNL     1      -1.003   5.630   1.677  0.00  0.00    +0.006 A 
ATOM     17  C   UNL     1      -0.367   5.117   0.561  0.00  0.00    +0.004 A 
ATOM     18  C   UNL     1      -0.253   3.750   0.397  0.00  0.00    +0.045 A 
ATOM     19  C   UNL     1      -0.787   2.892   1.346  0.00  0.00    +0.120 A 
ATOM     20  C   UNL     1      -1.425   3.409   2.465  0.00  0.00    +0.051 A 
BRANCH  19  21
ATOM     21  O   UNL     1      -0.682   1.547   1.184  0.00  0.00    -0.495 OA
ATOM     22  C   UNL     1      -0.013   1.086   0.008  0.00  0.00    +0.277 C 
ENDBRANCH  19  21
ENDBRANCH   8  15
BRANCH   1  23
ATOM     23  O   UNL     1      -5.356   7.877   3.058  0.00  0.00    -0.490 OA
BRANCH  23  24
ATOM     24  C   UNL     1      -6.571   8.611   2.894  0.00  0.00    +0.229 C 
BRANCH  24  25
ATOM     25  C   UNL     1      -6.979   8.597   1.419  0.00  0.00    +0.041 C 
BRANCH  25  27
ATOM     26  C   UNL     1      -8.689   9.369  -0.231  0.00  0.00    +0.004 C 
ATOM     27  C   UNL     1      -8.280   9.383   1.243  0.00  0.00    -0.000 C 
ENDBRANCH  25  27
ENDBRANCH  24  25
ENDBRANCH  23  24
ENDBRANCH   1  23
TORSDOF 6
