REMARK  Name = ZINC22843732
REMARK  9 active torsions:
REMARK  status: ('A' for Active; 'I' for Inactive)
REMARK    1  A    between atoms: C_1  and  C_2
REMARK    2  A    between atoms: C_2  and  C_3
REMARK    3  A    between atoms: C_7  and  C_25
REMARK    4  A    between atoms: C_8  and  N_9
REMARK    5  A    between atoms: C_10  and  C_12
REMARK    6  A    between atoms: C_12  and  N_13
REMARK    7  A    between atoms: N_16  and  C_19
REMARK    8  A    between atoms: C_19  and  C_20
REMARK    9  A    between atoms: C_25  and  C_26
REMARK                            x       y       z     vdW  Elec       q    Type
REMARK                         _______ _______ _______ _____ _____    ______ ____
ROOT
ATOM      1  N   UNL     1       2.945  -0.584  -1.524  0.00  0.00    -0.284 N 
ATOM      2  C   UNL     1       4.152  -0.995  -1.962  0.00  0.00    +0.231 C 
ATOM      3  O   UNL     1       4.227  -1.780  -2.884  0.00  0.00    -0.274 OA
ATOM      4  H   UNL     1       2.884   0.111  -0.850  0.00  0.00    +0.155 HD
ENDROOT
BRANCH   1  10
ATOM      5  C   UNL     1       1.065  -0.507  -3.038  0.00  0.00    -0.026 A 
ATOM      6  C   UNL     1      -0.083  -1.080  -3.552  0.00  0.00    +0.007 A 
ATOM      7  C   UNL     1      -0.523  -2.299  -3.073  0.00  0.00    +0.020 A 
ATOM      8  C   UNL     1       0.184  -2.950  -2.077  0.00  0.00    +0.046 A 
ATOM      9  C   UNL     1       1.333  -2.382  -1.559  0.00  0.00    -0.008 A 
ATOM     10  C   UNL     1       1.780  -1.159  -2.043  0.00  0.00    +0.041 A 
ATOM     11 CL   UNL     1      -0.372  -4.482  -1.478  0.00  0.00    -0.083 Cl
BRANCH   5  13
ATOM     12  C   UNL     1       2.582   0.594  -4.662  0.00  0.00    +0.009 C 
ATOM     13  C   UNL     1       1.543   0.823  -3.562  0.00  0.00    +0.033 C 
ENDBRANCH   5  13
BRANCH   9  14
ATOM     14  C   UNL     1       2.102  -3.091  -0.474  0.00  0.00    +0.035 C 
ATOM     15  C   UNL     1       3.236  -3.904  -1.101  0.00  0.00    +0.009 C 
ENDBRANCH   9  14
ENDBRANCH   1  10
BRANCH   2  16
ATOM     16  C   UNL     1       5.407  -0.480  -1.306  0.00  0.00    +0.180 C 
BRANCH  16  17
ATOM     17  N   UNL     1       6.580  -1.074  -1.960  0.00  0.00    -0.298 NA
ATOM     18  C   UNL     1       6.638  -2.523  -1.723  0.00  0.00    +0.066 C 
ATOM     19  C   UNL     1       7.838  -3.111  -2.469  0.00  0.00    -0.063 C 
ATOM     20  N   UNL     1       9.072  -2.470  -1.994  0.00  0.00    +0.386 N 
ATOM     21  C   UNL     1       9.009  -1.027  -2.259  0.00  0.00    -0.063 C 
ATOM     22  C   UNL     1       7.819  -0.422  -1.512  0.00  0.00    +0.066 C 
ATOM     23  H   UNL     1       9.171  -2.626  -1.002  0.00  0.00    -0.081 HD
BRANCH  20  24
ATOM     24  C   UNL     1      10.225  -3.048  -2.696  0.00  0.00    -0.003 C 
BRANCH  24  25
ATOM     25  C   UNL     1      11.498  -2.480  -2.124  0.00  0.00    +0.089 A 
ATOM     26  C   UNL     1      12.201  -3.000  -1.101  0.00  0.00    +0.042 A 
ATOM     27  C   UNL     1      13.315  -2.152  -0.898  0.00  0.00    +0.041 A 
ATOM     28  C   UNL     1      13.225  -1.166  -1.808  0.00  0.00    +0.195 A 
ATOM     29  O   UNL     1      12.126  -1.373  -2.551  0.00  0.00    -0.470 OA
ENDBRANCH  24  25
ENDBRANCH  20  24
ENDBRANCH  16  17
ENDBRANCH   2  16
TORSDOF 7
