REMARK  Name = ZINC36543396
REMARK  10 active torsions:
REMARK  status: ('A' for Active; 'I' for Inactive)
REMARK    1  A    between atoms: C_1  and  C_2
REMARK    2  A    between atoms: C_2  and  C_3
REMARK    3  A    between atoms: C_2  and  C_4
REMARK    4  A    between atoms: C_2  and  N_5
REMARK    5  A    between atoms: C_6  and  C_8
REMARK    6  A    between atoms: C_8  and  C_10
REMARK    7  A    between atoms: C_8  and  N_15
REMARK    8  A    between atoms: N_15  and  C_16
REMARK    9  A    between atoms: C_23  and  C_25
REMARK   10  A    between atoms: C_25  and  C_26
REMARK                            x       y       z     vdW  Elec       q    Type
REMARK                         _______ _______ _______ _____ _____    ______ ____
ROOT
ATOM      1  N   UNL     1       4.051  -0.111  -2.677  0.00  0.00    -0.251 N 
ATOM      2  C   UNL     1       5.087  -0.973  -2.692  0.00  0.00    +0.225 C 
ATOM      3  O   UNL     1       4.882  -2.168  -2.696  0.00  0.00    -0.275 OA
ENDROOT
BRANCH   1   4
ATOM      4  C   UNL     1       4.288   1.268  -2.672  0.00  0.00    +0.056 A 
ATOM      5  C   UNL     1       4.423   1.947  -1.468  0.00  0.00    +0.025 A 
ATOM      6  C   UNL     1       4.657   3.308  -1.466  0.00  0.00    +0.002 A 
ATOM      7  C   UNL     1       4.757   3.996  -2.662  0.00  0.00    +0.002 A 
ATOM      8  C   UNL     1       4.623   3.325  -3.863  0.00  0.00    +0.022 A 
ATOM      9  C   UNL     1       4.395   1.961  -3.872  0.00  0.00    +0.062 A 
ATOM     10 CL   UNL     1       4.234   1.117  -5.380  0.00  0.00    -0.082 Cl
ENDBRANCH   1   4
BRANCH   1  11
ATOM     11  C   UNL     1       2.677  -0.618  -2.667  0.00  0.00    +0.233 C 
BRANCH  11  12
ATOM     12  C   UNL     1       1.948  -0.119  -3.888  0.00  0.00    +0.135 A 
ATOM     13  C   UNL     1       1.081  -0.830  -4.632  0.00  0.00    +0.047 A 
ATOM     14  C   UNL     1       0.639   0.022  -5.670  0.00  0.00    +0.041 A 
ATOM     15  C   UNL     1       1.262   1.202  -5.499  0.00  0.00    +0.195 A 
ATOM     16  O   UNL     1       2.049   1.113  -4.414  0.00  0.00    -0.465 OA
ENDBRANCH  11  12
BRANCH  11  18
ATOM     17  N   UNL     1       0.688  -0.476  -1.203  0.00  0.00    -0.309 N 
ATOM     18  C   UNL     1       1.972  -0.132  -1.427  0.00  0.00    +0.242 C 
ATOM     19  O   UNL     1       2.559   0.569  -0.630  0.00  0.00    -0.273 OA
ATOM     20  H   UNL     1       0.218  -1.037  -1.840  0.00  0.00    +0.149 HD
BRANCH  17  22
ATOM     21  C   UNL     1      -0.019   1.526   0.010  0.00  0.00    +0.031 C 
ATOM     22  C   UNL     1       0.002  -0.004   0.002  0.00  0.00    +0.026 C 
ATOM     23  C   UNL     1       0.742  -0.511   1.242  0.00  0.00    +0.031 C 
ATOM     24  C   UNL     1      -1.433  -0.534   0.013  0.00  0.00    +0.031 C 
ENDBRANCH  17  22
ENDBRANCH  11  18
ENDBRANCH   1  11
BRANCH   2  25
ATOM     25  C   UNL     1       6.501  -0.451  -2.703  0.00  0.00    +0.131 C 
BRANCH  25  26
ATOM     26  C   UNL     1       7.464  -1.610  -2.718  0.00  0.00    -0.039 A 
ATOM     27  C   UNL     1       7.913  -2.152  -1.528  0.00  0.00    +0.005 A 
ATOM     28  C   UNL     1       8.796  -3.215  -1.541  0.00  0.00    +0.015 A 
ATOM     29  C   UNL     1       9.230  -3.738  -2.746  0.00  0.00    +0.018 A 
ATOM     30  C   UNL     1       8.781  -3.195  -3.937  0.00  0.00    +0.015 A 
ATOM     31  C   UNL     1       7.894  -2.135  -3.922  0.00  0.00    +0.005 A 
ATOM     32 BR   UNL     1      10.439  -5.192  -2.765  0.00  0.00    -0.050 Br
ENDBRANCH  25  26
ENDBRANCH   2  25
TORSDOF 7
