REMARK  Name = ZINC15771843
REMARK  12 active torsions:
REMARK  status: ('A' for Active; 'I' for Inactive)
REMARK    1  A    between atoms: C_1  and  N_2
REMARK    2  A    between atoms: N_2  and  C_3
REMARK    3  A    between atoms: N_2  and  C_4
REMARK    4  A    between atoms: C_7  and  C_10
REMARK    5  A    between atoms: C_10  and  C_12
REMARK    6  A    between atoms: C_10  and  C_18
REMARK    7  A    between atoms: C_21  and  C_24
REMARK    8  A    between atoms: C_24  and  C_26
REMARK    9  A    between atoms: C_24  and  C_32
REMARK   10  A    between atoms: C_35  and  N_38
REMARK   11  A    between atoms: N_38  and  C_39
REMARK   12  A    between atoms: N_38  and  C_40
REMARK                            x       y       z     vdW  Elec       q    Type
REMARK                         _______ _______ _______ _____ _____    ______ ____
ROOT
ATOM      1  C   UNL     1       2.254  -2.570   0.992  0.00  0.00    +0.028 A 
ATOM      2  C   UNL     1       3.587  -2.763   0.937  0.00  0.00    +0.024 A 
ATOM      3  C   UNL     1       3.975  -3.382   2.142  0.00  0.00    +0.024 A 
ATOM      4  C   UNL     1       2.863  -3.544   2.888  0.00  0.00    +0.028 A 
ATOM      5  N   UNL     1       1.804  -3.043   2.189  0.00  0.00    -0.360 N 
ATOM      6  H   UNL     1       0.883  -3.028   2.493  0.00  0.00    +0.165 HD
ENDROOT
BRANCH   1   7
ATOM      7  C   UNL     1       1.407  -1.936  -0.081  0.00  0.00    +0.095 C 
BRANCH   7  11
ATOM      8  C   UNL     1       2.905  -3.054  -3.924  0.00  0.00    +0.029 A 
ATOM      9  C   UNL     1       2.933  -3.964  -2.875  0.00  0.00    +0.023 A 
ATOM     10  C   UNL     1       2.448  -3.599  -1.634  0.00  0.00    +0.006 A 
ATOM     11  C   UNL     1       1.936  -2.330  -1.436  0.00  0.00    -0.034 A 
ATOM     12  C   UNL     1       1.902  -1.424  -2.480  0.00  0.00    +0.006 A 
ATOM     13  C   UNL     1       2.390  -1.780  -3.722  0.00  0.00    +0.023 A 
BRANCH   8  15
ATOM     14  C   UNL     1       3.937  -4.764  -5.392  0.00  0.00    +0.129 C 
ATOM     15  N   UNL     1       3.395  -3.420  -5.180  0.00  0.00    -0.336 N 
ATOM     16  C   UNL     1       3.365  -2.459  -6.286  0.00  0.00    +0.129 C 
ENDBRANCH   8  15
ENDBRANCH   7  11
BRANCH   7  17
ATOM     17  C   UNL     1       1.457  -0.436   0.061  0.00  0.00    -0.034 A 
ATOM     18  C   UNL     1       0.285   0.285   0.190  0.00  0.00    +0.004 A 
ATOM     19  C   UNL     1       0.331   1.661   0.319  0.00  0.00    +0.000 A 
ATOM     20  C   UNL     1       1.549   2.315   0.320  0.00  0.00    +0.000 A 
ATOM     21  C   UNL     1       2.721   1.593   0.191  0.00  0.00    +0.000 A 
ATOM     22  C   UNL     1       2.675   0.218   0.061  0.00  0.00    +0.004 A 
ENDBRANCH   7  17
ENDBRANCH   1   7
BRANCH   4  23
ATOM     23  C   UNL     1       2.803  -4.166   4.259  0.00  0.00    +0.095 C 
BRANCH  23  24
ATOM     24  C   UNL     1       2.759  -5.667   4.128  0.00  0.00    -0.034 A 
ATOM     25  C   UNL     1       3.822  -6.342   3.558  0.00  0.00    +0.004 A 
ATOM     26  C   UNL     1       3.784  -7.719   3.442  0.00  0.00    +0.000 A 
ATOM     27  C   UNL     1       2.679  -8.420   3.888  0.00  0.00    +0.000 A 
ATOM     28  C   UNL     1       1.614  -7.744   4.454  0.00  0.00    +0.000 A 
ATOM     29  C   UNL     1       1.654  -6.367   4.574  0.00  0.00    +0.004 A 
ENDBRANCH  23  24
BRANCH  23  30
ATOM     30  C   UNL     1       4.023  -3.765   5.047  0.00  0.00    -0.034 A 
ATOM     31  C   UNL     1       4.599  -4.661   5.929  0.00  0.00    +0.006 A 
ATOM     32  C   UNL     1       5.722  -4.299   6.648  0.00  0.00    +0.023 A 
ATOM     33  C   UNL     1       6.265  -3.030   6.493  0.00  0.00    +0.029 A 
ATOM     34  C   UNL     1       5.680  -2.131   5.610  0.00  0.00    +0.023 A 
ATOM     35  C   UNL     1       4.561  -2.501   4.890  0.00  0.00    +0.006 A 
BRANCH  33  36
ATOM     36  N   UNL     1       7.396  -2.658   7.223  0.00  0.00    -0.336 N 
ATOM     37  C   UNL     1       7.967  -1.319   7.059  0.00  0.00    +0.129 C 
ATOM     38  C   UNL     1       8.011  -3.608   8.154  0.00  0.00    +0.129 C 
ENDBRANCH  33  36
ENDBRANCH  23  30
ENDBRANCH   4  23
TORSDOF 8
