REMARK  Name = ZINC15861397
REMARK  7 active torsions:
REMARK  status: ('A' for Active; 'I' for Inactive)
REMARK    1  A    between atoms: C_1  and  C_2
REMARK    2  A    between atoms: C_2  and  O_3
REMARK    3  A    between atoms: O_3  and  C_4
REMARK    4  A    between atoms: C_11  and  C_27
REMARK    5  A    between atoms: N_18  and  C_19
REMARK    6  A    between atoms: C_21  and  C_26
REMARK    7  A    between atoms: C_24  and  C_25
REMARK                            x       y       z     vdW  Elec       q    Type
REMARK                         _______ _______ _______ _____ _____    ______ ____
ROOT
ATOM      1  C   UNL     1      -1.871   3.536   2.585  0.00  0.00    +0.162 A 
ATOM      2  C   UNL     1      -2.574   2.928   3.610  0.00  0.00    +0.049 A 
ATOM      3  C   UNL     1      -3.142   3.696   4.610  0.00  0.00    +0.004 A 
ATOM      4  C   UNL     1      -3.010   5.071   4.583  0.00  0.00    +0.009 A 
ATOM      5  C   UNL     1      -2.309   5.684   3.559  0.00  0.00    +0.018 A 
ATOM      6  C   UNL     1      -1.728   4.924   2.562  0.00  0.00    +0.170 A 
ATOM      7  O   UNL     1      -0.993   5.485   1.566  0.00  0.00    -0.464 OA
ATOM      8  C   UNL     1      -1.053   6.897   1.385  0.00  0.00    +0.183 C 
ATOM      9  C   UNL     1      -0.934   7.575   2.757  0.00  0.00    +0.096 C 
ATOM     10  C   UNL     1      -2.192   7.192   3.554  0.00  0.00    +0.111 C 
ATOM     11  N   UNL     1      -3.367   7.721   2.842  0.00  0.00    -0.319 N 
ATOM     12  C   UNL     1      -3.365   7.707   1.481  0.00  0.00    +0.141 C 
ATOM     13  S   UNL     1      -4.768   8.243   0.659  0.00  0.00    -0.018 S 
ATOM     14  N   UNL     1      -2.314   7.288   0.760  0.00  0.00    -0.244 N 
ATOM     15  C   UNL     1       0.112   7.339   0.497  0.00  0.00    +0.079 C 
ATOM     16  H   UNL     1      -4.119   8.077   3.340  0.00  0.00    +0.148 HD
ENDROOT
BRANCH  14  17
ATOM     17  C   UNL     1      -2.429   7.224  -0.632  0.00  0.00    +0.042 A 
ATOM     18  C   UNL     1      -2.761   6.025  -1.249  0.00  0.00    +0.027 A 
ATOM     19  C   UNL     1      -2.878   5.966  -2.624  0.00  0.00    -0.049 A 
ATOM     20  C   UNL     1      -2.656   7.098  -3.387  0.00  0.00    +0.004 A 
ATOM     21  C   UNL     1      -2.321   8.292  -2.777  0.00  0.00    +0.005 A 
ATOM     22  C   UNL     1      -2.207   8.359  -1.402  0.00  0.00    -0.029 A 
ATOM     23  C   UNL     1      -1.841   9.661  -0.738  0.00  0.00    +0.045 C 
ATOM     24  C   UNL     1      -3.244   4.666  -3.293  0.00  0.00    +0.044 C 
ENDBRANCH  14  17
BRANCH   1  25
ATOM     25  O   UNL     1      -1.314   2.780   1.601  0.00  0.00    -0.489 OA
BRANCH  25  27
ATOM     26  C   UNL     1      -0.803   0.687   0.505  0.00  0.00    +0.048 C 
ATOM     27  C   UNL     1      -1.495   1.365   1.690  0.00  0.00    +0.226 C 
ENDBRANCH  25  27
ENDBRANCH   1  25
TORSDOF 3
