REMARK  Name = ZINC64152339
REMARK  3 active torsions:
REMARK  status: ('A' for Active; 'I' for Inactive)
REMARK    1  A    between atoms: C_9  and  C_29
REMARK    2  A    between atoms: N_11  and  C_12
REMARK    3  A    between atoms: C_18  and  C_20
REMARK                            x       y       z     vdW  Elec       q    Type
REMARK                         _______ _______ _______ _____ _____    ______ ____
ROOT
ATOM      1  C   UNL     1       4.097   3.320  -0.020  0.00  0.00    +0.078 C 
ATOM      2  C   UNL     1       3.555   3.999   1.240  0.00  0.00    +0.041 C 
ATOM      3  C   UNL     1       4.003   5.464   1.258  0.00  0.00    +0.109 C 
ATOM      4  N   UNL     1       3.584   6.102   0.002  0.00  0.00    -0.299 N 
ATOM      5  C   UNL     1       3.975   5.479  -1.270  0.00  0.00    +0.109 C 
ATOM      6  C   UNL     1       3.528   4.014  -1.260  0.00  0.00    +0.041 C 
ATOM      7  C   UNL     1       2.856   7.236   0.017  0.00  0.00    +0.246 C 
ATOM      8  O   UNL     1       2.540   7.740   1.074  0.00  0.00    -0.273 OA
ENDROOT
BRANCH   1  18
ATOM      9  C   UNL     1      -0.017   1.380   0.010  0.00  0.00    +0.040 A 
ATOM     10  C   UNL     1       1.169   2.089   0.002  0.00  0.00    +0.028 A 
ATOM     11  C   UNL     1       2.385   1.417  -0.014  0.00  0.00    +0.053 A 
ATOM     12  C   UNL     1       2.405   0.025  -0.021  0.00  0.00    +0.053 A 
ATOM     13  C   UNL     1       1.209  -0.681  -0.013  0.00  0.00    +0.063 A 
ATOM     14  C   UNL     1       0.002  -0.004   0.002  0.00  0.00    +0.125 A 
ATOM     15  F   UNL     1      -1.159  -0.695   0.010  0.00  0.00    -0.205 F 
ATOM     16  N   UNL     1       3.731  -0.430  -0.037  0.00  0.00    -0.324 N 
ATOM     17  C   UNL     1       4.600   0.752  -0.039  0.00  0.00    +0.162 C 
ATOM     18  N   UNL     1       3.699   1.910  -0.024  0.00  0.00    -0.307 N 
ATOM     19  H   UNL     1       4.020  -1.356  -0.044  0.00  0.00    +0.148 HD
BRANCH  17  20
ATOM     20  C   UNL     1       5.464   0.770  -1.302  0.00  0.00    +0.028 C 
ATOM     21  C   UNL     1       6.727   1.637  -1.172  0.00  0.00    +0.007 C 
ATOM     22  C   UNL     1       7.468   0.535  -1.948  0.00  0.00    +0.001 C 
ATOM     23  C   UNL     1       6.403  -0.442  -1.423  0.00  0.00    +0.007 C 
ENDBRANCH  17  20
ENDBRANCH   1  18
BRANCH   7  24
ATOM     24  C   UNL     1       2.435   7.878  -1.279  0.00  0.00    +0.241 C 
ATOM     25  C   UNL     1       3.552   8.732  -1.843  0.00  0.00    -0.012 C 
ATOM     26  C   UNL     1       3.053   9.966  -1.875  0.00  0.00    +0.065 C 
ATOM     27  C   UNL     1       4.090  10.926  -2.429  0.00  0.00    +0.057 C 
ATOM     28  C   UNL     1       5.433  10.171  -2.328  0.00  0.00    +0.011 C 
ATOM     29  C   UNL     1       4.967   8.698  -2.361  0.00  0.00    +0.035 C 
ATOM     30  N   UNL     1       1.778   9.962  -1.400  0.00  0.00    -0.158 NA
ATOM     31  N   UNL     1       1.356   8.854  -1.052  0.00  0.00    -0.170 NA
ENDBRANCH   7  24
TORSDOF 3
