REMARK  Name = ZINC40991304
REMARK  7 active torsions:
REMARK  status: ('A' for Active; 'I' for Inactive)
REMARK    1  A    between atoms: C_1  and  C_2
REMARK    2  A    between atoms: C_5  and  C_8
REMARK    3  A    between atoms: C_9  and  C_10
REMARK    4  A    between atoms: N_12  and  C_13
REMARK    5  A    between atoms: C_17  and  C_19
REMARK    6  A    between atoms: C_21  and  C_24
REMARK    7  A    between atoms: C_27  and  C_29
REMARK                            x       y       z     vdW  Elec       q    Type
REMARK                         _______ _______ _______ _____ _____    ______ ____
ROOT
ATOM      1  C   UNL     1       0.222  -8.463   2.341  0.00  0.00    +0.034 A 
ATOM      2  C   UNL     1       0.332  -9.188   1.160  0.00  0.00    +0.023 A 
ATOM      3  C   UNL     1       0.442 -10.565   1.196  0.00  0.00    +0.003 A 
ATOM      4  C   UNL     1       0.444 -11.230   2.406  0.00  0.00    +0.013 A 
ATOM      5  C   UNL     1       0.335 -10.511   3.598  0.00  0.00    +0.041 A 
ATOM      6  C   UNL     1       0.230  -9.121   3.561  0.00  0.00    +0.036 A 
ENDROOT
BRANCH   5   7
ATOM      7  C   UNL     1       0.337 -11.221   4.895  0.00  0.00    +0.259 A 
ATOM      8  N   UNL     1       0.440 -12.518   5.061  0.00  0.00    -0.187 NA
ATOM      9  C   UNL     1       0.406 -12.817   6.371  0.00  0.00    +0.209 A 
ATOM     10  N   UNL     1       0.281 -11.702   7.055  0.00  0.00    -0.055 NA
ATOM     11  O   UNL     1       0.239 -10.647   6.107  0.00  0.00    -0.332 OA
BRANCH   9  12
ATOM     12  C   UNL     1       0.495 -14.175   6.947  0.00  0.00    +0.060 A 
ATOM     13  C   UNL     1       0.463 -14.559   8.261  0.00  0.00    +0.019 A 
ATOM     14  C   UNL     1       0.564 -15.898   8.562  0.00  0.00    +0.011 A 
ATOM     15  C   UNL     1       0.691 -16.796   7.551  0.00  0.00    -0.013 A 
ATOM     16  S   UNL     1       0.665 -15.743   6.110  0.00  0.00    -0.090 S 
ATOM     17  C   UNL     1       0.818 -18.296   7.626  0.00  0.00    +0.051 C 
ENDBRANCH   9  12
ENDBRANCH   5   7
BRANCH   1  20
ATOM     18  C   UNL     1      -0.622  -6.424   3.227  0.00  0.00    +0.241 C 
ATOM     19  O   UNL     1      -1.264  -7.057   4.044  0.00  0.00    -0.270 OA
ATOM     20  N   UNL     1       0.111  -7.070   2.298  0.00  0.00    -0.282 N 
ATOM     21  H   UNL     1       0.560  -6.568   1.600  0.00  0.00    +0.155 HD
BRANCH  18  23
ATOM     22  C   UNL     1      -1.379  -4.314   4.181  0.00  0.00    +0.013 C 
ATOM     23  C   UNL     1      -0.646  -4.960   3.252  0.00  0.00    +0.068 C 
BRANCH  22  28
ATOM     24  C   UNL     1      -1.472   1.433   4.282  0.00  0.00    +0.044 C 
ATOM     25  C   UNL     1      -1.447  -0.073   4.255  0.00  0.00    -0.050 A 
ATOM     26  C   UNL     1      -2.179  -0.790   5.186  0.00  0.00    +0.004 A 
ATOM     27  C   UNL     1      -2.162  -2.169   5.168  0.00  0.00    +0.008 A 
ATOM     28  C   UNL     1      -1.403  -2.843   4.207  0.00  0.00    -0.025 A 
ATOM     29  C   UNL     1      -0.666  -2.111   3.269  0.00  0.00    +0.008 A 
ATOM     30  C   UNL     1      -0.698  -0.733   3.297  0.00  0.00    +0.004 A 
ENDBRANCH  22  28
ENDBRANCH  18  23
ENDBRANCH   1  20
TORSDOF 5
