REMARK  Name = ZINC20330365
REMARK  7 active torsions:
REMARK  status: ('A' for Active; 'I' for Inactive)
REMARK    1  A    between atoms: C_1  and  N_2
REMARK    2  A    between atoms: C_3  and  C_21
REMARK    3  A    between atoms: C_6  and  S_7
REMARK    4  A    between atoms: S_7  and  C_8
REMARK    5  A    between atoms: C_8  and  C_9
REMARK    6  A    between atoms: C_27  and  C_29
REMARK    7  A    between atoms: C_30  and  C_31
REMARK                            x       y       z     vdW  Elec       q    Type
REMARK                         _______ _______ _______ _____ _____    ______ ____
ROOT
ATOM      1  C   UNL     1       4.179  -7.172  -0.079  0.00  0.00    +0.152 C 
ATOM      2  N   UNL     1       2.736  -7.425  -0.066  0.00  0.00    -0.308 N 
ATOM      3  C   UNL     1       2.110  -8.641  -0.066  0.00  0.00    +0.154 A 
ATOM      4  N   UNL     1       0.827  -8.417  -0.052  0.00  0.00    -0.132 NA
ATOM      5  N   UNL     1       0.600  -7.152  -0.039  0.00  0.00    -0.122 NA
ATOM      6  C   UNL     1       1.736  -6.495  -0.051  0.00  0.00    +0.192 A 
ENDROOT
BRANCH   3   7
ATOM      7  C   UNL     1       2.781  -9.990  -0.080  0.00  0.00    +0.144 C 
ATOM      8  C   UNL     1       2.665 -10.620  -1.484  0.00  0.00    +0.032 C 
ATOM      9  C   UNL     1       2.422 -12.121  -1.173  0.00  0.00    +0.021 C 
ATOM     10  C   UNL     1       1.555 -12.037   0.108  0.00  0.00    +0.109 C 
ATOM     11  N   UNL     1       2.105 -10.895   0.862  0.00  0.00    -0.288 N 
ATOM     12  C   UNL     1       2.004 -10.711   2.193  0.00  0.00    +0.240 C 
ATOM     13  O   UNL     1       2.499  -9.726   2.710  0.00  0.00    -0.271 OA
BRANCH  12  14
ATOM     14  C   UNL     1       1.300 -11.694   3.017  0.00  0.00    +0.068 C 
ATOM     15  C   UNL     1       1.199 -11.510   4.349  0.00  0.00    +0.014 C 
BRANCH  15  16
ATOM     16  C   UNL     1       0.491 -12.499   5.177  0.00  0.00    -0.007 A 
ATOM     17  C   UNL     1      -0.084 -13.629   4.586  0.00  0.00    +0.009 A 
ATOM     18  C   UNL     1      -0.742 -14.553   5.369  0.00  0.00    +0.001 A 
ATOM     19  C   UNL     1      -0.843 -14.361   6.736  0.00  0.00    +0.001 A 
ATOM     20  C   UNL     1      -0.282 -13.244   7.329  0.00  0.00    +0.020 A 
ATOM     21  C   UNL     1       0.385 -12.312   6.560  0.00  0.00    +0.048 A 
ATOM     22 CL   UNL     1       1.088 -10.910   7.305  0.00  0.00    -0.083 Cl
ENDBRANCH  15  16
ENDBRANCH  12  14
ENDBRANCH   3   7
BRANCH   6  23
ATOM     23  S   UNL     1       1.934  -4.744  -0.043  0.00  0.00    -0.078 S 
BRANCH  23  24
ATOM     24  C   UNL     1       0.198  -4.232  -0.024  0.00  0.00    +0.151 C 
BRANCH  24  25
ATOM     25  C   UNL     1       0.118  -2.727  -0.015  0.00  0.00    +0.121 A 
ATOM     26  N   UNL     1      -1.110  -2.147   0.001  0.00  0.00    -0.310 N 
ATOM     27  H   UNL     1      -2.014  -2.773   0.006  0.00  0.00    +0.170 HD
ATOM     28  C   UNL     1      -1.235  -0.799   0.009  0.00  0.00    +0.259 A 
ATOM     29  O   UNL     1      -2.329  -0.266   0.022  0.00  0.00    -0.267 OA
ATOM     30  C   UNL     1       0.002  -0.004   0.002  0.00  0.00    +0.065 A 
ATOM     31  C   UNL     1      -0.017   1.389   0.010  0.00  0.00    +0.015 A 
ATOM     32  C   UNL     1       1.173   2.084   0.002  0.00  0.00    +0.001 A 
ATOM     33  C   UNL     1       2.386   1.408  -0.013  0.00  0.00    +0.002 A 
ATOM     34  C   UNL     1       2.426   0.032  -0.021  0.00  0.00    +0.028 A 
ATOM     35  C   UNL     1       1.234  -0.695  -0.013  0.00  0.00    +0.078 A 
ATOM     36  N   UNL     1       1.227  -2.051  -0.021  0.00  0.00    -0.233 NA
ENDBRANCH  24  25
ENDBRANCH  23  24
ENDBRANCH   6  23
TORSDOF 6
