REMARK  Name = ZINC34684002
REMARK  10 active torsions:
REMARK  status: ('A' for Active; 'I' for Inactive)
REMARK    1  A    between atoms: C_1  and  C_2
REMARK    2  A    between atoms: C_5  and  S_8
REMARK    3  A    between atoms: S_8  and  N_11
REMARK    4  A    between atoms: N_11  and  C_12
REMARK    5  A    between atoms: N_11  and  C_20
REMARK    6  A    between atoms: C_16  and  O_18
REMARK    7  A    between atoms: O_18  and  C_19
REMARK    8  A    between atoms: N_23  and  C_26
REMARK    9  A    between atoms: C_26  and  C_27
REMARK   10  A    between atoms: C_32  and  O_33
REMARK                            x       y       z     vdW  Elec       q    Type
REMARK                         _______ _______ _______ _____ _____    ______ ____
ROOT
ATOM      1  N   UNL     1       1.651  -4.999  -0.034  0.00  0.00    -0.200 N 
ENDROOT
BRANCH   1   2
ATOM      2  C   UNL     1       2.003  -5.892  -1.141  0.00  0.00    +0.095 C 
ATOM      3  C   UNL     1       1.709  -7.341  -0.744  0.00  0.00    +0.006 C 
ATOM      4  C   UNL     1       2.153  -8.274  -1.872  0.00  0.00    -0.077 C 
ATOM      5  N   UNL     1       3.593  -8.113  -2.107  0.00  0.00    +0.383 N 
ATOM      6  C   UNL     1       3.873  -6.745  -2.558  0.00  0.00    -0.077 C 
ATOM      7  C   UNL     1       3.496  -5.753  -1.456  0.00  0.00    +0.006 C 
ATOM      8  H   UNL     1       4.095  -8.293  -1.251  0.00  0.00    -0.081 HD
BRANCH   5   9
ATOM      9  C   UNL     1       4.029  -9.065  -3.137  0.00  0.00    -0.039 C 
BRANCH   9  10
ATOM     10  C   UNL     1       5.526  -8.986  -3.293  0.00  0.00    -0.022 A 
ATOM     11  C   UNL     1       6.076  -8.261  -4.332  0.00  0.00    +0.005 A 
ATOM     12  C   UNL     1       7.449  -8.188  -4.475  0.00  0.00    +0.000 A 
ATOM     13  C   UNL     1       8.276  -8.841  -3.579  0.00  0.00    +0.004 A 
ATOM     14  C   UNL     1       7.731  -9.568  -2.538  0.00  0.00    +0.045 A 
ATOM     15  C   UNL     1       6.353  -9.638  -2.389  0.00  0.00    +0.118 A 
BRANCH  15  16
ATOM     16  O   UNL     1       5.814 -10.348  -1.363  0.00  0.00    -0.507 OA
ATOM     17  H   UNL     1       5.644 -11.276  -1.574  0.00  0.00    +0.292 HD
ENDBRANCH  15  16
ENDBRANCH   9  10
ENDBRANCH   5   9
ENDBRANCH   1   2
BRANCH   1  18
ATOM     18  C   UNL     1       2.311  -5.112   1.191  0.00  0.00    +0.055 A 
ATOM     19  C   UNL     1       3.458  -4.366   1.435  0.00  0.00    +0.025 A 
ATOM     20  C   UNL     1       4.111  -4.477   2.647  0.00  0.00    +0.005 A 
ATOM     21  C   UNL     1       3.626  -5.330   3.620  0.00  0.00    +0.046 A 
ATOM     22  C   UNL     1       2.481  -6.077   3.383  0.00  0.00    +0.122 A 
ATOM     23  C   UNL     1       1.820  -5.965   2.170  0.00  0.00    +0.070 A 
BRANCH  22  24
ATOM     24  O   UNL     1       2.005  -6.915   4.341  0.00  0.00    -0.495 OA
ATOM     25  C   UNL     1       2.734  -6.977   5.569  0.00  0.00    +0.277 C 
ENDBRANCH  22  24
ENDBRANCH   1  18
BRANCH   1  26
ATOM     26  S   UNL     1       0.469  -3.857  -0.236  0.00  0.00    +0.075 S 
ATOM     27  O   UNL     1      -0.099  -3.629   1.046  0.00  0.00    -0.150 OA
ATOM     28  O   UNL     1      -0.308  -4.270  -1.351  0.00  0.00    -0.150 OA
BRANCH  26  33
ATOM     29  C   UNL     1       3.203   1.275  -1.848  0.00  0.00    +0.044 C 
ATOM     30  C   UNL     1       2.521  -0.007  -1.445  0.00  0.00    -0.050 A 
ATOM     31  C   UNL     1       2.107  -0.903  -2.413  0.00  0.00    +0.005 A 
ATOM     32  C   UNL     1       1.481  -2.079  -2.044  0.00  0.00    +0.029 A 
ATOM     33  C   UNL     1       1.268  -2.359  -0.707  0.00  0.00    +0.109 A 
ATOM     34  C   UNL     1       1.683  -1.463   0.261  0.00  0.00    +0.029 A 
ATOM     35  C   UNL     1       2.312  -0.289  -0.108  0.00  0.00    +0.005 A 
ENDBRANCH  26  33
ENDBRANCH   1  26
TORSDOF 8
