REMARK  Name = ZINC58880783
REMARK  11 active torsions:
REMARK  status: ('A' for Active; 'I' for Inactive)
REMARK    1  A    between atoms: C_1  and  C_2
REMARK    2  A    between atoms: C_5  and  N_8
REMARK    3  A    between atoms: C_9  and  C_11
REMARK    4  A    between atoms: N_13  and  N_14
REMARK    5  A    between atoms: C_15  and  C_16
REMARK    6  A    between atoms: C_19  and  O_22
REMARK    7  A    between atoms: O_22  and  C_23
REMARK    8  A    between atoms: C_23  and  C_24
REMARK    9  A    between atoms: N_26  and  C_27
REMARK   10  A    between atoms: C_27  and  C_28
REMARK   11  A    between atoms: C_27  and  C_29
REMARK                            x       y       z     vdW  Elec       q    Type
REMARK                         _______ _______ _______ _____ _____    ______ ____
ROOT
ATOM      1  N   UNL     1       0.547  -8.406   2.265  0.00  0.00    -0.187 NA
ATOM      2  C   UNL     1       0.659  -9.060   3.382  0.00  0.00    +0.138 C 
ENDROOT
BRANCH   2   3
ATOM      3  C   UNL     1       0.789 -10.528   3.366  0.00  0.00    -0.005 A 
ATOM      4  C   UNL     1       0.798 -11.218   2.150  0.00  0.00    +0.013 A 
ATOM      5  C   UNL     1       0.920 -12.590   2.140  0.00  0.00    +0.046 A 
ATOM      6  C   UNL     1       1.034 -13.288   3.336  0.00  0.00    +0.121 A 
ATOM      7  C   UNL     1       1.025 -12.607   4.547  0.00  0.00    +0.046 A 
ATOM      8  C   UNL     1       0.910 -11.234   4.566  0.00  0.00    +0.013 A 
BRANCH   6   9
ATOM      9  O   UNL     1       1.154 -14.641   3.321  0.00  0.00    -0.483 OA
BRANCH   9  10
ATOM     10  C   UNL     1       1.267 -15.296   4.586  0.00  0.00    +0.324 C 
BRANCH  10  11
ATOM     11  C   UNL     1       1.390 -16.783   4.373  0.00  0.00    +0.251 C 
ATOM     12  O   UNL     1       1.382 -17.237   3.248  0.00  0.00    -0.272 OA
ATOM     13  N   UNL     1       1.509 -17.608   5.432  0.00  0.00    -0.310 N 
ATOM     14  H   UNL     1       1.515 -17.245   6.331  0.00  0.00    +0.149 HD
BRANCH  13  15
ATOM     15  C   UNL     1       1.628 -19.053   5.224  0.00  0.00    +0.067 C 
ATOM     16  C   UNL     1       2.348 -19.682   6.419  0.00  0.00    +0.027 C 
ATOM     17  C   UNL     1       0.233 -19.666   5.090  0.00  0.00    +0.027 C 
ENDBRANCH  13  15
ENDBRANCH  10  11
ENDBRANCH   9  10
ENDBRANCH   6   9
ENDBRANCH   2   3
BRANCH   1  20
ATOM     18  C   UNL     1       0.306  -6.332   1.121  0.00  0.00    +0.318 C 
ATOM     19  O   UNL     1       0.309  -6.930   0.064  0.00  0.00    -0.263 OA
ATOM     20  N   UNL     1       0.423  -7.011   2.280  0.00  0.00    -0.199 N 
ATOM     21  H   UNL     1       0.421  -6.533   3.124  0.00  0.00    +0.178 HD
BRANCH  18  23
ATOM     22  N   UNL     1       0.058  -4.168  -0.021  0.00  0.00    -0.278 N 
ATOM     23  C   UNL     1       0.174  -4.847   1.138  0.00  0.00    +0.305 C 
ATOM     24  O   UNL     1       0.172  -4.249   2.194  0.00  0.00    -0.265 OA
ATOM     25  H   UNL     1      -0.017  -4.649  -0.860  0.00  0.00    +0.155 HD
BRANCH  22  30
ATOM     26  C   UNL     1       0.006   1.503   0.009  0.00  0.00    +0.044 C 
ATOM     27  C   UNL     1       0.020  -0.004   0.001  0.00  0.00    -0.050 A 
ATOM     28  C   UNL     1      -0.724  -0.696  -0.937  0.00  0.00    +0.005 A 
ATOM     29  C   UNL     1      -0.714  -2.077  -0.948  0.00  0.00    +0.023 A 
ATOM     30  C   UNL     1       0.045  -2.771  -0.014  0.00  0.00    +0.034 A 
ATOM     31  C   UNL     1       0.791  -2.072   0.927  0.00  0.00    +0.023 A 
ATOM     32  C   UNL     1       0.781  -0.692   0.928  0.00  0.00    +0.005 A 
ENDBRANCH  22  30
ENDBRANCH  18  23
ENDBRANCH   1  20
TORSDOF 8
