REMARK  Name = ZINC66643419
REMARK  2 active torsions:
REMARK  status: ('A' for Active; 'I' for Inactive)
REMARK    1  A    between atoms: C_13  and  C_16
REMARK    2  A    between atoms: N_18  and  C_19
REMARK                            x       y       z     vdW  Elec       q    Type
REMARK                         _______ _______ _______ _____ _____    ______ ____
ROOT
ATOM      1  C   UNL     1      -0.017   1.366   0.010  0.00  0.00    +0.002 A 
ATOM      2  C   UNL     1       1.156   2.107   0.002  0.00  0.00    +0.001 A 
ATOM      3  C   UNL     1       2.373   1.449  -0.013  0.00  0.00    +0.017 A 
ATOM      4  C   UNL     1       2.401   0.077  -0.020  0.00  0.00    +0.041 A 
ATOM      5  C   UNL     1       1.227  -0.710  -0.013  0.00  0.00    +0.080 A 
ATOM      6  C   UNL     1       0.002  -0.004   0.002  0.00  0.00    +0.029 A 
ATOM      7  N   UNL     1       1.419  -2.047  -0.023  0.00  0.00    -0.225 NA
ATOM      8  C   UNL     1       2.616  -2.588  -0.037  0.00  0.00    +0.162 A 
ATOM      9  S   UNL     1       3.682  -1.153  -0.040  0.00  0.00    -0.052 S 
ATOM     10  N   UNL     1       2.963  -3.924  -0.048  0.00  0.00    -0.310 N 
ATOM     11  C   UNL     1       1.927  -4.966  -0.050  0.00  0.00    +0.108 C 
ATOM     12  C   UNL     1       2.196  -5.930   1.109  0.00  0.00    +0.032 C 
ATOM     13  C   UNL     1       3.625  -6.465   1.001  0.00  0.00    +0.078 C 
ATOM     14  C   UNL     1       4.616  -5.303   1.101  0.00  0.00    +0.032 C 
ATOM     15  C   UNL     1       4.374  -4.331  -0.064  0.00  0.00    +0.108 C 
ENDROOT
BRANCH  13  16
ATOM     16  C   UNL     1       3.882  -7.441   2.121  0.00  0.00    +0.217 C 
ATOM     17  O   UNL     1       3.008  -7.684   2.926  0.00  0.00    -0.275 OA
ATOM     18  N   UNL     1       5.083  -8.043   2.228  0.00  0.00    -0.304 N 
ATOM     19  H   UNL     1       5.782  -7.848   1.584  0.00  0.00    +0.149 HD
BRANCH  18  20
ATOM     20  C   UNL     1       5.333  -8.991   3.316  0.00  0.00    +0.159 C 
ATOM     21  C   UNL     1       6.437  -9.966   2.898  0.00  0.00    +0.033 C 
ATOM     22  C   UNL     1       6.872 -10.763   4.134  0.00  0.00    +0.021 C 
ATOM     23  C   UNL     1       7.567  -9.813   5.110  0.00  0.00    +0.104 C 
ATOM     24  N   UNL     1       6.743  -8.635   5.348  0.00  0.00    -0.314 N 
ATOM     25  C   UNL     1       5.756  -8.239   4.546  0.00  0.00    +0.233 C 
ATOM     26  O   UNL     1       5.166  -7.217   4.825  0.00  0.00    -0.274 OA
ATOM     27  H   UNL     1       6.926  -8.105   6.140  0.00  0.00    +0.149 HD
ENDBRANCH  18  20
ENDBRANCH  13  16
TORSDOF 2
