REMARK  Name = ZINC52607213
REMARK  11 active torsions:
REMARK  status: ('A' for Active; 'I' for Inactive)
REMARK    1  A    between atoms: C_1  and  C_2
REMARK    2  A    between atoms: C_2  and  C_3
REMARK    3  A    between atoms: C_7  and  C_36
REMARK    4  A    between atoms: C_9  and  C_35
REMARK    5  A    between atoms: N_12  and  C_13
REMARK    6  A    between atoms: C_13  and  C_14
REMARK    7  A    between atoms: C_17  and  N_20
REMARK    8  A    between atoms: N_20  and  C_21
REMARK    9  A    between atoms: N_20  and  C_22
REMARK   10  A    between atoms: C_22  and  C_24
REMARK   11  A    between atoms: C_22  and  C_30
REMARK                            x       y       z     vdW  Elec       q    Type
REMARK                         _______ _______ _______ _____ _____    ______ ____
ROOT
ATOM      1  C   UNL     1       2.950  -3.617   0.335  0.00  0.00    -0.030 A 
ATOM      2  C   UNL     1       3.871  -2.836  -0.339  0.00  0.00    +0.007 A 
ATOM      3  C   UNL     1       5.213  -2.918  -0.022  0.00  0.00    +0.023 A 
ATOM      4  C   UNL     1       5.637  -3.787   0.975  0.00  0.00    +0.030 A 
ATOM      5  C   UNL     1       4.710  -4.571   1.650  0.00  0.00    +0.023 A 
ATOM      6  C   UNL     1       3.369  -4.479   1.332  0.00  0.00    +0.007 A 
ENDROOT
BRANCH   4   7
ATOM      7  N   UNL     1       6.993  -3.873   1.298  0.00  0.00    -0.319 N 
ATOM      8  C   UNL     1       7.984  -3.145   0.500  0.00  0.00    +0.130 C 
BRANCH   7   9
ATOM      9  C   UNL     1       7.426  -4.691   2.434  0.00  0.00    +0.173 C 
BRANCH   9  10
ATOM     10  C   UNL     1       8.931  -4.693   2.507  0.00  0.00    -0.020 A 
ATOM     11  C   UNL     1       9.620  -3.499   2.603  0.00  0.00    +0.006 A 
ATOM     12  C   UNL     1      11.001  -3.501   2.671  0.00  0.00    +0.000 A 
ATOM     13  C   UNL     1      11.692  -4.697   2.642  0.00  0.00    +0.000 A 
ATOM     14  C   UNL     1      11.003  -5.892   2.547  0.00  0.00    +0.000 A 
ATOM     15  C   UNL     1       9.622  -5.890   2.484  0.00  0.00    +0.006 A 
ENDBRANCH   9  10
BRANCH   9  16
ATOM     16  C   UNL     1       6.861  -4.119   3.708  0.00  0.00    +0.174 A 
ATOM     17  N   UNL     1       6.505  -2.875   3.917  0.00  0.00    -0.111 NA
ATOM     18  N   UNL     1       6.072  -2.783   5.128  0.00  0.00    -0.023 NA
ATOM     19  N   UNL     1       6.143  -3.936   5.696  0.00  0.00    -0.047 NA
ATOM     20  N   UNL     1       6.620  -4.787   4.851  0.00  0.00    -0.241 N 
ATOM     21  H   UNL     1       6.777  -5.731   5.011  0.00  0.00    +0.192 HD
ENDBRANCH   9  16
ENDBRANCH   7   9
ENDBRANCH   4   7
BRANCH   1  22
ATOM     22  C   UNL     1       1.487  -3.525  -0.013  0.00  0.00    +0.143 C 
BRANCH  22  31
ATOM     23  C   UNL     1       0.727  -1.069   0.470  0.00  0.00    +0.160 C 
ATOM     24  N   UNL     1       0.025  -0.448   1.600  0.00  0.00    -0.323 N 
ATOM     25  C   UNL     1      -0.233  -1.461   2.532  0.00  0.00    +0.070 A 
ATOM     26  C   UNL     1      -0.866  -1.420   3.768  0.00  0.00    -0.025 A 
ATOM     27  C   UNL     1      -0.985  -2.598   4.492  0.00  0.00    +0.026 A 
ATOM     28  C   UNL     1      -0.474  -3.767   3.965  0.00  0.00    +0.015 A 
ATOM     29  N   UNL     1       0.123  -3.778   2.789  0.00  0.00    -0.346 N 
ATOM     30  C   UNL     1       0.260  -2.677   2.060  0.00  0.00    +0.122 A 
ATOM     31  N   UNL     1       0.854  -2.491   0.809  0.00  0.00    -0.292 N 
ATOM     32  C   UNL     1      -0.599  -5.050   4.745  0.00  0.00    +0.063 C 
ATOM     33  C   UNL     1      -1.412  -0.124   4.312  0.00  0.00    +0.046 C 
ATOM     34  H   UNL     1      -0.213   0.488   1.686  0.00  0.00    +0.148 HD
ATOM     35  H   UNL     1       0.472  -4.616   2.446  0.00  0.00    +0.167 HD
BRANCH  23  37
ATOM     36  C   UNL     1      -0.130   0.575  -1.206  0.00  0.00    +0.007 C 
ATOM     37  C   UNL     1      -0.090  -0.903  -0.814  0.00  0.00    +0.039 C 
ENDBRANCH  23  37
ENDBRANCH  22  31
ENDBRANCH   1  22
TORSDOF 7
