REMARK  Name = ZINC05460315
REMARK  10 active torsions:
REMARK  status: ('A' for Active; 'I' for Inactive)
REMARK    1  A    between atoms: C_1  and  C_2
REMARK    2  A    between atoms: C_2  and  N_49
REMARK    3  A    between atoms: C_3  and  C_4
REMARK    4  A    between atoms: C_3  and  N_49
REMARK    5  A    between atoms: C_5  and  C_6
REMARK    6  A    between atoms: C_5  and  N_49
REMARK    7  A    between atoms: C_6  and  N_7
REMARK    8  A    between atoms: N_7  and  C_8
REMARK    9  A    between atoms: C_11  and  C_24
REMARK   10  A    between atoms: C_18  and  O_23
REMARK                            x       y       z     vdW  Elec       q    Type
REMARK                         _______ _______ _______ _____ _____    ______ ____
ROOT
ATOM      1  C   UNL     1       1.528  -1.750  -1.378  0.00  0.00    +0.042 A 
ATOM      2  C   UNL     1       1.291  -2.643  -0.343  0.00  0.00    +0.024 A 
ATOM      3  C   UNL     1       1.658  -3.970  -0.474  0.00  0.00    +0.009 A 
ATOM      4  C   UNL     1       2.262  -4.427  -1.629  0.00  0.00    -0.007 A 
ATOM      5  C   UNL     1       2.512  -3.555  -2.682  0.00  0.00    +0.144 A 
ATOM      6  C   UNL     1       2.137  -2.207  -2.556  0.00  0.00    +0.086 A 
ATOM      7  C   UNL     1       2.410  -1.286  -3.672  0.00  0.00    +0.202 A 
ATOM      8  O   UNL     1       2.111  -0.107  -3.614  0.00  0.00    -0.286 OA
ATOM      9  C   UNL     1       3.059  -1.863  -4.868  0.00  0.00    +0.068 A 
ATOM     10  C   UNL     1       3.352  -1.067  -5.975  0.00  0.00    +0.060 A 
ATOM     11  C   UNL     1       3.960  -1.632  -7.080  0.00  0.00    +0.118 A 
ATOM     12  C   UNL     1       4.276  -2.987  -7.085  0.00  0.00    +0.049 A 
ATOM     13  C   UNL     1       3.990  -3.779  -5.994  0.00  0.00    +0.050 A 
ATOM     14  C   UNL     1       3.378  -3.229  -4.871  0.00  0.00    +0.140 A 
ATOM     15  O   UNL     1       3.102  -4.010  -3.806  0.00  0.00    -0.454 OA
ATOM     16  C   UNL     1       2.652  -5.877  -1.748  0.00  0.00    +0.047 C 
ENDROOT
BRANCH   1  17
ATOM     17  N   UNL     1       1.162  -0.416  -1.251  0.00  0.00    -0.345 N 
ATOM     18  H   UNL     1       1.414   0.223  -1.935  0.00  0.00    +0.146 HD
BRANCH  17  19
ATOM     19  C   UNL     1       0.395   0.024  -0.083  0.00  0.00    +0.083 C 
BRANCH  19  20
ATOM     20  C   UNL     1       0.124   1.526  -0.188  0.00  0.00    -0.060 C 
BRANCH  20  21
ATOM     21  N   UNL     1      -0.668   1.951   0.986  0.00  0.00    +0.380 N 
ATOM     22  H   UNL     1      -1.487   1.339   1.074  0.00  0.00    -0.082 HD
BRANCH  21  24
ATOM     23  C   UNL     1       1.359   2.775   2.138  0.00  0.00    -0.017 C 
ATOM     24  C   UNL     1       0.149   1.841   2.213  0.00  0.00    -0.082 C 
ENDBRANCH  21  24
BRANCH  21  25
ATOM     25  C   UNL     1      -1.127   3.345   0.808  0.00  0.00    -0.082 C 
ATOM     26  C   UNL     1      -2.049   3.715   1.971  0.00  0.00    -0.017 C 
ENDBRANCH  21  25
ENDBRANCH  20  21
ENDBRANCH  19  20
ENDBRANCH  17  19
ENDBRANCH   1  17
BRANCH  11  27
ATOM     27  O   UNL     1       4.249  -0.864  -8.164  0.00  0.00    -0.507 OA
ATOM     28  H   UNL     1       3.539  -0.826  -8.820  0.00  0.00    +0.292 HD
ENDBRANCH  11  27
TORSDOF 7
