REMARK  Name = ZINC43046229
REMARK  8 active torsions:
REMARK  status: ('A' for Active; 'I' for Inactive)
REMARK    1  A    between atoms: C_1  and  C_2
REMARK    2  A    between atoms: C_8  and  N_10
REMARK    3  A    between atoms: N_13  and  N_14
REMARK    4  A    between atoms: C_18  and  S_21
REMARK    5  A    between atoms: S_21  and  N_24
REMARK    6  A    between atoms: N_24  and  C_25
REMARK    7  A    between atoms: C_25  and  C_26
REMARK    8  A    between atoms: C_25  and  C_27
REMARK                            x       y       z     vdW  Elec       q    Type
REMARK                         _______ _______ _______ _____ _____    ______ ____
ROOT
ATOM      1  N   UNL     1      -1.257   0.843   4.663  0.00  0.00    -0.247 N 
ATOM      2  C   UNL     1      -1.908   1.291   5.806  0.00  0.00    +0.135 A 
ATOM      3  C   UNL     1      -3.264   1.597   5.753  0.00  0.00    +0.047 A 
ATOM      4  C   UNL     1      -3.899   2.041   6.898  0.00  0.00    +0.033 A 
ATOM      5  C   UNL     1      -3.153   2.166   8.064  0.00  0.00    +0.123 A 
ATOM      6  C   UNL     1      -1.811   1.845   8.045  0.00  0.00    +0.141 A 
ATOM      7  N   UNL     1      -1.233   1.418   6.938  0.00  0.00    -0.237 NA
ATOM      8  H   UNL     1      -1.748   0.748   3.831  0.00  0.00    +0.172 HD
ENDROOT
BRANCH   1  12
ATOM      9  N   UNL     1       0.056  -0.038   2.447  0.00  0.00    -0.295 N 
ATOM     10  C   UNL     1       0.738   0.093   3.602  0.00  0.00    +0.316 C 
ATOM     11  O   UNL     1       1.922  -0.180   3.644  0.00  0.00    -0.251 OA
ATOM     12  N   UNL     1       0.107   0.528   4.711  0.00  0.00    -0.219 N 
ATOM     13  H   UNL     1      -0.888   0.180   2.413  0.00  0.00    +0.151 HD
ATOM     14  H   UNL     1       0.598   0.623   5.542  0.00  0.00    +0.174 HD
BRANCH   9  21
ATOM     15  C   UNL     1      -0.019   1.526   0.010  0.00  0.00    +0.009 C 
ATOM     16  C   UNL     1       0.002  -0.004   0.002  0.00  0.00    +0.006 C 
ATOM     17  C   UNL     1       0.718  -0.497  -1.257  0.00  0.00    +0.005 C 
ATOM     18  C   UNL     1       0.739  -2.027  -1.265  0.00  0.00    +0.000 C 
ATOM     19  C   UNL     1       1.479  -2.534  -0.026  0.00  0.00    +0.002 C 
ATOM     20  C   UNL     1       0.763  -2.041   1.233  0.00  0.00    +0.022 C 
ATOM     21  C   UNL     1       0.742  -0.511   1.242  0.00  0.00    +0.077 C 
ENDBRANCH   9  21
ENDBRANCH   1  12
BRANCH   5  22
ATOM     22  S   UNL     1      -3.913   2.728   9.550  0.00  0.00    +0.060 S 
ATOM     23  O   UNL     1      -2.877   3.275  10.355  0.00  0.00    -0.153 OA
ATOM     24  O   UNL     1      -5.055   3.481   9.164  0.00  0.00    -0.153 OA
BRANCH  22  25
ATOM     25  N   UNL     1      -4.477   1.391  10.349  0.00  0.00    -0.187 NA
ATOM     26  H   UNL     1      -5.430   1.270  10.479  0.00  0.00    +0.148 HD
BRANCH  25  27
ATOM     27  C   UNL     1      -3.535   0.391  10.858  0.00  0.00    +0.070 C 
ATOM     28  C   UNL     1      -3.223   0.686  12.326  0.00  0.00    +0.025 C 
ATOM     29  C   UNL     1      -4.156  -1.002  10.738  0.00  0.00    +0.025 C 
ENDBRANCH  25  27
ENDBRANCH  22  25
ENDBRANCH   5  22
TORSDOF 5
