REMARK  Name = ZINC01691838
REMARK  10 active torsions:
REMARK  status: ('A' for Active; 'I' for Inactive)
REMARK    1  A    between atoms: C_4  and  C_7
REMARK    2  A    between atoms: C_10  and  C_13
REMARK    3  A    between atoms: N_14  and  N_15
REMARK    4  A    between atoms: C_16  and  C_18
REMARK    5  A    between atoms: C_18  and  C_19
REMARK    6  A    between atoms: C_19  and  C_20
REMARK    7  A    between atoms: C_20  and  C_21
REMARK    8  A    between atoms: N_23  and  N_24
REMARK    9  A    between atoms: C_25  and  C_26
REMARK   10  A    between atoms: C_29  and  C_32
REMARK                            x       y       z     vdW  Elec       q    Type
REMARK                         _______ _______ _______ _____ _____    ______ ____
ROOT
ATOM      1  C   UNL     1       8.527  -6.555  -0.110  0.00  0.00    +0.018 C 
ENDROOT
BRANCH   1   2
ATOM      2  C   UNL     1       8.781  -5.046  -0.105  0.00  0.00    +0.098 C 
BRANCH   2   4
ATOM      3  N   UNL     1       7.440  -2.967  -0.082  0.00  0.00    -0.207 N 
ATOM      4  C   UNL     1       7.463  -4.315  -0.089  0.00  0.00    +0.232 C 
ATOM      5  O   UNL     1       6.423  -4.939  -0.082  0.00  0.00    -0.274 OA
ATOM      6  H   UNL     1       8.272  -2.468  -0.087  0.00  0.00    +0.177 HD
BRANCH   3   8
ATOM      7  C   UNL     1       6.194  -0.990  -0.060  0.00  0.00    +0.138 C 
ATOM      8  N   UNL     1       6.215  -2.288  -0.067  0.00  0.00    -0.188 NA
BRANCH   7  12
ATOM      9  C   UNL     1       2.481   1.071  -0.015  0.00  0.00    -0.018 A 
ATOM     10  C   UNL     1       2.503  -0.324  -0.017  0.00  0.00    +0.009 A 
ATOM     11  C   UNL     1       3.706  -0.993  -0.037  0.00  0.00    +0.010 A 
ATOM     12  C   UNL     1       4.905  -0.275  -0.044  0.00  0.00    -0.005 A 
ATOM     13  C   UNL     1       4.881   1.123  -0.037  0.00  0.00    +0.010 A 
ATOM     14  C   UNL     1       3.676   1.790  -0.023  0.00  0.00    +0.009 A 
BRANCH   9  18
ATOM     15  C   UNL     1      -1.236   3.134   0.031  0.00  0.00    +0.000 A 
ATOM     16  C   UNL     1      -1.216   1.751   0.017  0.00  0.00    +0.001 A 
ATOM     17  C   UNL     1      -0.013   1.076   0.008  0.00  0.00    +0.008 A 
ATOM     18  C   UNL     1       1.184   1.790   0.000  0.00  0.00    -0.018 A 
ATOM     19  C   UNL     1       1.158   3.184   0.008  0.00  0.00    +0.008 A 
ATOM     20  C   UNL     1      -0.052   3.849   0.023  0.00  0.00    +0.001 A 
ENDBRANCH   9  18
ENDBRANCH   7  12
ENDBRANCH   3   8
ENDBRANCH   2   4
ENDBRANCH   1   2
BRANCH   1  21
ATOM     21  C   UNL     1       9.864  -7.297  -0.127  0.00  0.00    +0.098 C 
BRANCH  21  22
ATOM     22  C   UNL     1       9.614  -8.783  -0.132  0.00  0.00    +0.232 C 
ATOM     23  O   UNL     1       8.477  -9.207  -0.123  0.00  0.00    -0.274 OA
ATOM     24  N   UNL     1      10.653  -9.642  -0.146  0.00  0.00    -0.207 N 
ATOM     25  H   UNL     1      11.562  -9.303  -0.153  0.00  0.00    +0.177 HD
BRANCH  24  26
ATOM     26  N   UNL     1      10.420 -11.023  -0.151  0.00  0.00    -0.188 NA
ATOM     27  C   UNL     1      11.421 -11.850  -0.164  0.00  0.00    +0.138 C 
BRANCH  27  28
ATOM     28  C   UNL     1      11.177 -13.303  -0.169  0.00  0.00    -0.005 A 
ATOM     29  C   UNL     1       9.867 -13.792  -0.154  0.00  0.00    +0.010 A 
ATOM     30  C   UNL     1       9.640 -15.150  -0.163  0.00  0.00    +0.009 A 
ATOM     31  C   UNL     1      10.716 -16.038  -0.178  0.00  0.00    -0.018 A 
ATOM     32  C   UNL     1      12.024 -15.551  -0.188  0.00  0.00    +0.009 A 
ATOM     33  C   UNL     1      12.254 -14.194  -0.184  0.00  0.00    +0.010 A 
BRANCH  31  34
ATOM     34  C   UNL     1      10.470 -17.500  -0.184  0.00  0.00    -0.018 A 
ATOM     35  C   UNL     1      11.542 -18.390  -0.204  0.00  0.00    +0.008 A 
ATOM     36  C   UNL     1      11.307 -19.750  -0.204  0.00  0.00    +0.001 A 
ATOM     37  C   UNL     1      10.010 -20.230  -0.194  0.00  0.00    +0.000 A 
ATOM     38  C   UNL     1       8.941 -19.351  -0.179  0.00  0.00    +0.001 A 
ATOM     39  C   UNL     1       9.165 -17.989  -0.174  0.00  0.00    +0.008 A 
ENDBRANCH  31  34
ENDBRANCH  27  28
ENDBRANCH  24  26
ENDBRANCH  21  22
ENDBRANCH   1  21
TORSDOF 10
