REMARK  Name = ZINC12638488
REMARK  9 active torsions:
REMARK  status: ('A' for Active; 'I' for Inactive)
REMARK    1  A    between atoms: C_1  and  C_2
REMARK    2  A    between atoms: C_2  and  C_3
REMARK    3  A    between atoms: C_13  and  C_17
REMARK    4  A    between atoms: C_17  and  C_18
REMARK    5  A    between atoms: C_17  and  C_19
REMARK    6  A    between atoms: C_17  and  C_20
REMARK    7  A    between atoms: N_24  and  C_27
REMARK    8  A    between atoms: C_27  and  N_29
REMARK    9  A    between atoms: N_29  and  C_30
REMARK                            x       y       z     vdW  Elec       q    Type
REMARK                         _______ _______ _______ _____ _____    ______ ____
ROOT
ATOM      1  C   UNL     1       0.638   1.904  -5.031  0.00  0.00    +0.132 A 
ATOM      2  N   UNL     1       1.467   1.426  -4.124  0.00  0.00    -0.217 NA
ATOM      3  C   UNL     1       1.154   1.267  -2.840  0.00  0.00    +0.133 A 
ATOM      4  C   UNL     1      -0.168   1.649  -2.471  0.00  0.00    +0.051 A 
ATOM      5  C   UNL     1      -0.765   1.580  -1.148  0.00  0.00    -0.025 A 
ATOM      6  C   UNL     1      -2.046   2.001  -1.037  0.00  0.00    -0.004 A 
ATOM      7  S   UNL     1      -2.515   2.506  -2.673  0.00  0.00    -0.073 S 
ATOM      8  C   UNL     1      -0.999   2.154  -3.503  0.00  0.00    +0.114 A 
ATOM      9  N   UNL     1      -0.605   2.279  -4.755  0.00  0.00    -0.225 NA
ATOM     10  C   UNL     1      -2.886   2.032   0.202  0.00  0.00    +0.046 C 
ATOM     11  C   UNL     1      -2.206   1.169   1.274  0.00  0.00    -0.000 C 
ATOM     12  C   UNL     1      -0.720   1.546   1.339  0.00  0.00    +0.009 C 
ATOM     13  C   UNL     1      -0.010   1.064   0.074  0.00  0.00    +0.037 C 
ATOM     14  N   UNL     1       2.056   0.762  -1.921  0.00  0.00    -0.312 N 
ATOM     15  C   UNL     1       3.260   1.601  -1.849  0.00  0.00    +0.125 C 
ATOM     16  C   UNL     1       4.148   1.116  -0.699  0.00  0.00    +0.125 C 
ATOM     17  N   UNL     1       4.402  -0.322  -0.879  0.00  0.00    -0.309 N 
ATOM     18  C   UNL     1       3.250  -1.210  -1.095  0.00  0.00    +0.125 C 
ATOM     19  C   UNL     1       2.397  -0.633  -2.230  0.00  0.00    +0.125 C 
ENDROOT
BRANCH  11  20
ATOM     20  C   UNL     1      -2.860   1.427   2.633  0.00  0.00    -0.035 C 
ATOM     21  C   UNL     1      -4.346   1.069   2.559  0.00  0.00    +0.011 C 
ATOM     22  C   UNL     1      -2.180   0.566   3.698  0.00  0.00    +0.011 C 
ATOM     23  C   UNL     1      -2.709   2.905   2.999  0.00  0.00    +0.011 C 
ENDBRANCH  11  20
BRANCH   1  25
ATOM     24  C   UNL     1       0.826   0.738  -7.211  0.00  0.00    +0.012 C 
ATOM     25  C   UNL     1       1.126   2.031  -6.451  0.00  0.00    +0.073 C 
ENDBRANCH   1  25
BRANCH  17  26
ATOM     26  C   UNL     1       5.657  -0.812  -0.848  0.00  0.00    +0.137 C 
ATOM     27  S   UNL     1       5.940  -2.465  -1.190  0.00  0.00    -0.018 S 
BRANCH  26  28
ATOM     28  N   UNL     1       6.690  -0.000  -0.546  0.00  0.00    -0.297 N 
ATOM     29  H   UNL     1       7.252   0.353  -1.254  0.00  0.00    +0.154 HD
BRANCH  28  30
ATOM     30  C   UNL     1       6.952   0.334   0.787  0.00  0.00    +0.033 A 
ATOM     31  C   UNL     1       6.086  -0.080   1.791  0.00  0.00    +0.023 A 
ATOM     32  C   UNL     1       6.350   0.247   3.106  0.00  0.00    +0.002 A 
ATOM     33  C   UNL     1       7.469   0.995   3.423  0.00  0.00    +0.000 A 
ATOM     34  C   UNL     1       8.330   1.413   2.426  0.00  0.00    +0.002 A 
ATOM     35  C   UNL     1       8.075   1.085   1.109  0.00  0.00    +0.023 A 
ENDBRANCH  28  30
ENDBRANCH  26  28
ENDBRANCH  17  26
TORSDOF 5
