REMARK  Name = ZINC38700630
REMARK  10 active torsions:
REMARK  status: ('A' for Active; 'I' for Inactive)
REMARK    1  A    between atoms: C_1  and  C_2
REMARK    2  A    between atoms: C_2  and  C_3
REMARK    3  A    between atoms: C_3  and  O_4
REMARK    4  A    between atoms: O_4  and  C_5
REMARK    5  A    between atoms: C_10  and  C_11
REMARK    6  A    between atoms: C_16  and  O_25
REMARK    7  A    between atoms: C_20  and  N_24
REMARK    8  A    between atoms: C_21  and  C_22
REMARK    9  A    between atoms: O_25  and  C_26
REMARK   10  A    between atoms: C_26  and  C_28
REMARK                            x       y       z     vdW  Elec       q    Type
REMARK                         _______ _______ _______ _____ _____    ______ ____
ROOT
ATOM      1  C   UNL     1       0.786  -4.712   1.268  0.00  0.00    +0.101 C 
ATOM      2  C   UNL     1      -0.276  -5.606   1.851  0.00  0.00    +0.008 A 
ATOM      3  C   UNL     1      -1.468  -5.053   2.285  0.00  0.00    +0.012 A 
ATOM      4  C   UNL     1      -2.453  -5.857   2.823  0.00  0.00    +0.047 A 
ATOM      5  C   UNL     1      -2.250  -7.226   2.930  0.00  0.00    +0.135 A 
ATOM      6  C   UNL     1      -1.057  -7.783   2.497  0.00  0.00    +0.093 A 
ATOM      7  C   UNL     1      -0.067  -6.972   1.956  0.00  0.00    +0.138 A 
ATOM      8  O   UNL     1       1.094  -7.532   1.537  0.00  0.00    -0.441 OA
ATOM      9  C   UNL     1       1.887  -6.869   0.680  0.00  0.00    +0.199 C 
ATOM     10  C   UNL     1       1.791  -5.532   0.508  0.00  0.00    +0.098 C 
ENDROOT
BRANCH   1  16
ATOM     11  C   UNL     1       1.458  -2.587   2.416  0.00  0.00    +0.125 A 
ATOM     12  C   UNL     1       2.096  -1.909   3.445  0.00  0.00    +0.046 A 
ATOM     13  C   UNL     1       2.760  -2.617   4.428  0.00  0.00    +0.004 A 
ATOM     14  C   UNL     1       2.789  -3.999   4.388  0.00  0.00    +0.001 A 
ATOM     15  C   UNL     1       2.154  -4.676   3.363  0.00  0.00    +0.008 A 
ATOM     16  C   UNL     1       1.483  -3.973   2.381  0.00  0.00    +0.007 A 
BRANCH  11  17
ATOM     17  O   UNL     1       0.803  -1.893   1.447  0.00  0.00    -0.492 OA
BRANCH  17  18
ATOM     18  C   UNL     1       0.819  -0.468   1.548  0.00  0.00    +0.229 C 
BRANCH  18  20
ATOM     19  C   UNL     1       0.053   1.660   0.485  0.00  0.00    +0.007 C 
ATOM     20  C   UNL     1       0.037   0.134   0.378  0.00  0.00    +0.038 C 
ENDBRANCH  18  20
ENDBRANCH  17  18
ENDBRANCH  11  17
ENDBRANCH   1  16
BRANCH   9  21
ATOM     21  N   UNL     1       2.823  -7.568  -0.040  0.00  0.00    -0.328 N 
ATOM     22  H   UNL     1       2.904  -8.528   0.074  0.00  0.00    +0.145 HD
ATOM     23  H   UNL     1       3.403  -7.103  -0.663  0.00  0.00    +0.145 HD
ENDBRANCH   9  21
BRANCH  10  24
ATOM     24  C   UNL     1       2.667  -4.884  -0.421  0.00  0.00    +0.101 C 
ATOM     25  N   UNL     1       3.362  -4.369  -1.158  0.00  0.00    -0.191 NA
ENDBRANCH  10  24
BRANCH   5  26
ATOM     26  O   UNL     1      -3.218  -8.019   3.460  0.00  0.00    -0.422 OA
BRANCH  26  27
ATOM     27  C   UNL     1      -4.351  -8.195   2.750  0.00  0.00    +0.351 C 
ATOM     28  O   UNL     1      -4.441  -7.739   1.627  0.00  0.00    -0.244 OA
BRANCH  27  29
ATOM     29  C   UNL     1      -5.477  -8.938   3.334  0.00  0.00    +0.144 A 
ATOM     30  C   UNL     1      -6.654  -9.141   2.625  0.00  0.00    +0.033 A 
ATOM     31  C   UNL     1      -7.708  -9.841   3.267  0.00  0.00    +0.018 A 
ATOM     32  C   UNL     1      -8.837 -10.249   2.542  0.00  0.00    +0.011 A 
ATOM     33  C   UNL     1      -9.823 -10.959   3.165  0.00  0.00    +0.001 A 
ATOM     34  C   UNL     1      -9.723 -11.273   4.513  0.00  0.00    +0.004 A 
ATOM     35  C   UNL     1      -8.631 -10.864   5.250  0.00  0.00    +0.047 A 
ATOM     36  C   UNL     1      -7.619 -10.136   4.640  0.00  0.00    +0.139 A 
ATOM     37  O   UNL     1      -6.562  -9.692   5.363  0.00  0.00    -0.422 OA
ATOM     38  C   UNL     1      -5.399  -9.504   4.694  0.00  0.00    +0.351 A 
ATOM     39  O   UNL     1      -4.328  -9.788   5.197  0.00  0.00    -0.244 OA
ENDBRANCH  27  29
ENDBRANCH  26  27
ENDBRANCH   5  26
TORSDOF 9
