REMARK  Name = ZINC43867158
REMARK  11 active torsions:
REMARK  status: ('A' for Active; 'I' for Inactive)
REMARK    1  A    between atoms: C_1  and  C_2
REMARK    2  A    between atoms: C_2  and  C_4
REMARK    3  A    between atoms: C_8  and  C_40
REMARK    4  A    between atoms: C_17  and  C_39
REMARK    5  A    between atoms: C_20  and  O_35
REMARK    6  A    between atoms: C_22  and  C_33
REMARK    7  A    between atoms: C_22  and  C_34
REMARK    8  A    between atoms: C_27  and  C_32
REMARK    9  A    between atoms: C_28  and  C_31
REMARK   10  A    between atoms: O_35  and  C_36
REMARK   11  A    between atoms: C_36  and  C_38
REMARK                            x       y       z     vdW  Elec       q    Type
REMARK                         _______ _______ _______ _____ _____    ______ ____
ROOT
ATOM      1  C   UNL     1      -0.365  -1.089  -0.646  0.00  0.00    +0.018 C 
ATOM      2  C   UNL     1       1.032  -0.894  -1.292  0.00  0.00    +0.008 C 
ATOM      3  C   UNL     1       0.773  -0.392  -2.740  0.00  0.00    +0.007 C 
ATOM      4  C   UNL     1      -0.596   0.301  -2.618  0.00  0.00    -0.028 C 
ATOM      5  C   UNL     1      -1.357  -0.722  -1.741  0.00  0.00    +0.006 C 
ATOM      6  C   UNL     1      -2.719  -0.201  -1.383  0.00  0.00    -0.000 C 
ATOM      7  C   UNL     1      -3.483  -1.180  -0.488  0.00  0.00    +0.005 C 
ATOM      8  C   UNL     1      -4.809  -0.550  -0.079  0.00  0.00    +0.005 C 
ATOM      9  C   UNL     1      -5.676  -0.196  -1.282  0.00  0.00    +0.002 C 
ATOM     10  C   UNL     1      -6.618  -1.335  -1.639  0.00  0.00    -0.025 C 
ATOM     11  C   UNL     1      -5.915  -2.672  -1.442  0.00  0.00    +0.011 C 
ATOM     12  C   UNL     1      -6.843  -3.841  -1.778  0.00  0.00    +0.046 C 
ATOM     13  C   UNL     1      -7.240  -3.719  -3.247  0.00  0.00    +0.182 C 
ATOM     14  C   UNL     1      -8.036  -2.439  -3.473  0.00  0.00    +0.005 C 
ATOM     15  C   UNL     1      -7.326  -1.190  -2.966  0.00  0.00    +0.004 C 
ATOM     16  C   UNL     1      -6.474  -0.579  -4.067  0.00  0.00    +0.005 C 
ATOM     17  C   UNL     1      -5.751   0.681  -3.635  0.00  0.00    +0.008 C 
ATOM     18  C   UNL     1      -4.922   0.529  -2.365  0.00  0.00    -0.023 C 
ATOM     19  C   UNL     1      -3.526   0.009  -2.675  0.00  0.00    -0.023 C 
ATOM     20  C   UNL     1      -2.773   0.962  -3.609  0.00  0.00    +0.008 C 
ATOM     21  C   UNL     1      -1.356   0.456  -3.923  0.00  0.00    +0.007 C 
ATOM     22  C   UNL     1      -3.619  -1.322  -3.431  0.00  0.00    +0.012 C 
ATOM     23  C   UNL     1      -4.756   1.990  -1.833  0.00  0.00    +0.012 C 
ATOM     24  C   UNL     1      -9.419  -2.580  -2.817  0.00  0.00    +0.015 C 
ATOM     25  C   UNL     1      -8.293  -2.332  -4.991  0.00  0.00    +0.015 C 
ATOM     26  C   UNL     1      -7.722  -1.265  -0.534  0.00  0.00    +0.012 C 
ATOM     27  C   UNL     1      -0.419   1.662  -1.951  0.00  0.00    +0.011 C 
ENDROOT
BRANCH   1  29
ATOM     28  C   UNL     1      -1.592  -0.551   1.586  0.00  0.00    +0.039 C 
ATOM     29  C   UNL     1      -0.499  -0.254   0.592  0.00  0.00    -0.076 C 
ATOM     30  C   UNL     1       0.334   0.733   0.809  0.00  0.00    +0.007 C 
ENDBRANCH   1  29
BRANCH  13  31
ATOM     31  O   UNL     1      -6.071  -3.718  -4.069  0.00  0.00    -0.461 OA
BRANCH  31  32
ATOM     32  C   UNL     1      -5.630  -4.910  -4.503  0.00  0.00    +0.304 C 
ATOM     33  O   UNL     1      -6.217  -5.920  -4.194  0.00  0.00    -0.251 OA
ATOM     34  C   UNL     1      -4.402  -4.987  -5.374  0.00  0.00    +0.136 C 
ENDBRANCH  31  32
ENDBRANCH  13  31
TORSDOF 3
