REMARK  Name = ZINC59283124
REMARK  13 active torsions:
REMARK  status: ('A' for Active; 'I' for Inactive)
REMARK    1  A    between atoms: C_1  and  C_2
REMARK    2  A    between atoms: C_3  and  C_12
REMARK    3  A    between atoms: C_8  and  S_10
REMARK    4  A    between atoms: S_10  and  C_11
REMARK    5  A    between atoms: C_12  and  C_13
REMARK    6  A    between atoms: C_13  and  C_14
REMARK    7  A    between atoms: N_16  and  C_17
REMARK    8  A    between atoms: C_18  and  C_28
REMARK    9  A    between atoms: C_23  and  C_27
REMARK   10  A    between atoms: C_28  and  O_30
REMARK   11  A    between atoms: O_30  and  C_31
REMARK   12  A    between atoms: C_31  and  C_32
REMARK   13  A    between atoms: C_31  and  C_33
REMARK                            x       y       z     vdW  Elec       q    Type
REMARK                         _______ _______ _______ _____ _____    ______ ____
ROOT
ATOM      1  C   UNL     1      -4.329   0.892  -1.407  0.00  0.00    +0.218 C 
ATOM      2  O   UNL     1      -4.811   1.258  -0.356  0.00  0.00    -0.275 OA
ATOM      3  N   UNL     1      -4.975   1.134  -2.565  0.00  0.00    -0.279 N 
ATOM      4  H   UNL     1      -4.589   0.842  -3.406  0.00  0.00    +0.155 HD
ENDROOT
BRANCH   3   5
ATOM      5  C   UNL     1      -6.190   1.800  -2.555  0.00  0.00    +0.086 A 
ATOM      6  C   UNL     1      -6.992   2.129  -3.638  0.00  0.00    +0.091 A 
ATOM      7  C   UNL     1      -8.230   2.835  -3.357  0.00  0.00    -0.021 A 
ATOM      8  C   UNL     1      -8.440   3.083  -2.047  0.00  0.00    -0.004 A 
ATOM      9  S   UNL     1      -7.033   2.390  -1.228  0.00  0.00    -0.077 S 
ATOM     10  C   UNL     1      -9.615   3.786  -1.441  0.00  0.00    +0.046 C 
ATOM     11  C   UNL     1     -10.732   3.853  -2.493  0.00  0.00    -0.009 C 
ATOM     12  C   UNL     1     -10.139   4.351  -3.814  0.00  0.00    +0.008 C 
ATOM     13  C   UNL     1      -9.231   3.276  -4.415  0.00  0.00    +0.037 C 
ATOM     14  C   UNL     1     -11.822   4.817  -2.022  0.00  0.00    +0.008 C 
BRANCH   6  15
ATOM     15  C   UNL     1      -6.606   1.779  -5.007  0.00  0.00    +0.342 C 
ATOM     16  O   UNL     1      -6.950   0.713  -5.482  0.00  0.00    -0.245 OA
BRANCH  15  17
ATOM     17  O   UNL     1      -5.870   2.638  -5.741  0.00  0.00    -0.458 OA
BRANCH  17  18
ATOM     18  C   UNL     1      -5.530   2.232  -7.068  0.00  0.00    +0.171 C 
ATOM     19  C   UNL     1      -6.618   2.698  -8.038  0.00  0.00    +0.052 C 
ATOM     20  C   UNL     1      -4.191   2.856  -7.465  0.00  0.00    +0.052 C 
ENDBRANCH  17  18
ENDBRANCH  15  17
ENDBRANCH   6  15
ENDBRANCH   3   5
BRANCH   1  21
ATOM     21  C   UNL     1      -3.008   0.167  -1.419  0.00  0.00    +0.101 C 
BRANCH  21  22
ATOM     22  C   UNL     1      -2.493   0.023   0.015  0.00  0.00    +0.051 C 
BRANCH  22  25
ATOM     23  C   UNL     1      -0.018   1.503   0.010  0.00  0.00    +0.066 C 
ATOM     24  C   UNL     1       0.002  -0.004   0.002  0.00  0.00    +0.049 A 
ATOM     25  C   UNL     1      -1.171  -0.701   0.004  0.00  0.00    +0.038 A 
ATOM     26  C   UNL     1      -1.128  -2.107  -0.004  0.00  0.00    +0.256 A 
ATOM     27  O   UNL     1      -2.158  -2.761  -0.004  0.00  0.00    -0.267 OA
ATOM     28  N   UNL     1       0.076  -2.718  -0.014  0.00  0.00    -0.302 N 
ATOM     29  H   UNL     1       0.130  -3.687  -0.020  0.00  0.00    +0.171 HD
ATOM     30  C   UNL     1       1.214  -1.970  -0.015  0.00  0.00    +0.169 A 
ATOM     31  N   UNL     1       1.164  -0.652  -0.013  0.00  0.00    -0.228 NA
BRANCH  30  32
ATOM     32  S   UNL     1       2.781  -2.777  -0.027  0.00  0.00    -0.091 S 
ATOM     33  C   UNL     1       3.977  -1.414  -0.025  0.00  0.00    +0.093 C 
ENDBRANCH  30  32
ENDBRANCH  22  25
ENDBRANCH  21  22
ENDBRANCH   1  21
TORSDOF 8
