REMARK  Name = ZINC04067182
REMARK  7 active torsions:
REMARK  status: ('A' for Active; 'I' for Inactive)
REMARK    1  A    between atoms: C_1  and  O_2
REMARK    2  A    between atoms: O_2  and  C_3
REMARK    3  A    between atoms: C_5  and  C_10
REMARK    4  A    between atoms: C_8  and  O_9
REMARK    5  A    between atoms: C_11  and  N_19
REMARK    6  A    between atoms: C_20  and  C_21
REMARK    7  A    between atoms: C_24  and  C_26
REMARK                            x       y       z     vdW  Elec       q    Type
REMARK                         _______ _______ _______ _____ _____    ______ ____
ROOT
ATOM      1  C   UNL     1       2.457   0.307   4.193  0.00  0.00    +0.091 A 
ATOM      2  C   UNL     1       3.719   0.102   4.751  0.00  0.00    +0.163 A 
ATOM      3  N   UNL     1       3.882   1.074   5.714  0.00  0.00    -0.286 N 
ATOM      4  C   UNL     1       4.907   1.357   6.568  0.00  0.00    +0.094 A 
ATOM      5  C   UNL     1       4.816   2.389   7.435  0.00  0.00    +0.018 A 
ATOM      6  C   UNL     1       3.660   3.185   7.466  0.00  0.00    +0.005 A 
ATOM      7  C   UNL     1       2.630   2.914   6.619  0.00  0.00    +0.045 A 
ATOM      8  C   UNL     1       2.739   1.834   5.720  0.00  0.00    +0.117 A 
ATOM      9  N   UNL     1       1.905   1.363   4.802  0.00  0.00    -0.338 N 
ATOM     10  H   UNL     1       1.028   1.727   4.603  0.00  0.00    +0.167 HD
ENDROOT
BRANCH   1  13
ATOM     11  C   UNL     1       0.626  -0.619   1.042  0.00  0.00    +0.162 A 
ATOM     12  C   UNL     1       1.200   0.137   2.048  0.00  0.00    +0.059 A 
ATOM     13  C   UNL     1       1.840  -0.497   3.114  0.00  0.00    +0.006 A 
ATOM     14  C   UNL     1       1.898  -1.891   3.160  0.00  0.00    +0.014 A 
ATOM     15  C   UNL     1       1.323  -2.639   2.154  0.00  0.00    +0.050 A 
ATOM     16  C   UNL     1       0.682  -2.009   1.097  0.00  0.00    +0.158 A 
BRANCH  11  18
ATOM     17  C   UNL     1      -0.017   1.425   0.010  0.00  0.00    +0.277 C 
ATOM     18  O   UNL     1       0.002  -0.004   0.002  0.00  0.00    -0.491 OA
ENDBRANCH  11  18
BRANCH  16  19
ATOM     19  O   UNL     1       0.112  -2.751   0.111  0.00  0.00    -0.503 OA
ATOM     20  H   UNL     1       0.707  -2.953  -0.624  0.00  0.00    +0.292 HD
ENDBRANCH  16  19
ENDBRANCH   1  13
BRANCH   2  21
ATOM     21  N   UNL     1       4.604  -0.858   4.416  0.00  0.00    -0.232 NA
ATOM     22  C   UNL     1       4.578  -2.018   5.030  0.00  0.00    +0.159 C 
BRANCH  22  23
ATOM     23  C   UNL     1       5.506  -3.025   4.678  0.00  0.00    +0.147 A 
ATOM     24  C   UNL     1       5.587  -4.286   5.237  0.00  0.00    +0.051 A 
ATOM     25  C   UNL     1       6.640  -4.945   4.594  0.00  0.00    +0.050 A 
ATOM     26  C   UNL     1       7.159  -4.077   3.678  0.00  0.00    +0.136 A 
ATOM     27  O   UNL     1       6.465  -2.924   3.733  0.00  0.00    -0.454 OA
BRANCH  26  28
ATOM     28  C   UNL     1       8.290  -4.357   2.773  0.00  0.00    +0.017 A 
ATOM     29  C   UNL     1       8.923  -5.602   2.805  0.00  0.00    +0.013 A 
ATOM     30  C   UNL     1       9.980  -5.857   1.957  0.00  0.00    +0.021 A 
ATOM     31  C   UNL     1      10.415  -4.882   1.074  0.00  0.00    +0.041 A 
ATOM     32  C   UNL     1       9.791  -3.645   1.037  0.00  0.00    +0.021 A 
ATOM     33  C   UNL     1       8.730  -3.379   1.876  0.00  0.00    +0.013 A 
ATOM     34 CL   UNL     1      11.746  -5.210   0.010  0.00  0.00    -0.084 Cl
ENDBRANCH  26  28
ENDBRANCH  22  23
ENDBRANCH   2  21
TORSDOF 6
