REMARK  Name = ZINC00066884
REMARK  6 active torsions:
REMARK  status: ('A' for Active; 'I' for Inactive)
REMARK    1  A    between atoms: C_1  and  C_2
REMARK    2  A    between atoms: C_2  and  C_3
REMARK    3  A    between atoms: C_3  and  C_4
REMARK    4  A    between atoms: C_11  and  N_25
REMARK    5  A    between atoms: C_12  and  C_23
REMARK    6  A    between atoms: C_13  and  C_15
REMARK                            x       y       z     vdW  Elec       q    Type
REMARK                         _______ _______ _______ _____ _____    ______ ____
ROOT
ATOM      1  C   UNL     1      -1.455   3.595   2.515  0.00  0.00    +0.071 A 
ATOM      2  C   UNL     1      -2.814   3.853   2.631  0.00  0.00    +0.049 A 
ATOM      3  C   UNL     1      -3.058   4.272   3.910  0.00  0.00    +0.222 A 
ATOM      4  N   UNL     1      -1.885   4.281   4.564  0.00  0.00    -0.246 N 
ATOM      5  H   UNL     1      -1.746   4.546   5.518  0.00  0.00    +0.192 HD
ATOM      6  N   UNL     1      -0.891   3.854   3.671  0.00  0.00    -0.176 NA
ATOM      7  O   UNL     1      -4.298   4.604   4.348  0.00  0.00    -0.423 OA
ATOM      8  C   UNL     1      -5.263   4.771   3.421  0.00  0.00    +0.200 C 
ATOM      9  C   UNL     1      -5.145   4.381   2.133  0.00  0.00    +0.098 C 
ATOM     10  C   UNL     1      -3.904   3.708   1.601  0.00  0.00    +0.103 C 
ENDROOT
BRANCH  10  11
ATOM     11  C   UNL     1      -4.185   2.248   1.353  0.00  0.00    -0.016 A 
ATOM     12  C   UNL     1      -4.582   1.433   2.396  0.00  0.00    +0.007 A 
ATOM     13  C   UNL     1      -4.839   0.094   2.169  0.00  0.00    +0.020 A 
ATOM     14  C   UNL     1      -4.700  -0.431   0.896  0.00  0.00    +0.042 A 
ATOM     15  C   UNL     1      -4.303   0.385  -0.148  0.00  0.00    +0.040 A 
ATOM     16  C   UNL     1      -4.050   1.726   0.079  0.00  0.00    +0.046 A 
ATOM     17 CL   UNL     1      -3.559   2.751  -1.233  0.00  0.00    -0.083 Cl
ATOM     18 CL   UNL     1      -5.024  -2.112   0.610  0.00  0.00    -0.083 Cl
ENDBRANCH  10  11
BRANCH   8  19
ATOM     19  N   UNL     1      -6.435   5.372   3.810  0.00  0.00    -0.328 N 
ATOM     20  H   UNL     1      -6.550   5.662   4.728  0.00  0.00    +0.145 HD
ATOM     21  H   UNL     1      -7.148   5.506   3.166  0.00  0.00    +0.145 HD
ENDBRANCH   8  19
BRANCH   9  22
ATOM     22  C   UNL     1      -6.239   4.616   1.238  0.00  0.00    +0.101 C 
ATOM     23  N   UNL     1      -7.106   4.803   0.529  0.00  0.00    -0.191 NA
ENDBRANCH   9  22
BRANCH   1  24
ATOM     24  C   UNL     1      -0.750   3.109   1.275  0.00  0.00    +0.057 C 
BRANCH  24  26
ATOM     25  C   UNL     1      -0.013   1.086   0.008  0.00  0.00    +0.004 C 
ATOM     26  C   UNL     1      -0.729   1.579   1.267  0.00  0.00    +0.003 C 
ENDBRANCH  24  26
ENDBRANCH   1  24
TORSDOF 5
