REMARK  Name = ZINC04906837
REMARK  6 active torsions:
REMARK  status: ('A' for Active; 'I' for Inactive)
REMARK    1  A    between atoms: C_1  and  O_2
REMARK    2  A    between atoms: O_2  and  C_3
REMARK    3  A    between atoms: C_8  and  O_9
REMARK    4  A    between atoms: O_9  and  C_10
REMARK    5  A    between atoms: C_14  and  N_16
REMARK    6  A    between atoms: N_16  and  C_17
REMARK                            x       y       z     vdW  Elec       q    Type
REMARK                         _______ _______ _______ _____ _____    ______ ____
ROOT
ATOM      1  C   UNL     1       2.072  -6.709   1.695  0.00  0.00    +0.162 A 
ATOM      2  C   UNL     1       1.853  -5.648   2.556  0.00  0.00    +0.050 A 
ATOM      3  C   UNL     1       1.924  -4.343   2.091  0.00  0.00    +0.013 A 
ATOM      4  C   UNL     1       2.214  -4.096   0.771  0.00  0.00    +0.029 A 
ATOM      5  C   UNL     1       2.440  -5.156  -0.115  0.00  0.00    +0.112 A 
ATOM      6  C   UNL     1       2.367  -6.473   0.355  0.00  0.00    +0.176 A 
ATOM      7  C   UNL     1       2.723  -4.588  -1.442  0.00  0.00    +0.345 C 
ATOM      8  O   UNL     1       2.964  -5.239  -2.439  0.00  0.00    -0.245 OA
ATOM      9  O   UNL     1       2.679  -3.246  -1.393  0.00  0.00    -0.435 OA
ATOM     10  C   UNL     1       2.364  -2.831  -0.036  0.00  0.00    +0.297 C 
ENDROOT
BRANCH   1  12
ATOM     11  C   UNL     1       1.693  -8.156   3.544  0.00  0.00    +0.277 C 
ATOM     12  O   UNL     1       2.000  -7.986   2.159  0.00  0.00    -0.491 OA
ENDBRANCH   1  12
BRANCH   6  13
ATOM     13  O   UNL     1       2.583  -7.513  -0.490  0.00  0.00    -0.491 OA
ATOM     14  C   UNL     1       3.928  -7.979  -0.615  0.00  0.00    +0.277 C 
ENDBRANCH   6  13
BRANCH  10  15
ATOM     15  N   UNL     1       1.110  -2.073  -0.020  0.00  0.00    -0.292 N 
ATOM     16  H   UNL     1       0.261  -2.541  -0.014  0.00  0.00    +0.151 HD
BRANCH  15  17
ATOM     17  C   UNL     1       1.139  -0.683  -0.013  0.00  0.00    +0.099 A 
ATOM     18  C   UNL     1       2.361  -0.018  -0.021  0.00  0.00    +0.043 A 
ATOM     19  C   UNL     1       2.374   1.365  -0.014  0.00  0.00    +0.020 A 
ATOM     20  C   UNL     1       1.160   2.040   0.002  0.00  0.00    +0.034 A 
ATOM     21  C   UNL     1      -0.016   1.316   0.009  0.00  0.00    +0.099 A 
ATOM     22 BR   UNL     1       1.118   3.930   0.012  0.00  0.00    -0.049 Br
ATOM     23  N   UNL     1      -0.066  -0.043   0.002  0.00  0.00    -0.349 N 
ATOM     24  H   UNL     1      -0.956  -0.556   0.008  0.00  0.00    +0.167 HD
ENDBRANCH  15  17
ENDBRANCH  10  15
TORSDOF 4
