REMARK  Name = ZINC13065131
REMARK  11 active torsions:
REMARK  status: ('A' for Active; 'I' for Inactive)
REMARK    1  A    between atoms: C_1  and  C_2
REMARK    2  A    between atoms: C_2  and  C_3
REMARK    3  A    between atoms: C_3  and  C_5
REMARK    4  A    between atoms: C_3  and  N_69
REMARK    5  A    between atoms: N_9  and  C_10
REMARK    6  A    between atoms: C_10  and  C_11
REMARK    7  A    between atoms: C_16  and  C_17
REMARK    8  A    between atoms: C_16  and  N_69
REMARK    9  A    between atoms: C_22  and  C_30
REMARK   10  A    between atoms: C_23  and  C_29
REMARK   11  A    between atoms: C_31  and  N_69
REMARK                            x       y       z     vdW  Elec       q    Type
REMARK                         _______ _______ _______ _____ _____    ______ ____
ROOT
ATOM      1  N   UNL     1       3.008  -5.071  -1.539  0.00  0.00    +0.391 N 
ATOM      2  H   UNL     1       2.384  -4.522  -2.141  0.00  0.00    -0.080 HD
ENDROOT
BRANCH   1   3
ATOM      3  C   UNL     1       4.353  -5.112  -2.152  0.00  0.00    -0.067 C 
ATOM      4  C   UNL     1       5.329  -5.875  -1.254  0.00  0.00    -0.015 C 
ATOM      5  C   UNL     1       6.711  -5.902  -1.910  0.00  0.00    -0.002 C 
ATOM      6  C   UNL     1       7.211  -4.469  -2.104  0.00  0.00    -0.000 C 
ATOM      7  C   UNL     1       6.235  -3.706  -3.002  0.00  0.00    -0.002 C 
ATOM      8  C   UNL     1       4.853  -3.679  -2.346  0.00  0.00    -0.015 C 
ENDBRANCH   1   3
BRANCH   1   9
ATOM      9  C   UNL     1       2.470  -6.441  -1.411  0.00  0.00    +0.003 C 
BRANCH   9  10
ATOM     10  C   UNL     1       2.903  -7.056  -0.105  0.00  0.00    +0.139 A 
ATOM     11  N   UNL     1       4.057  -6.890   0.494  0.00  0.00    -0.115 NA
ATOM     12  N   UNL     1       4.043  -7.577   1.583  0.00  0.00    -0.023 NA
ATOM     13  N   UNL     1       2.913  -8.184   1.691  0.00  0.00    -0.044 NA
ATOM     14  N   UNL     1       2.183  -7.889   0.669  0.00  0.00    -0.223 N 
BRANCH  14  15
ATOM     15  C   UNL     1       0.825  -8.369   0.402  0.00  0.00    +0.221 C 
BRANCH  15  16
ATOM     16  C   UNL     1       0.891  -9.648  -0.392  0.00  0.00    +0.126 A 
ATOM     17  C   UNL     1       0.952 -10.890   0.121  0.00  0.00    +0.046 A 
ATOM     18  C   UNL     1       0.998 -11.784  -0.974  0.00  0.00    +0.041 A 
ATOM     19  C   UNL     1       0.970 -11.034  -2.090  0.00  0.00    +0.195 A 
ATOM     20  O   UNL     1       0.906  -9.741  -1.732  0.00  0.00    -0.466 OA
ENDBRANCH  15  16
ENDBRANCH  14  15
ENDBRANCH   9  10
BRANCH   9  22
ATOM     21  C   UNL     1       2.419  -6.755  -3.889  0.00  0.00    +0.002 C 
ATOM     22  C   UNL     1       2.978  -7.298  -2.572  0.00  0.00    -0.011 C 
ENDBRANCH   9  22
ENDBRANCH   1   9
BRANCH   1  23
ATOM     23  C   UNL     1       3.079  -4.429  -0.209  0.00  0.00    -0.036 C 
BRANCH  23  24
ATOM     24  C   UNL     1       1.677  -4.156   0.273  0.00  0.00    +0.001 A 
ATOM     25  C   UNL     1       1.054  -5.048   1.081  0.00  0.00    +0.017 A 
ATOM     26  C   UNL     1      -0.307  -4.753   1.531  0.00  0.00    -0.001 A 
ATOM     27  C   UNL     1      -1.000  -5.635   2.367  0.00  0.00    +0.010 A 
ATOM     28  C   UNL     1      -2.269  -5.330   2.770  0.00  0.00    +0.004 A 
ATOM     29  C   UNL     1      -2.877  -4.151   2.358  0.00  0.00    -0.046 A 
ATOM     30  C   UNL     1      -2.213  -3.268   1.535  0.00  0.00    -0.024 A 
ATOM     31  C   UNL     1      -0.920  -3.557   1.112  0.00  0.00    +0.052 A 
ATOM     32  N   UNL     1      -0.232  -2.691   0.289  0.00  0.00    -0.322 N 
ATOM     33  H   UNL     1      -0.656  -1.867   0.001  0.00  0.00    +0.169 HD
ATOM     34  C   UNL     1       1.018  -2.971  -0.119  0.00  0.00    +0.251 A 
ATOM     35  O   UNL     1       1.596  -2.182  -0.846  0.00  0.00    -0.268 OA
ATOM     36  C   UNL     1      -2.885  -1.992   1.095  0.00  0.00    +0.046 C 
ATOM     37  C   UNL     1      -4.278  -3.836   2.815  0.00  0.00    +0.044 C 
ENDBRANCH  23  24
ENDBRANCH   1  23
TORSDOF 8
