REMARK  Name = ZINC39988839
REMARK  9 active torsions:
REMARK  status: ('A' for Active; 'I' for Inactive)
REMARK    1  A    between atoms: C_1  and  C_2
REMARK    2  A    between atoms: C_3  and  C_27
REMARK    3  A    between atoms: C_5  and  N_11
REMARK    4  A    between atoms: C_6  and  C_7
REMARK    5  A    between atoms: C_7  and  O_9
REMARK    6  A    between atoms: O_9  and  C_10
REMARK    7  A    between atoms: C_12  and  C_14
REMARK    8  A    between atoms: C_14  and  C_25
REMARK    9  A    between atoms: C_15  and  C_16
REMARK                            x       y       z     vdW  Elec       q    Type
REMARK                         _______ _______ _______ _____ _____    ______ ____
ROOT
ATOM      1  N   UNL     1       0.055  -3.118   2.079  0.00  0.00    -0.275 N 
ATOM      2  C   UNL     1       0.072  -4.426   1.757  0.00  0.00    +0.259 C 
ATOM      3  O   UNL     1       0.072  -4.765   0.589  0.00  0.00    -0.269 OA
ATOM      4  H   UNL     1       0.055  -2.847   3.010  0.00  0.00    +0.156 HD
ENDROOT
BRANCH   1   9
ATOM      5  C   UNL     1      -0.018   1.503   0.010  0.00  0.00    +0.045 C 
ATOM      6  C   UNL     1       0.002  -0.004   0.002  0.00  0.00    -0.025 A 
ATOM      7  C   UNL     1       0.007  -0.713  -1.142  0.00  0.00    -0.008 A 
ATOM      8  S   UNL     1       0.033  -2.400  -0.580  0.00  0.00    -0.078 S 
ATOM      9  C   UNL     1       0.037  -2.160   1.080  0.00  0.00    +0.087 A 
ATOM     10  C   UNL     1       0.024  -0.778   1.222  0.00  0.00    +0.091 A 
ATOM     11  C   UNL     1      -0.008  -0.199  -2.559  0.00  0.00    +0.052 C 
BRANCH  10  12
ATOM     12  C   UNL     1       0.027  -0.139   2.540  0.00  0.00    +0.342 C 
ATOM     13  O   UNL     1      -1.024   0.112   3.097  0.00  0.00    -0.245 OA
BRANCH  12  14
ATOM     14  O   UNL     1       1.197   0.172   3.136  0.00  0.00    -0.464 OA
ATOM     15  C   UNL     1       1.125   0.793   4.420  0.00  0.00    +0.280 C 
ENDBRANCH  12  14
ENDBRANCH  10  12
ENDBRANCH   1   9
BRANCH   2  16
ATOM     16  C   UNL     1       0.091  -5.446   2.820  0.00  0.00    +0.114 C 
ATOM     17  C   UNL     1       0.109  -6.792   2.488  0.00  0.00    +0.030 C 
BRANCH  17  18
ATOM     18  C   UNL     1       0.127  -7.761   3.498  0.00  0.00    -0.018 C 
ATOM     19  C   UNL     1       0.152  -9.142   3.338  0.00  0.00    +0.003 A 
ATOM     20  C   UNL     1       0.166  -9.976   2.200  0.00  0.00    +0.010 A 
ATOM     21  C   UNL     1       0.190 -11.322   2.340  0.00  0.00    +0.001 A 
ATOM     22  C   UNL     1       0.202 -11.946   3.595  0.00  0.00    +0.002 A 
ATOM     23  C   UNL     1       0.190 -11.236   4.746  0.00  0.00    +0.026 A 
ATOM     24  C   UNL     1       0.164  -9.768   4.679  0.00  0.00    +0.043 A 
ATOM     25  N   UNL     1       0.149  -8.854   5.613  0.00  0.00    -0.380 N 
ATOM     26  C   UNL     1       0.131  -7.525   4.992  0.00  0.00    +0.149 C 
ATOM     27  H   UNL     1       0.152  -9.027   6.567  0.00  0.00    +0.160 HD
ENDBRANCH  17  18
BRANCH  16  28
ATOM     28  C   UNL     1       0.092  -5.047   4.195  0.00  0.00    +0.104 C 
ATOM     29  N   UNL     1       0.092  -4.730   5.286  0.00  0.00    -0.191 NA
ENDBRANCH  16  28
ENDBRANCH   2  16
TORSDOF 6
