REMARK  Name = ZINC40568273
REMARK  5 active torsions:
REMARK  status: ('A' for Active; 'I' for Inactive)
REMARK    1  A    between atoms: C_4  and  O_7
REMARK    2  A    between atoms: O_7  and  C_8
REMARK    3  A    between atoms: C_8  and  C_10
REMARK    4  A    between atoms: C_11  and  N_28
REMARK    5  A    between atoms: C_15  and  C_19
REMARK                            x       y       z     vdW  Elec       q    Type
REMARK                         _______ _______ _______ _____ _____    ______ ____
ROOT
ATOM      1  C   UNL     1       5.118  -2.806  -0.150  0.00  0.00    +0.120 A 
ATOM      2  C   UNL     1       4.981  -4.122   0.243  0.00  0.00    +0.056 A 
ATOM      3  C   UNL     1       6.181  -4.867   0.587  0.00  0.00    +0.033 A 
ATOM      4  C   UNL     1       6.284  -6.222   1.016  0.00  0.00    -0.031 A 
ATOM      5  C   UNL     1       7.504  -6.743   1.286  0.00  0.00    -0.017 A 
ATOM      6  C   UNL     1       8.654  -5.940   1.151  0.00  0.00    +0.082 A 
ATOM      7  N   UNL     1       8.556  -4.678   0.755  0.00  0.00    -0.239 NA
ATOM      8  C   UNL     1       7.389  -4.142   0.479  0.00  0.00    +0.112 A 
ATOM      9  S   UNL     1       6.878  -2.534  -0.074  0.00  0.00    -0.060 S 
ATOM     10  C   UNL     1       7.696  -8.172   1.725  0.00  0.00    +0.037 C 
ATOM     11  C   UNL     1       6.382  -8.758   2.237  0.00  0.00    +0.005 C 
ATOM     12  C   UNL     1       5.295  -8.503   1.186  0.00  0.00    +0.005 C 
ATOM     13  C   UNL     1       5.005  -7.003   1.150  0.00  0.00    +0.036 C 
ENDROOT
BRANCH   6  14
ATOM     14  C   UNL     1       9.980  -6.510   1.454  0.00  0.00    +0.038 A 
ATOM     15  C   UNL     1      11.027  -5.947   2.138  0.00  0.00    +0.017 A 
ATOM     16  C   UNL     1      12.181  -6.677   2.298  0.00  0.00    +0.008 A 
ATOM     17  C   UNL     1      12.251  -7.930   1.775  0.00  0.00    +0.046 A 
ATOM     18  S   UNL     1      10.639  -8.114   1.030  0.00  0.00    -0.095 S 
ENDBRANCH   6  14
BRANCH   2  19
ATOM     19  N   UNL     1       3.731  -4.719   0.309  0.00  0.00    -0.356 N 
ATOM     20  H   UNL     1       3.013  -4.406  -0.264  0.00  0.00    +0.142 HD
ATOM     21  H   UNL     1       3.573  -5.449   0.927  0.00  0.00    +0.142 HD
ENDBRANCH   2  19
BRANCH   1  22
ATOM     22  C   UNL     1       4.106  -1.895  -0.527  0.00  0.00    +0.353 C 
ATOM     23  O   UNL     1       2.940  -2.245  -0.525  0.00  0.00    -0.244 OA
BRANCH  22  24
ATOM     24  O   UNL     1       4.432  -0.636  -0.891  0.00  0.00    -0.422 OA
BRANCH  24  28
ATOM     25  C   UNL     1       1.366   2.018  -1.649  0.00  0.00    +0.000 A 
ATOM     26  C   UNL     1       1.638   1.630  -0.349  0.00  0.00    +0.004 A 
ATOM     27  C   UNL     1       2.664   0.742  -0.093  0.00  0.00    +0.046 A 
ATOM     28  C   UNL     1       3.422   0.238  -1.140  0.00  0.00    +0.132 A 
ATOM     29  C   UNL     1       3.147   0.629  -2.443  0.00  0.00    +0.046 A 
ATOM     30  C   UNL     1       2.120   1.518  -2.694  0.00  0.00    +0.004 A 
ENDBRANCH  24  28
ENDBRANCH  22  24
ENDBRANCH   1  22
TORSDOF 5
