REMARK  Name = ZINC03423255
REMARK  6 active torsions:
REMARK  status: ('A' for Active; 'I' for Inactive)
REMARK    1  A    between atoms: C_1  and  O_2
REMARK    2  A    between atoms: O_2  and  C_3
REMARK    3  A    between atoms: C_3  and  C_5
REMARK    4  A    between atoms: C_9  and  N_10
REMARK    5  A    between atoms: C_11  and  C_13
REMARK    6  A    between atoms: C_13  and  N_14
REMARK                            x       y       z     vdW  Elec       q    Type
REMARK                         _______ _______ _______ _____ _____    ______ ____
ROOT
ATOM      1  N   UNL     1      -1.446  -2.341   2.362  0.00  0.00    -0.278 N 
ATOM      2  C   UNL     1      -2.310  -3.208   2.926  0.00  0.00    +0.236 C 
ATOM      3  O   UNL     1      -2.093  -4.400   2.874  0.00  0.00    -0.274 OA
ATOM      4  H   UNL     1      -1.619  -1.388   2.403  0.00  0.00    +0.155 HD
ENDROOT
BRANCH   1   9
ATOM      5  C   UNL     1       0.680  -2.076   1.092  0.00  0.00    +0.091 A 
ATOM      6  C   UNL     1       1.785  -2.814   0.494  0.00  0.00    -0.021 A 
ATOM      7  C   UNL     1       1.685  -4.152   0.630  0.00  0.00    -0.004 A 
ATOM      8  S   UNL     1       0.182  -4.405   1.530  0.00  0.00    -0.077 S 
ATOM      9  C   UNL     1      -0.310  -2.812   1.722  0.00  0.00    +0.086 A 
ATOM     10  C   UNL     1       2.630  -5.196   0.121  0.00  0.00    +0.043 C 
ATOM     11  C   UNL     1       4.064  -4.810   0.511  0.00  0.00    +0.005 C 
ATOM     12  C   UNL     1       4.653  -3.941  -0.596  0.00  0.00    +0.001 C 
ATOM     13  C   UNL     1       3.559  -3.089  -1.236  0.00  0.00    +0.005 C 
ATOM     14  C   UNL     1       2.954  -2.138  -0.208  0.00  0.00    +0.037 C 
BRANCH   5  15
ATOM     15  C   UNL     1       0.621  -0.614   1.034  0.00  0.00    +0.342 C 
ATOM     16  O   UNL     1       1.131   0.051   1.916  0.00  0.00    -0.245 OA
BRANCH  15  18
ATOM     17  C   UNL     1      -0.017   1.425   0.010  0.00  0.00    +0.280 C 
ATOM     18  O   UNL     1       0.002  -0.004   0.002  0.00  0.00    -0.464 OA
ENDBRANCH  15  18
ENDBRANCH   5  15
ENDBRANCH   1   9
BRANCH   2  19
ATOM     19  C   UNL     1      -3.545  -2.696   3.621  0.00  0.00    +0.214 C 
BRANCH  19  20
ATOM     20  N   UNL     1      -4.314  -3.827   4.146  0.00  0.00    -0.215 N 
ATOM     21  C   UNL     1      -5.274  -4.478   3.456  0.00  0.00    +0.247 C 
ATOM     22  O   UNL     1      -5.650  -4.248   2.327  0.00  0.00    -0.273 OA
ATOM     23  C   UNL     1      -5.782  -5.553   4.388  0.00  0.00    +0.117 C 
ATOM     24  C   UNL     1      -7.264  -5.343   4.689  0.00  0.00    +0.040 C 
ATOM     25  C   UNL     1      -8.021  -5.257   3.364  0.00  0.00    +0.038 C 
ATOM     26  C   UNL     1      -7.665  -6.418   2.473  0.00  0.00    -0.044 A 
ATOM     27  C   UNL     1      -8.527  -6.712   1.423  0.00  0.00    +0.004 A 
ATOM     28  C   UNL     1      -8.256  -7.759   0.567  0.00  0.00    +0.000 A 
ATOM     29  C   UNL     1      -7.118  -8.522   0.752  0.00  0.00    +0.000 A 
ATOM     30  C   UNL     1      -6.263  -8.232   1.795  0.00  0.00    +0.004 A 
ATOM     31  C   UNL     1      -6.536  -7.181   2.661  0.00  0.00    -0.042 A 
ATOM     32  C   UNL     1      -5.568  -6.934   3.789  0.00  0.00    +0.070 C 
ATOM     33  N   UNL     1      -4.980  -5.379   5.606  0.00  0.00    -0.285 N 
ATOM     34  C   UNL     1      -4.147  -4.348   5.369  0.00  0.00    +0.310 C 
ATOM     35  O   UNL     1      -3.336  -3.935   6.175  0.00  0.00    -0.252 OA
ATOM     36  H   UNL     1      -5.038  -5.905   6.419  0.00  0.00    +0.151 HD
ENDBRANCH  19  20
ENDBRANCH   2  19
TORSDOF 5
