REMARK  Name = ZINC54948768
REMARK  6 active torsions:
REMARK  status: ('A' for Active; 'I' for Inactive)
REMARK    1  A    between atoms: C_1  and  C_2
REMARK    2  A    between atoms: C_5  and  C_7
REMARK    3  A    between atoms: C_7  and  C_9
REMARK    4  A    between atoms: C_7  and  N_10
REMARK    5  A    between atoms: C_11  and  C_13
REMARK    6  A    between atoms: N_15  and  C_16
REMARK                            x       y       z     vdW  Elec       q    Type
REMARK                         _______ _______ _______ _____ _____    ______ ____
ROOT
ATOM      1  N   UNL     1       2.198  -4.142   0.873  0.00  0.00    -0.301 N 
ATOM      2  C   UNL     1       2.543  -5.324   1.419  0.00  0.00    +0.300 C 
ATOM      3  O   UNL     1       1.883  -6.316   1.188  0.00  0.00    -0.265 OA
ATOM      4  H   UNL     1       2.725  -3.349   1.058  0.00  0.00    +0.150 HD
ENDROOT
BRANCH   2   5
ATOM      5  C   UNL     1       3.739  -5.414   2.310  0.00  0.00    +0.303 C 
ATOM      6  O   UNL     1       4.400  -4.423   2.541  0.00  0.00    -0.265 OA
ATOM      7  N   UNL     1       4.085  -6.597   2.856  0.00  0.00    -0.277 N 
ATOM      8  H   UNL     1       3.522  -7.375   2.725  0.00  0.00    +0.155 HD
BRANCH   7   9
ATOM      9  C   UNL     1       5.256  -6.702   3.612  0.00  0.00    +0.048 A 
ATOM     10  C   UNL     1       5.673  -5.637   4.401  0.00  0.00    +0.024 A 
ATOM     11  C   UNL     1       6.830  -5.743   5.146  0.00  0.00    +0.002 A 
ATOM     12  C   UNL     1       7.575  -6.908   5.109  0.00  0.00    +0.001 A 
ATOM     13  C   UNL     1       7.163  -7.970   4.325  0.00  0.00    +0.017 A 
ATOM     14  C   UNL     1       6.003  -7.873   3.581  0.00  0.00    +0.039 A 
ATOM     15 BR   UNL     1       5.436  -9.329   2.516  0.00  0.00    -0.048 Br
ENDBRANCH   7   9
ENDBRANCH   2   5
BRANCH   1  16
ATOM     16  C   UNL     1       1.025  -4.054  -0.000  0.00  0.00    +0.107 C 
ATOM     17  C   UNL     1       1.423  -4.431  -1.429  0.00  0.00    +0.033 C 
BRANCH  16  22
ATOM     18  C   UNL     1      -0.031   1.512   0.054  0.00  0.00    +0.051 C 
ATOM     19  C   UNL     1      -0.012   0.005   0.043  0.00  0.00    -0.013 A 
ATOM     20  C   UNL     1      -1.054  -0.862   0.049  0.00  0.00    +0.011 A 
ATOM     21  C   UNL     1      -0.797  -2.220   0.035  0.00  0.00    +0.013 A 
ATOM     22  C   UNL     1       0.490  -2.645   0.017  0.00  0.00    +0.010 A 
ATOM     23  S   UNL     1       1.389  -1.102   0.011  0.00  0.00    -0.097 S 
ENDBRANCH  16  22
ENDBRANCH   1  16
TORSDOF 4
