REMARK  Name = ZINC03641304
REMARK  7 active torsions:
REMARK  status: ('A' for Active; 'I' for Inactive)
REMARK    1  A    between atoms: C_1  and  C_2
REMARK    2  A    between atoms: C_2  and  O_3
REMARK    3  A    between atoms: O_3  and  C_4
REMARK    4  A    between atoms: C_9  and  C_10
REMARK    5  A    between atoms: N_12  and  C_13
REMARK    6  A    between atoms: C_13  and  C_33
REMARK    7  A    between atoms: N_21  and  C_26
REMARK                            x       y       z     vdW  Elec       q    Type
REMARK                         _______ _______ _______ _____ _____    ______ ____
ROOT
ATOM      1  C   UNL     1       2.427  -2.410  -5.571  0.00  0.00    +0.240 C 
ATOM      2  C   UNL     1       3.377  -2.440  -6.745  0.00  0.00    +0.097 A 
ATOM      3  C   UNL     1       4.736  -2.754  -6.870  0.00  0.00    +0.262 A 
ATOM      4  O   UNL     1       5.384  -3.085  -5.892  0.00  0.00    -0.267 OA
ATOM      5  N   UNL     1       5.321  -2.686  -8.084  0.00  0.00    -0.274 N 
ATOM      6  H   UNL     1       6.262  -2.902  -8.181  0.00  0.00    +0.173 HD
ATOM      7  C   UNL     1       4.602  -2.320  -9.161  0.00  0.00    +0.335 A 
ATOM      8  O   UNL     1       5.145  -2.264 -10.248  0.00  0.00    -0.246 OA
ATOM      9  N   UNL     1       3.297  -2.015  -9.061  0.00  0.00    -0.249 N 
ATOM     10  C   UNL     1       2.655  -2.069  -7.840  0.00  0.00    +0.125 A 
ATOM     11  N   UNL     1       1.349  -1.806  -7.502  0.00  0.00    -0.269 N 
ATOM     12  C   UNL     1       1.113  -1.977  -6.189  0.00  0.00    +0.256 C 
ATOM     13  O   UNL     1       0.057  -1.816  -5.614  0.00  0.00    -0.272 OA
ATOM     14  H   UNL     1       0.673  -1.527  -8.139  0.00  0.00    +0.156 HD
ENDROOT
BRANCH   9  15
ATOM     15  C   UNL     1       2.582  -1.638 -10.206  0.00  0.00    +0.053 A 
ATOM     16  C   UNL     1       1.940  -2.601 -10.974  0.00  0.00    +0.029 A 
ATOM     17  C   UNL     1       1.236  -2.227 -12.101  0.00  0.00    +0.040 A 
ATOM     18  C   UNL     1       1.169  -0.893 -12.467  0.00  0.00    +0.124 A 
ATOM     19  C   UNL     1       1.808   0.069 -11.703  0.00  0.00    +0.040 A 
ATOM     20  C   UNL     1       2.509  -0.300 -10.571  0.00  0.00    +0.029 A 
ATOM     21  F   UNL     1       0.480  -0.530 -13.570  0.00  0.00    -0.205 F 
ENDBRANCH   9  15
BRANCH   1  24
ATOM     22  C   UNL     1       1.431  -3.952  -3.968  0.00  0.00    +0.249 C 
ATOM     23  O   UNL     1       0.748  -3.034  -3.554  0.00  0.00    -0.270 OA
ATOM     24  N   UNL     1       2.302  -3.743  -4.975  0.00  0.00    -0.287 N 
ATOM     25  H   UNL     1       2.846  -4.475  -5.305  0.00  0.00    +0.151 HD
BRANCH  22  31
ATOM     26  C   UNL     1       0.400  -5.515  -2.321  0.00  0.00    +0.133 A 
ATOM     27  C   UNL     1       0.286  -6.782  -1.768  0.00  0.00    +0.046 A 
ATOM     28  C   UNL     1       1.065  -7.818  -2.244  0.00  0.00    +0.004 A 
ATOM     29  C   UNL     1       1.965  -7.601  -3.275  0.00  0.00    +0.001 A 
ATOM     30  C   UNL     1       2.091  -6.349  -3.836  0.00  0.00    +0.017 A 
ATOM     31  C   UNL     1       1.304  -5.293  -3.368  0.00  0.00    +0.078 A 
BRANCH  26  32
ATOM     32  O   UNL     1      -0.365  -4.497  -1.854  0.00  0.00    -0.491 OA
BRANCH  32  34
ATOM     33  C   UNL     1      -2.035  -3.535  -0.396  0.00  0.00    +0.048 C 
ATOM     34  C   UNL     1      -1.264  -4.798  -0.785  0.00  0.00    +0.226 C 
ENDBRANCH  32  34
ENDBRANCH  26  32
ENDBRANCH  22  31
ENDBRANCH   1  24
BRANCH   1  35
ATOM     35  C   UNL     1       2.890  -1.395  -4.524  0.00  0.00    +0.424 C 
ATOM     36  F   UNL     1       4.142  -1.775  -4.028  0.00  0.00    -0.167 F 
ATOM     37  F   UNL     1       2.986  -0.130  -5.112  0.00  0.00    -0.167 F 
ATOM     38  F   UNL     1       1.966  -1.353  -3.475  0.00  0.00    -0.167 F 
ENDBRANCH   1  35
TORSDOF 6
