REMARK  Name = ZINC23247929
REMARK  7 active torsions:
REMARK  status: ('A' for Active; 'I' for Inactive)
REMARK    1  A    between atoms: C_1  and  N_2
REMARK    2  A    between atoms: C_3  and  C_5
REMARK    3  A    between atoms: C_5  and  N_6
REMARK    4  A    between atoms: N_9  and  C_12
REMARK    5  A    between atoms: C_12  and  C_13
REMARK    6  A    between atoms: C_16  and  C_32
REMARK    7  A    between atoms: C_24  and  C_25
REMARK                            x       y       z     vdW  Elec       q    Type
REMARK                         _______ _______ _______ _____ _____    ______ ____
ROOT
ATOM      1  C   UNL     1      -5.460   5.638  -0.089  0.00  0.00    +0.249 C 
ATOM      2  O   UNL     1      -6.044   6.698  -0.011  0.00  0.00    -0.272 OA
ATOM      3  N   UNL     1      -4.117   5.599   0.012  0.00  0.00    -0.183 N 
ATOM      4  C   UNL     1      -3.225   6.760   0.230  0.00  0.00    +0.147 C 
ATOM      5  C   UNL     1      -1.967   6.084   0.802  0.00  0.00    +0.067 C 
ATOM      6  C   UNL     1      -0.685   6.670   0.208  0.00  0.00    +0.012 C 
ATOM      7  C   UNL     1       0.493   5.827   0.693  0.00  0.00    +0.005 C 
ATOM      8  C   UNL     1       0.438   4.388   0.222  0.00  0.00    +0.037 C 
ATOM      9  C   UNL     1      -0.949   3.839   0.081  0.00  0.00    -0.023 C 
ATOM     10  C   UNL     1      -1.121   2.526  -0.202  0.00  0.00    +0.020 C 
ATOM     11  C   UNL     1      -2.079   4.671   0.234  0.00  0.00    +0.068 C 
ATOM     12  N   UNL     1      -3.316   4.453  -0.059  0.00  0.00    -0.181 NA
ENDROOT
BRANCH  10  13
ATOM     13  C   UNL     1       0.043   1.656  -0.369  0.00  0.00    +0.012 A 
ATOM     14  C   UNL     1       0.086   0.300  -0.658  0.00  0.00    +0.015 A 
ATOM     15  C   UNL     1       1.316  -0.303  -0.772  0.00  0.00    +0.008 A 
ATOM     16  C   UNL     1       2.441   0.441  -0.600  0.00  0.00    +0.046 A 
ATOM     17  S   UNL     1       1.778   2.063  -0.262  0.00  0.00    -0.097 S 
ENDBRANCH  10  13
BRANCH   4  18
ATOM     18  C   UNL     1      -2.923   7.445  -1.078  0.00  0.00    +0.013 A 
ATOM     19  C   UNL     1      -2.696   8.759  -1.321  0.00  0.00    +0.013 A 
ATOM     20  C   UNL     1      -2.433   9.165  -2.615  0.00  0.00    +0.008 A 
ATOM     21  C   UNL     1      -2.420   8.240  -3.606  0.00  0.00    +0.045 A 
ATOM     22  S   UNL     1      -2.780   6.737  -2.711  0.00  0.00    -0.100 S 
ENDBRANCH   4  18
BRANCH   1  23
ATOM     23  C   UNL     1      -6.237   4.363  -0.300  0.00  0.00    +0.182 C 
BRANCH  23  27
ATOM     24  N   UNL     1     -10.414   4.382   0.328  0.00  0.00    +0.387 N 
ATOM     25  C   UNL     1      -9.914   3.880  -0.959  0.00  0.00    -0.063 C 
ATOM     26  C   UNL     1      -8.439   3.497  -0.816  0.00  0.00    +0.066 C 
ATOM     27  N   UNL     1      -7.671   4.671  -0.377  0.00  0.00    -0.298 NA
ATOM     28  C   UNL     1      -8.172   5.173   0.910  0.00  0.00    +0.066 C 
ATOM     29  C   UNL     1      -9.647   5.556   0.766  0.00  0.00    -0.063 C 
ATOM     30  H   UNL     1     -10.280   3.589   1.078  0.00  0.00    -0.081 HD
BRANCH  24  31
ATOM     31  C   UNL     1     -11.849   4.690   0.251  0.00  0.00    +0.019 C 
BRANCH  31  34
ATOM     32  C   UNL     1     -14.708   2.225  -0.383  0.00  0.00    +0.128 C 
ATOM     33  N   UNL     1     -13.953   3.464  -0.183  0.00  0.00    -0.320 N 
ATOM     34  C   UNL     1     -12.626   3.415   0.044  0.00  0.00    +0.196 C 
ATOM     35  O   UNL     1     -12.056   2.345   0.083  0.00  0.00    -0.278 OA
ATOM     36  H   UNL     1     -14.470   4.435  -0.217  0.00  0.00    +0.148 HD
ENDBRANCH  31  34
ENDBRANCH  24  31
ENDBRANCH  23  27
ENDBRANCH   1  23
TORSDOF 6
