REMARK  Name = ZINC39657111
REMARK  10 active torsions:
REMARK  status: ('A' for Active; 'I' for Inactive)
REMARK    1  A    between atoms: C_1  and  C_2
REMARK    2  A    between atoms: C_2  and  C_3
REMARK    3  A    between atoms: C_3  and  C_4
REMARK    4  A    between atoms: C_4  and  C_5
REMARK    5  A    between atoms: C_5  and  C_7
REMARK    6  A    between atoms: C_5  and  C_8
REMARK    7  A    between atoms: C_12  and  C_21
REMARK    8  A    between atoms: N_23  and  C_24
REMARK    9  A    between atoms: C_24  and  C_26
REMARK   10  A    between atoms: C_24  and  C_27
REMARK                            x       y       z     vdW  Elec       q    Type
REMARK                         _______ _______ _______ _____ _____    ______ ____
ROOT
ATOM      1  C   UNL     1       1.060  -3.909  -2.717  0.00  0.00    +0.218 C 
ATOM      2  O   UNL     1       0.352  -4.568  -1.986  0.00  0.00    -0.275 OA
ATOM      3  N   UNL     1       1.813  -4.517  -3.654  0.00  0.00    -0.300 N 
ATOM      4  C   UNL     1       2.817  -3.901  -4.554  0.00  0.00    +0.121 C 
ATOM      5  C   UNL     1       3.968  -4.930  -4.618  0.00  0.00    +0.100 C 
ATOM      6  C   UNL     1       3.311  -6.276  -4.267  0.00  0.00    -0.004 C 
ATOM      7  C   UNL     1       1.831  -5.956  -4.013  0.00  0.00    +0.115 C 
ATOM      8  C   UNL     1       3.942  -6.859  -3.006  0.00  0.00    -0.010 C 
ATOM      9  C   UNL     1       3.313  -8.223  -2.710  0.00  0.00    -0.082 C 
ATOM     10  N   UNL     1       3.529  -9.121  -3.850  0.00  0.00    +0.379 N 
ATOM     11  C   UNL     1       2.840  -8.600  -5.036  0.00  0.00    -0.082 C 
ATOM     12  C   UNL     1       3.449  -7.252  -5.431  0.00  0.00    -0.010 C 
ATOM     13  H   UNL     1       4.517  -9.191  -4.040  0.00  0.00    -0.086 HD
ATOM     14  H   UNL     1       3.167 -10.037  -3.628  0.00  0.00    -0.086 HD
ENDROOT
BRANCH   5  15
ATOM     15  C   UNL     1       5.036  -4.586  -3.612  0.00  0.00    +0.219 C 
ATOM     16  O   UNL     1       4.751  -3.952  -2.618  0.00  0.00    -0.275 OA
ATOM     17  N   UNL     1       6.307  -4.984  -3.817  0.00  0.00    -0.308 N 
ATOM     18  H   UNL     1       6.535  -5.491  -4.612  0.00  0.00    +0.149 HD
BRANCH  17  19
ATOM     19  C   UNL     1       7.346  -4.649  -2.839  0.00  0.00    +0.100 C 
ATOM     20  C   UNL     1       7.353  -5.697  -1.724  0.00  0.00    +0.033 C 
BRANCH  19  21
ATOM     21  C   UNL     1       8.690  -4.631  -3.520  0.00  0.00    -0.027 A 
ATOM     22  C   UNL     1       8.995  -5.585  -4.473  0.00  0.00    +0.006 A 
ATOM     23  C   UNL     1      10.227  -5.568  -5.099  0.00  0.00    +0.015 A 
ATOM     24  C   UNL     1      11.156  -4.597  -4.770  0.00  0.00    +0.018 A 
ATOM     25  C   UNL     1      10.851  -3.643  -3.816  0.00  0.00    +0.015 A 
ATOM     26  C   UNL     1       9.616  -3.657  -3.196  0.00  0.00    +0.006 A 
ATOM     27 BR   UNL     1      12.843  -4.574  -5.625  0.00  0.00    -0.050 Br
ENDBRANCH  19  21
ENDBRANCH  17  19
ENDBRANCH   5  15
BRANCH   1  28
ATOM     28  C   UNL     1       1.096  -2.408  -2.579  0.00  0.00    +0.072 C 
ATOM     29  C   UNL     1       0.937  -2.028  -1.105  0.00  0.00    +0.017 C 
BRANCH  28  30
ATOM     30  C   UNL     1      -0.046  -1.793  -3.390  0.00  0.00    +0.012 C 
BRANCH  30  31
ATOM     31  C   UNL     1       0.065  -0.268  -3.352  0.00  0.00    +0.000 C 
BRANCH  31  33
ATOM     32  C   UNL     1      -0.966   1.873  -4.124  0.00  0.00    +0.004 C 
ATOM     33  C   UNL     1      -1.076   0.348  -4.163  0.00  0.00    -0.003 C 
ENDBRANCH  31  33
ENDBRANCH  30  31
ENDBRANCH  28  30
ENDBRANCH   1  28
TORSDOF 7
