REMARK  Name = ZINC13689773
REMARK  8 active torsions:
REMARK  status: ('A' for Active; 'I' for Inactive)
REMARK    1  A    between atoms: C_1  and  C_2
REMARK    2  A    between atoms: C_3  and  C_21
REMARK    3  A    between atoms: C_9  and  O_19
REMARK    4  A    between atoms: C_15  and  C_17
REMARK    5  A    between atoms: C_15  and  C_18
REMARK    6  A    between atoms: O_19  and  C_20
REMARK    7  A    between atoms: C_21  and  C_22
REMARK    8  A    between atoms: N_24  and  C_25
REMARK                            x       y       z     vdW  Elec       q    Type
REMARK                         _______ _______ _______ _____ _____    ______ ____
ROOT
ATOM      1  C   UNL     1      -3.441   2.009   2.591  0.00  0.00    +0.045 C 
ATOM      2  C   UNL     1      -4.082   2.390   1.281  0.00  0.00    -0.026 A 
ATOM      3  C   UNL     1      -3.659   1.832   0.116  0.00  0.00    +0.049 A 
ATOM      4  C   UNL     1      -4.274   2.195  -1.099  0.00  0.00    +0.341 A 
ATOM      5  O   UNL     1      -3.893   1.686  -2.138  0.00  0.00    -0.245 OA
ATOM      6  O   UNL     1      -5.274   3.093  -1.129  0.00  0.00    -0.421 OA
ATOM      7  C   UNL     1      -5.718   3.675   0.007  0.00  0.00    +0.149 A 
ATOM      8  C   UNL     1      -5.133   3.341   1.241  0.00  0.00    +0.063 A 
ATOM      9  C   UNL     1      -5.600   3.947   2.420  0.00  0.00    +0.134 A 
ATOM     10  C   UNL     1      -6.627   4.864   2.351  0.00  0.00    +0.092 A 
ATOM     11  C   UNL     1      -7.205   5.195   1.124  0.00  0.00    +0.131 A 
ATOM     12  C   UNL     1      -6.749   4.604  -0.042  0.00  0.00    +0.038 A 
ATOM     13  C   UNL     1      -7.346   4.950  -1.383  0.00  0.00    +0.046 C 
ATOM     14  C   UNL     1      -8.706   5.622  -1.186  0.00  0.00    +0.052 C 
ATOM     15  C   UNL     1      -8.551   6.720  -0.126  0.00  0.00    +0.105 C 
ATOM     16  O   UNL     1      -8.216   6.101   1.117  0.00  0.00    -0.486 OA
ATOM     17  C   UNL     1      -9.867   7.487   0.018  0.00  0.00    +0.055 C 
ATOM     18  C   UNL     1      -7.436   7.682  -0.539  0.00  0.00    +0.055 C 
ENDROOT
BRANCH   9  19
ATOM     19  O   UNL     1      -5.043   3.633   3.617  0.00  0.00    -0.494 OA
ATOM     20  C   UNL     1      -5.571   4.291   4.771  0.00  0.00    +0.277 C 
ENDBRANCH   9  19
BRANCH   3  21
ATOM     21  C   UNL     1      -2.540   0.824   0.125  0.00  0.00    +0.138 C 
BRANCH  21  22
ATOM     22  C   UNL     1      -1.221   1.535  -0.038  0.00  0.00    +0.222 C 
ATOM     23  O   UNL     1      -1.194   2.742  -0.150  0.00  0.00    -0.275 OA
ATOM     24  N   UNL     1      -0.073   0.830  -0.059  0.00  0.00    -0.285 N 
ATOM     25  H   UNL     1      -0.099  -0.140  -0.038  0.00  0.00    +0.155 HD
BRANCH  24  26
ATOM     26  C   UNL     1       1.156   1.496  -0.119  0.00  0.00    +0.036 A 
ATOM     27  C   UNL     1       1.276   2.671  -0.850  0.00  0.00    +0.023 A 
ATOM     28  C   UNL     1       2.489   3.330  -0.903  0.00  0.00    +0.005 A 
ATOM     29  C   UNL     1       3.587   2.816  -0.238  0.00  0.00    +0.038 A 
ATOM     30  C   UNL     1       3.473   1.641   0.488  0.00  0.00    +0.125 A 
ATOM     31  C   UNL     1       2.259   0.980   0.548  0.00  0.00    +0.061 A 
ATOM     32  F   UNL     1       4.547   1.141   1.136  0.00  0.00    -0.205 F 
ENDBRANCH  24  26
ENDBRANCH  21  22
ENDBRANCH   3  21
TORSDOF 4
