REMARK  Name = ZINC63362874
REMARK  6 active torsions:
REMARK  status: ('A' for Active; 'I' for Inactive)
REMARK    1  A    between atoms: C_1  and  C_2
REMARK    2  A    between atoms: C_2  and  C_3
REMARK    3  A    between atoms: C_2  and  C_4
REMARK    4  A    between atoms: C_7  and  C_10
REMARK    5  A    between atoms: N_28  and  C_31
REMARK    6  A    between atoms: C_36  and  C_37
REMARK                            x       y       z     vdW  Elec       q    Type
REMARK                         _______ _______ _______ _____ _____    ______ ____
ROOT
ATOM      1  C   UNL     1       2.707  -1.868  -4.752  0.00  0.00    +0.135 C 
ATOM      2  C   UNL     1       2.436  -3.366  -4.956  0.00  0.00    +0.131 C 
ATOM      3  C   UNL     1       3.258  -4.113  -3.914  0.00  0.00    -0.034 C 
ATOM      4  C   UNL     1       2.398  -4.850  -3.218  0.00  0.00    -0.001 A 
ATOM      5  C   UNL     1       2.599  -5.821  -2.130  0.00  0.00    +0.010 A 
ATOM      6  C   UNL     1       1.475  -6.398  -1.628  0.00  0.00    +0.001 A 
ATOM      7  C   UNL     1       0.189  -6.111  -2.093  0.00  0.00    +0.002 A 
ATOM      8  C   UNL     1      -0.088  -5.235  -3.092  0.00  0.00    +0.026 A 
ATOM      9  C   UNL     1       1.013  -4.566  -3.702  0.00  0.00    +0.043 A 
ATOM     10  N   UNL     1       1.033  -3.696  -4.694  0.00  0.00    -0.375 N 
ATOM     11  C   UNL     1       4.747  -3.925  -3.742  0.00  0.00    +0.065 C 
ATOM     12  C   UNL     1       4.981  -2.412  -3.587  0.00  0.00    +0.169 C 
ATOM     13  N   UNL     1       4.159  -1.712  -4.598  0.00  0.00    -0.264 N 
ATOM     14  C   UNL     1       4.993  -0.959  -5.325  0.00  0.00    +0.317 C 
ATOM     15  O   UNL     1       4.628  -0.166  -6.170  0.00  0.00    -0.252 OA
ATOM     16  N   UNL     1       6.277  -1.182  -5.014  0.00  0.00    -0.192 N 
ATOM     17  C   UNL     1       6.404  -2.068  -3.971  0.00  0.00    +0.248 C 
ATOM     18  O   UNL     1       7.422  -2.492  -3.466  0.00  0.00    -0.273 OA
ATOM     19  H   UNL     1       0.268  -3.332  -5.166  0.00  0.00    +0.160 HD
ENDROOT
BRANCH   1  23
ATOM     20  C   UNL     1       0.710  -0.486  -1.238  0.00  0.00    -0.045 A 
ATOM     21  C   UNL     1       1.748  -1.394  -1.132  0.00  0.00    +0.004 A 
ATOM     22  C   UNL     1       2.394  -1.841  -2.269  0.00  0.00    +0.006 A 
ATOM     23  C   UNL     1       2.002  -1.381  -3.513  0.00  0.00    -0.025 A 
ATOM     24  C   UNL     1       0.964  -0.475  -3.619  0.00  0.00    +0.006 A 
ATOM     25  C   UNL     1       0.315  -0.031  -2.481  0.00  0.00    +0.004 A 
BRANCH  20  27
ATOM     26  C   UNL     1      -0.611  -1.189   0.740  0.00  0.00    +0.012 C 
ATOM     27  C   UNL     1       0.006   0.001   0.002  0.00  0.00    +0.013 C 
ATOM     28  C   UNL     1       1.012   0.703   0.917  0.00  0.00    +0.012 C 
ENDBRANCH  20  27
ENDBRANCH   1  23
BRANCH  16  29
ATOM     29  C   UNL     1       7.357  -0.581  -5.663  0.00  0.00    +0.060 A 
ATOM     30  C   UNL     1       7.867   0.623  -5.198  0.00  0.00    +0.025 A 
ATOM     31  C   UNL     1       8.936   1.216  -5.840  0.00  0.00    +0.002 A 
ATOM     32  C   UNL     1       9.506   0.617  -6.952  0.00  0.00    +0.001 A 
ATOM     33  C   UNL     1       9.014  -0.578  -7.429  0.00  0.00    +0.017 A 
ATOM     34  C   UNL     1       7.936  -1.194  -6.785  0.00  0.00    +0.085 A 
BRANCH  34  35
ATOM     35  C   UNL     1       7.408  -2.474  -7.285  0.00  0.00    +0.388 C 
ATOM     36  O   UNL     1       7.915  -3.004  -8.263  0.00  0.00    -0.241 OA
ATOM     37  O   UNL     1       6.461  -3.006  -6.722  0.00  0.00    -0.241 OA
ENDBRANCH  34  35
ENDBRANCH  16  29
TORSDOF 4
