REMARK  Name = ZINC36964333
REMARK  3 active torsions:
REMARK  status: ('A' for Active; 'I' for Inactive)
REMARK    1  A    between atoms: C_5  and  N_8
REMARK    2  A    between atoms: C_9  and  C_11
REMARK    3  A    between atoms: C_11  and  N_12
REMARK                            x       y       z     vdW  Elec       q    Type
REMARK                         _______ _______ _______ _____ _____    ______ ____
ROOT
ATOM      1  N   UNL     1       1.238  -2.081  -0.021  0.00  0.00    -0.285 N 
ATOM      2  C   UNL     1       0.155  -2.774   0.384  0.00  0.00    +0.201 C 
ATOM      3  O   UNL     1      -0.868  -2.189   0.670  0.00  0.00    -0.278 OA
ATOM      4  H   UNL     1       2.032  -2.552  -0.319  0.00  0.00    +0.155 HD
ENDROOT
BRANCH   1   9
ATOM      5  C   UNL     1       0.783   1.397  -1.133  0.00  0.00    +0.032 A 
ATOM      6  C   UNL     1       1.171   2.087   0.001  0.00  0.00    +0.020 A 
ATOM      7  C   UNL     1       1.582   1.397   1.128  0.00  0.00    +0.032 A 
ATOM      8  C   UNL     1       1.605   0.015   1.123  0.00  0.00    +0.041 A 
ATOM      9  C   UNL     1       1.215  -0.681  -0.014  0.00  0.00    +0.062 A 
ATOM     10  C   UNL     1       0.803   0.015  -1.143  0.00  0.00    +0.041 A 
ATOM     11 BR   UNL     1       0.271  -0.928  -2.694  0.00  0.00    -0.048 Br
ATOM     12 BR   UNL     1       2.166  -0.927   2.664  0.00  0.00    -0.048 Br
ATOM     13 BR   UNL     1       1.142   3.978   0.011  0.00  0.00    -0.050 Br
ENDBRANCH   1   9
BRANCH   2  14
ATOM     14  C   UNL     1       0.217  -4.277   0.483  0.00  0.00    +0.019 C 
BRANCH  14  15
ATOM     15  N   UNL     1      -1.080  -4.791   0.944  0.00  0.00    +0.386 N 
ATOM     16  C   UNL     1      -0.948  -6.237   1.224  0.00  0.00    -0.077 C 
ATOM     17  C   UNL     1      -2.052  -6.652   2.164  0.00  0.00    -0.003 C 
ATOM     18  C   UNL     1      -3.282  -7.182   1.408  0.00  0.00    +0.079 C 
ATOM     19  N   UNL     1      -3.591  -6.377   0.204  0.00  0.00    -0.318 NA
ATOM     20  C   UNL     1      -3.457  -4.953   0.410  0.00  0.00    +0.062 C 
ATOM     21  C   UNL     1      -2.046  -4.516  -0.029  0.00  0.00    -0.063 C 
ATOM     22  H   UNL     1      -3.042  -6.682  -0.586  0.00  0.00    +0.122 HD
ATOM     23  H   UNL     1      -1.333  -4.317   1.798  0.00  0.00    -0.081 HD
ENDBRANCH  14  15
ENDBRANCH   2  14
TORSDOF 3
