REMARK  Name = ZINC40280494
REMARK  4 active torsions:
REMARK  status: ('A' for Active; 'I' for Inactive)
REMARK    1  A    between atoms: C_1  and  O_2
REMARK    2  A    between atoms: O_2  and  C_3
REMARK    3  A    between atoms: C_8  and  C_9
REMARK    4  A    between atoms: C_9  and  C_11
REMARK                            x       y       z     vdW  Elec       q    Type
REMARK                         _______ _______ _______ _____ _____    ______ ____
ROOT
ATOM      1  C   UNL     1      -1.413  -3.020   0.302  0.00  0.00    -0.026 A 
ATOM      2  C   UNL     1      -2.264  -1.931   0.305  0.00  0.00    +0.009 A 
ATOM      3  C   UNL     1      -3.610  -2.099   0.577  0.00  0.00    +0.050 A 
ATOM      4  C   UNL     1      -4.103  -3.365   0.845  0.00  0.00    +0.162 A 
ATOM      5  C   UNL     1      -3.248  -4.459   0.842  0.00  0.00    +0.162 A 
ATOM      6  C   UNL     1      -1.903  -4.287   0.566  0.00  0.00    +0.054 A 
ATOM      7  O   UNL     1      -3.744  -5.702   1.107  0.00  0.00    -0.488 OA
ATOM      8  C   UNL     1      -4.193  -5.924   2.446  0.00  0.00    +0.232 C 
ATOM      9  C   UNL     1      -5.623  -5.438   2.622  0.00  0.00    +0.082 C 
ATOM     10  C   UNL     1      -5.748  -3.932   2.451  0.00  0.00    +0.232 C 
ATOM     11  O   UNL     1      -5.428  -3.546   1.113  0.00  0.00    -0.488 OA
ENDROOT
BRANCH   1  12
ATOM     12  C   UNL     1       0.052  -2.828   0.005  0.00  0.00    +0.120 C 
ATOM     13 BR   UNL     1       0.256  -1.902  -1.716  0.00  0.00    -0.078 Br
BRANCH  12  19
ATOM     14  C   UNL     1       0.626  -0.618   1.042  0.00  0.00    +0.125 A 
ATOM     15  C   UNL     1       1.202   0.139   2.051  0.00  0.00    +0.046 A 
ATOM     16  C   UNL     1       1.835  -0.488   3.107  0.00  0.00    +0.004 A 
ATOM     17  C   UNL     1       1.895  -1.869   3.158  0.00  0.00    +0.001 A 
ATOM     18  C   UNL     1       1.321  -2.625   2.153  0.00  0.00    +0.008 A 
ATOM     19  C   UNL     1       0.682  -2.003   1.097  0.00  0.00    +0.012 A 
BRANCH  14  21
ATOM     20  C   UNL     1      -0.017   1.425   0.010  0.00  0.00    +0.277 C 
ATOM     21  O   UNL     1       0.002  -0.004   0.002  0.00  0.00    -0.495 OA
ENDBRANCH  14  21
ENDBRANCH  12  19
ENDBRANCH   1  12
TORSDOF 3
