REMARK  Name = ZINC09322933
REMARK  4 active torsions:
REMARK  status: ('A' for Active; 'I' for Inactive)
REMARK    1  A    between atoms: C_11  and  S_20
REMARK    2  A    between atoms: N_12  and  C_13
REMARK    3  A    between atoms: S_20  and  C_21
REMARK    4  A    between atoms: C_21  and  C_22
REMARK                            x       y       z     vdW  Elec       q    Type
REMARK                         _______ _______ _______ _____ _____    ______ ____
ROOT
ATOM      1  C   UNL     1      -0.169   1.242  -1.145  0.00  0.00    +0.001 A 
ATOM      2  C   UNL     1       0.955   1.915  -1.609  0.00  0.00    +0.002 A 
ATOM      3  C   UNL     1       2.139   1.263  -1.796  0.00  0.00    +0.028 A 
ATOM      4  C   UNL     1       2.231  -0.108  -1.518  0.00  0.00    +0.072 A 
ATOM      5  C   UNL     1       1.083  -0.786  -1.046  0.00  0.00    +0.012 A 
ATOM      6  C   UNL     1      -0.112  -0.095  -0.864  0.00  0.00    +0.011 A 
ATOM      7  C   UNL     1       1.509  -2.180  -0.856  0.00  0.00    +0.040 C 
ATOM      8  C   UNL     1       0.728  -3.262  -0.398  0.00  0.00    +0.126 C 
ATOM      9  N   UNL     1      -0.597  -3.241  -0.150  0.00  0.00    -0.221 N 
ATOM     10  N   UNL     1      -0.964  -4.521   0.285  0.00  0.00    -0.158 NA
ATOM     11  C   UNL     1       0.102  -5.272   0.295  0.00  0.00    +0.184 C 
ATOM     12  N   UNL     1       1.173  -4.521  -0.129  0.00  0.00    -0.233 N 
ATOM     13  C   UNL     1       2.862  -2.201  -1.231  0.00  0.00    +0.123 C 
ATOM     14  N   UNL     1       3.235  -0.998  -1.602  0.00  0.00    -0.254 NA
ATOM     15  H   UNL     1      -1.188  -2.479  -0.254  0.00  0.00    +0.176 HD
ENDROOT
BRANCH  12  16
ATOM     16  C   UNL     1       2.493  -4.973  -0.260  0.00  0.00    +0.042 A 
ATOM     17  C   UNL     1       3.399  -4.785   0.775  0.00  0.00    +0.025 A 
ATOM     18  C   UNL     1       4.699  -5.231   0.644  0.00  0.00    +0.022 A 
ATOM     19  C   UNL     1       5.100  -5.865  -0.519  0.00  0.00    +0.041 A 
ATOM     20  C   UNL     1       4.200  -6.053  -1.553  0.00  0.00    +0.022 A 
ATOM     21  C   UNL     1       2.897  -5.614  -1.424  0.00  0.00    +0.025 A 
ATOM     22 CL   UNL     1       6.735  -6.424  -0.681  0.00  0.00    -0.084 Cl
ENDBRANCH  12  16
BRANCH  11  23
ATOM     23  S   UNL     1       0.159  -6.968   0.768  0.00  0.00    -0.079 S 
BRANCH  23  24
ATOM     24  C   UNL     1      -1.557  -7.359   1.208  0.00  0.00    +0.173 C 
BRANCH  24  25
ATOM     25  C   UNL     1      -1.649  -8.801   1.636  0.00  0.00    +0.226 C 
ATOM     26  O   UNL     1      -0.655  -9.496   1.645  0.00  0.00    -0.275 OA
ATOM     27  N   UNL     1      -2.836  -9.318   2.011  0.00  0.00    -0.296 N 
ATOM     28  C   UNL     1      -4.057  -8.496   2.003  0.00  0.00    +0.136 C 
ATOM     29  C   UNL     1      -5.148  -9.257   1.241  0.00  0.00    +0.179 C 
ATOM     30  O   UNL     1      -5.272 -10.573   1.787  0.00  0.00    -0.377 OA
ATOM     31  C   UNL     1      -4.095 -11.374   1.656  0.00  0.00    +0.179 C 
ATOM     32  C   UNL     1      -2.951 -10.723   2.433  0.00  0.00    +0.136 C 
ENDBRANCH  24  25
ENDBRANCH  23  24
ENDBRANCH  11  23
TORSDOF 4
