REMARK  Name = ZINC40860593
REMARK  7 active torsions:
REMARK  status: ('A' for Active; 'I' for Inactive)
REMARK    1  A    between atoms: C_1  and  C_2
REMARK    2  A    between atoms: C_6  and  C_21
REMARK    3  A    between atoms: C_8  and  N_11
REMARK    4  A    between atoms: N_11  and  S_12
REMARK    5  A    between atoms: S_12  and  N_15
REMARK    6  A    between atoms: C_21  and  C_22
REMARK    7  A    between atoms: C_21  and  C_23
REMARK                            x       y       z     vdW  Elec       q    Type
REMARK                         _______ _______ _______ _____ _____    ______ ____
ROOT
ATOM      1  N   UNL     1       1.514  -2.598   2.424  0.00  0.00    -0.176 NA
ATOM      2  H   UNL     1       0.998  -3.238   2.939  0.00  0.00    +0.149 HD
ENDROOT
BRANCH   1   8
ATOM      3  C   UNL     1      -1.152   1.521   3.032  0.00  0.00    +0.007 C 
ATOM      4  C   UNL     1      -0.512   0.578   2.010  0.00  0.00    -0.013 C 
ATOM      5  C   UNL     1      -1.597   0.003   1.098  0.00  0.00    +0.003 C 
ATOM      6  C   UNL     1      -0.957  -0.940   0.077  0.00  0.00    +0.005 C 
ATOM      7  C   UNL     1      -0.249  -2.081   0.809  0.00  0.00    +0.010 C 
ATOM      8  C   UNL     1       0.836  -1.506   1.722  0.00  0.00    +0.081 C 
ATOM      9  C   UNL     1       0.196  -0.563   2.743  0.00  0.00    +0.024 C 
BRANCH   7  10
ATOM     10  C   UNL     1       0.391  -3.024  -0.212  0.00  0.00    -0.013 C 
ATOM     11  C   UNL     1      -0.706  -3.710  -1.029  0.00  0.00    +0.007 C 
ATOM     12  C   UNL     1       1.298  -2.222  -1.147  0.00  0.00    +0.007 C 
ENDBRANCH   7  10
ENDBRANCH   1   8
BRANCH   1  13
ATOM     13  S   UNL     1       3.161  -2.742   2.337  0.00  0.00    +0.097 S 
ATOM     14  O   UNL     1       3.518  -3.838   3.168  0.00  0.00    -0.141 OA
ATOM     15  O   UNL     1       3.502  -2.688   0.959  0.00  0.00    -0.141 OA
BRANCH  13  16
ATOM     16  N   UNL     1       3.808  -1.388   3.038  0.00  0.00    -0.170 NA
ATOM     17  C   UNL     1       4.202  -0.229   2.222  0.00  0.00    +0.091 C 
ATOM     18  C   UNL     1       3.578   1.030   2.832  0.00  0.00    -0.065 C 
ATOM     19  N   UNL     1       3.958   1.128   4.247  0.00  0.00    +0.381 N 
ATOM     20  C   UNL     1       3.389   0.001   4.997  0.00  0.00    -0.065 C 
ATOM     21  C   UNL     1       3.999  -1.307   4.494  0.00  0.00    +0.091 C 
ATOM     22  H   UNL     1       4.964   1.109   4.325  0.00  0.00    -0.086 HD
ATOM     23  H   UNL     1       3.610   1.994   4.628  0.00  0.00    -0.086 HD
ENDBRANCH  13  16
ENDBRANCH   1  13
TORSDOF 4
