REMARK  Name = ZINC62077776
REMARK  6 active torsions:
REMARK  status: ('A' for Active; 'I' for Inactive)
REMARK    1  A    between atoms: C_1  and  C_2
REMARK    2  A    between atoms: C_2  and  C_4
REMARK    3  A    between atoms: C_2  and  C_18
REMARK    4  A    between atoms: C_4  and  N_5
REMARK    5  A    between atoms: N_5  and  C_6
REMARK    6  A    between atoms: C_18  and  N_19
REMARK                            x       y       z     vdW  Elec       q    Type
REMARK                         _______ _______ _______ _____ _____    ______ ____
ROOT
ATOM      1  N   UNL     1      -0.057  -0.113  -2.444  0.00  0.00    +0.390 N 
ATOM      2  H   UNL     1      -0.975  -0.528  -2.395  0.00  0.00    -0.084 HD
ATOM      3  H   UNL     1      -0.143   0.892  -2.478  0.00  0.00    -0.084 HD
ENDROOT
BRANCH   1   4
ATOM      4  C   UNL     1       0.630  -0.587  -3.652  0.00  0.00    +0.050 C 
ATOM      5  C   UNL     1      -0.185  -0.270  -4.885  0.00  0.00    -0.018 A 
ATOM      6  C   UNL     1       0.596   0.574  -5.664  0.00  0.00    +0.036 A 
ATOM      7  C   UNL     1       0.089   1.033  -6.878  0.00  0.00    +0.023 A 
ATOM      8  C   UNL     1      -1.171   0.651  -7.291  0.00  0.00    +0.003 A 
ATOM      9  C   UNL     1      -1.940  -0.189  -6.507  0.00  0.00    +0.015 A 
ATOM     10  C   UNL     1      -1.443  -0.649  -5.299  0.00  0.00    +0.022 A 
ATOM     11 BR   UNL     1      -2.489  -1.798  -4.220  0.00  0.00    -0.050 Br
ATOM     12  N   UNL     1       1.820   0.813  -5.038  0.00  0.00    -0.286 N 
ATOM     13  C   UNL     1       1.924   0.172  -3.859  0.00  0.00    +0.208 C 
ATOM     14  O   UNL     1       2.873   0.198  -3.103  0.00  0.00    -0.277 OA
ATOM     15  H   UNL     1       2.517   1.376  -5.411  0.00  0.00    +0.155 HD
ENDBRANCH   1   4
BRANCH   1  16
ATOM     16  C   UNL     1       0.718  -0.497  -1.257  0.00  0.00    -0.080 C 
BRANCH  16  18
ATOM     17  C   UNL     1      -0.019   1.526   0.010  0.00  0.00    +0.004 C 
ATOM     18  C   UNL     1       0.002  -0.004   0.002  0.00  0.00    -0.048 C 
BRANCH  18  19
ATOM     19  C   UNL     1       0.742  -0.511   1.242  0.00  0.00    -0.078 C 
BRANCH  19  20
ATOM     20  N   UNL     1      -0.010  -0.139   2.447  0.00  0.00    +0.380 N 
ATOM     21  C   UNL     1      -1.282  -0.903   2.513  0.00  0.00    -0.079 C 
ATOM     22  C   UNL     1      -1.652  -0.848   4.017  0.00  0.00    -0.020 C 
ATOM     23  C   UNL     1      -0.278  -0.964   4.715  0.00  0.00    -0.020 C 
ATOM     24  C   UNL     1       0.750  -0.515   3.659  0.00  0.00    -0.079 C 
ATOM     25  H   UNL     1      -0.199   0.852   2.449  0.00  0.00    -0.082 HD
ENDBRANCH  19  20
ENDBRANCH  18  19
ENDBRANCH  16  18
ENDBRANCH   1  16
TORSDOF 5
