REMARK  Name = ZINC08854828
REMARK  7 active torsions:
REMARK  status: ('A' for Active; 'I' for Inactive)
REMARK    1  A    between atoms: C_1  and  C_2
REMARK    2  A    between atoms: C_6  and  N_9
REMARK    3  A    between atoms: C_7  and  C_8
REMARK    4  A    between atoms: N_19  and  N_20
REMARK    5  A    between atoms: C_21  and  C_22
REMARK    6  A    between atoms: C_25  and  C_27
REMARK    7  A    between atoms: C_30  and  N_34
REMARK                            x       y       z     vdW  Elec       q    Type
REMARK                         _______ _______ _______ _____ _____    ______ ____
ROOT
ATOM      1  N   UNL     1       3.573   2.588   0.430  0.00  0.00    -0.296 N 
ATOM      2  C   UNL     1       3.927   3.921   0.477  0.00  0.00    +0.167 A 
ATOM      3  C   UNL     1       5.338   4.303   0.343  0.00  0.00    +0.181 A 
ATOM      4  N   UNL     1       5.697   5.570   0.379  0.00  0.00    -0.202 NA
ATOM      5  C   UNL     1       4.768   6.515   0.550  0.00  0.00    +0.244 A 
ATOM      6  C   UNL     1       3.343   6.130   0.691  0.00  0.00    +0.244 A 
ATOM      7  N   UNL     1       2.996   4.838   0.646  0.00  0.00    -0.203 NA
ATOM      8  N   UNL     1       2.743   7.288   0.837  0.00  0.00    -0.027 NA
ATOM      9  O   UNL     1       3.572   8.173   0.799  0.00  0.00    -0.238 OA
ATOM     10  N   UNL     1       4.724   7.825   0.641  0.00  0.00    -0.027 NA
ATOM     11  N   UNL     1       6.297   3.326   0.172  0.00  0.00    -0.218 N 
ATOM     12  H   UNL     1       4.260   1.905   0.383  0.00  0.00    +0.154 HD
ATOM     13  H   UNL     1       6.032   2.421  -0.058  0.00  0.00    +0.176 HD
ENDROOT
BRANCH   1  19
ATOM     14  C   UNL     1       0.094  -0.679   1.606  0.00  0.00    +0.044 C 
ATOM     15  C   UNL     1       0.509   0.644   1.016  0.00  0.00    -0.046 A 
ATOM     16  C   UNL     1      -0.446   1.497   0.493  0.00  0.00    +0.004 A 
ATOM     17  C   UNL     1      -0.069   2.712  -0.049  0.00  0.00    +0.002 A 
ATOM     18  C   UNL     1       1.263   3.077  -0.071  0.00  0.00    +0.023 A 
ATOM     19  C   UNL     1       2.224   2.222   0.452  0.00  0.00    +0.036 A 
ATOM     20  C   UNL     1       1.842   1.002   0.996  0.00  0.00    -0.026 A 
ATOM     21  C   UNL     1       2.882   0.071   1.565  0.00  0.00    +0.046 C 
ENDBRANCH   1  19
BRANCH  11  22
ATOM     22  N   UNL     1       7.546   3.615   0.318  0.00  0.00    -0.186 NA
ATOM     23  C   UNL     1       8.462   2.650   0.274  0.00  0.00    +0.176 C 
BRANCH  23  24
ATOM     24  C   UNL     1       8.103   1.371  -0.123  0.00  0.00    +0.148 A 
ATOM     25  C   UNL     1       8.980   0.195  -0.167  0.00  0.00    +0.051 A 
ATOM     26  C   UNL     1       8.214  -0.837  -0.611  0.00  0.00    +0.050 A 
ATOM     27  C   UNL     1       6.916  -0.333  -0.846  0.00  0.00    +0.136 A 
ATOM     28  O   UNL     1       6.882   0.977  -0.548  0.00  0.00    -0.454 OA
BRANCH  27  29
ATOM     29  C   UNL     1       5.783  -1.115  -1.339  0.00  0.00    +0.019 A 
ATOM     30  C   UNL     1       4.524  -0.511  -1.507  0.00  0.00    +0.014 A 
ATOM     31  C   UNL     1       3.465  -1.256  -1.970  0.00  0.00    +0.035 A 
ATOM     32  C   UNL     1       3.634  -2.599  -2.273  0.00  0.00    +0.144 A 
ATOM     33  C   UNL     1       4.872  -3.206  -2.111  0.00  0.00    +0.072 A 
ATOM     34  C   UNL     1       5.947  -2.476  -1.653  0.00  0.00    +0.033 A 
ATOM     35 CL   UNL     1       5.068  -4.887  -2.495  0.00  0.00    -0.081 Cl
BRANCH  32  36
ATOM     36  N   UNL     1       2.487  -3.390  -2.771  0.00  0.00    +0.058 N 
ATOM     37  O   UNL     1       1.311  -2.819  -2.926  0.00  0.00    -0.126 OA
ATOM     38  O   UNL     1       2.643  -4.666  -3.059  0.00  0.00    -0.126 OA
ENDBRANCH  32  36
ENDBRANCH  27  29
ENDBRANCH  23  24
ENDBRANCH  11  22
TORSDOF 5
