REMARK  Name = ZINC09463694
REMARK  3 active torsions:
REMARK  status: ('A' for Active; 'I' for Inactive)
REMARK    1  A    between atoms: C_1  and  C_2
REMARK    2  A    between atoms: C_5  and  C_7
REMARK    3  A    between atoms: C_20  and  C_22
REMARK                            x       y       z     vdW  Elec       q    Type
REMARK                         _______ _______ _______ _____ _____    ______ ____
ROOT
ATOM      1  C   UNL     1      -3.639   2.600   3.117  0.00  0.00    +0.103 C 
ATOM      2  N   UNL     1      -3.890   3.003   4.322  0.00  0.00    -0.181 NA
ATOM      3  N   UNL     1      -5.221   3.317   4.531  0.00  0.00    -0.205 N 
ATOM      4  C   UNL     1      -6.009   2.867   3.361  0.00  0.00    +0.136 C 
ATOM      5  C   UNL     1      -4.925   2.571   2.316  0.00  0.00    +0.090 C 
ATOM      6  C   UNL     1      -6.872   4.033   2.957  0.00  0.00    +0.018 A 
ATOM      7  C   UNL     1      -7.473   4.029   1.712  0.00  0.00    +0.024 A 
ATOM      8  C   UNL     1      -8.303   5.068   1.334  0.00  0.00    +0.018 A 
ATOM      9  C   UNL     1      -8.531   6.115   2.209  0.00  0.00    +0.019 A 
ATOM     10  C   UNL     1      -7.927   6.127   3.447  0.00  0.00    +0.047 A 
ATOM     11  C   UNL     1      -7.081   5.087   3.834  0.00  0.00    +0.129 A 
ATOM     12  O   UNL     1      -6.503   5.177   5.059  0.00  0.00    -0.465 OA
ATOM     13  C   UNL     1      -5.865   4.034   5.639  0.00  0.00    +0.310 C 
ATOM     14 BR   UNL     1      -9.121   5.058  -0.370  0.00  0.00    -0.050 Br
ENDROOT
BRANCH  13  15
ATOM     15  C   UNL     1      -4.830   4.472   6.643  0.00  0.00    +0.015 A 
ATOM     16  C   UNL     1      -5.168   4.585   7.979  0.00  0.00    +0.012 A 
ATOM     17  C   UNL     1      -4.220   4.987   8.901  0.00  0.00    +0.042 A 
ATOM     18  C   UNL     1      -2.931   5.277   8.488  0.00  0.00    +0.158 A 
ATOM     19  C   UNL     1      -2.592   5.163   7.149  0.00  0.00    +0.159 A 
ATOM     20  C   UNL     1      -3.542   4.755   6.228  0.00  0.00    +0.050 A 
ATOM     21  F   UNL     1      -1.335   5.446   6.743  0.00  0.00    -0.202 F 
ATOM     22  F   UNL     1      -2.005   5.669   9.389  0.00  0.00    -0.202 F 
ENDBRANCH  13  15
BRANCH   1  27
ATOM     23  C   UNL     1      -0.013   1.086   0.008  0.00  0.00    +0.086 C 
ATOM     24  C   UNL     1      -0.718   1.572   1.248  0.00  0.00    +0.103 A 
ATOM     25  C   UNL     1      -0.132   1.835   2.433  0.00  0.00    +0.045 A 
ATOM     26  C   UNL     1      -1.146   2.261   3.311  0.00  0.00    +0.051 A 
ATOM     27  C   UNL     1      -2.313   2.235   2.605  0.00  0.00    +0.151 A 
ATOM     28  O   UNL     1      -2.034   1.820   1.353  0.00  0.00    -0.459 OA
ENDBRANCH   1  27
TORSDOF 2
