REMARK  Name = ZINC20881715
REMARK  13 active torsions:
REMARK  status: ('A' for Active; 'I' for Inactive)
REMARK    1  A    between atoms: C_1  and  C_2
REMARK    2  A    between atoms: C_2  and  C_3
REMARK    3  A    between atoms: C_3  and  C_5
REMARK    4  A    between atoms: C_3  and  O_6
REMARK    5  A    between atoms: O_6  and  C_7
REMARK    6  A    between atoms: C_12  and  C_13
REMARK    7  A    between atoms: C_18  and  C_23
REMARK    8  A    between atoms: C_25  and  O_33
REMARK    9  A    between atoms: C_26  and  O_31
REMARK   10  A    between atoms: C_27  and  O_29
REMARK   11  A    between atoms: O_29  and  C_30
REMARK   12  A    between atoms: O_31  and  C_32
REMARK   13  A    between atoms: O_33  and  C_34
REMARK                            x       y       z     vdW  Elec       q    Type
REMARK                         _______ _______ _______ _____ _____    ______ ____
ROOT
ATOM      1  C   UNL     1       1.632   9.292  -2.915  0.00  0.00    +0.139 C 
ATOM      2  C   UNL     1       1.052   8.393  -1.849  0.00  0.00    +0.037 C 
ATOM      3  C   UNL     1      -0.177   7.851  -1.857  0.00  0.00    +0.017 C 
ATOM      4  C   UNL     1      -0.636   6.962  -0.714  0.00  0.00    +0.059 C 
ATOM      5  C   UNL     1       0.555   6.207  -0.127  0.00  0.00    +0.032 C 
ATOM      6  C   UNL     1       1.568   7.245   0.372  0.00  0.00    +0.088 C 
ATOM      7  C   UNL     1       1.939   8.135  -0.776  0.00  0.00    +0.163 C 
ATOM      8  O   UNL     1       3.038   8.653  -0.786  0.00  0.00    -0.292 OA
ATOM      9  N   UNL     1      -1.105   8.043  -2.830  0.00  0.00    -0.316 N 
ATOM     10  C   UNL     1      -0.857   7.957  -4.197  0.00  0.00    +0.052 A 
ATOM     11  C   UNL     1      -1.470   7.015  -5.004  0.00  0.00    +0.025 A 
ATOM     12  C   UNL     1      -1.241   7.040  -6.369  0.00  0.00    +0.002 A 
ATOM     13  C   UNL     1      -0.407   7.998  -6.918  0.00  0.00    +0.002 A 
ATOM     14  C   UNL     1       0.225   8.925  -6.108  0.00  0.00    +0.025 A 
ATOM     15  C   UNL     1       0.013   8.890  -4.738  0.00  0.00    +0.049 A 
ATOM     16  N   UNL     1       0.667   9.773  -3.882  0.00  0.00    -0.331 N 
ATOM     17  H   UNL     1      -2.143   8.286  -2.560  0.00  0.00    +0.152 HD
ATOM     18  H   UNL     1       0.443  10.847  -3.947  0.00  0.00    +0.147 HD
ENDROOT
BRANCH   1  24
ATOM     19  C   UNL     1       3.638   9.215  -4.417  0.00  0.00    +0.126 A 
ATOM     20  C   UNL     1       4.627   8.513  -5.091  0.00  0.00    +0.046 A 
ATOM     21  C   UNL     1       4.681   7.136  -4.996  0.00  0.00    +0.004 A 
ATOM     22  C   UNL     1       3.751   6.457  -4.230  0.00  0.00    +0.001 A 
ATOM     23  C   UNL     1       2.768   7.155  -3.553  0.00  0.00    +0.009 A 
ATOM     24  C   UNL     1       2.706   8.532  -3.649  0.00  0.00    +0.019 A 
BRANCH  19  25
ATOM     25  O   UNL     1       3.583  10.570  -4.509  0.00  0.00    -0.489 OA
BRANCH  25  26
ATOM     26  C   UNL     1       4.498  11.197  -5.410  0.00  0.00    +0.170 C 
ATOM     27  C   UNL     1       5.840  11.411  -4.707  0.00  0.00    +0.052 C 
BRANCH  26  29
ATOM     28  C   UNL     1       2.655  12.326  -6.663  0.00  0.00    +0.007 C 
ATOM     29  C   UNL     1       3.933  12.548  -5.852  0.00  0.00    +0.041 C 
ENDBRANCH  26  29
ENDBRANCH  25  26
ENDBRANCH  19  25
ENDBRANCH   1  24
BRANCH   5  30
ATOM     30  C   UNL     1       0.098   5.347   1.023  0.00  0.00    -0.036 A 
ATOM     31  C   UNL     1      -0.514   5.928   2.118  0.00  0.00    +0.053 A 
ATOM     32  C   UNL     1      -0.936   5.139   3.178  0.00  0.00    +0.165 A 
ATOM     33  C   UNL     1      -0.747   3.763   3.137  0.00  0.00    +0.204 A 
ATOM     34  C   UNL     1      -0.127   3.184   2.036  0.00  0.00    +0.165 A 
ATOM     35  C   UNL     1       0.292   3.979   0.980  0.00  0.00    +0.053 A 
BRANCH  34  36
ATOM     36  O   UNL     1       0.064   1.838   1.993  0.00  0.00    -0.491 OA
ATOM     37  C   UNL     1       0.703   1.310   0.829  0.00  0.00    +0.277 C 
ENDBRANCH  34  36
BRANCH  33  38
ATOM     38  O   UNL     1      -1.164   2.986   4.173  0.00  0.00    -0.488 OA
ATOM     39  C   UNL     1      -0.230   2.758   5.230  0.00  0.00    +0.277 C 
ENDBRANCH  33  38
BRANCH  32  40
ATOM     40  O   UNL     1      -1.538   5.712   4.255  0.00  0.00    -0.491 OA
ATOM     41  C   UNL     1      -1.703   7.131   4.227  0.00  0.00    +0.277 C 
ENDBRANCH  32  40
ENDBRANCH   5  30
TORSDOF 8
