REMARK  Name = ZINC13978552
REMARK  10 active torsions:
REMARK  status: ('A' for Active; 'I' for Inactive)
REMARK    1  A    between atoms: C_1  and  C_2
REMARK    2  A    between atoms: C_2  and  C_3
REMARK    3  A    between atoms: C_6  and  O_10
REMARK    4  A    between atoms: O_10  and  C_11
REMARK    5  A    between atoms: C_11  and  C_12
REMARK    6  A    between atoms: N_14  and  C_15
REMARK    7  A    between atoms: C_15  and  N_17
REMARK    8  A    between atoms: N_17  and  N_18
REMARK    9  A    between atoms: C_19  and  C_21
REMARK   10  A    between atoms: C_26  and  N_27
REMARK                            x       y       z     vdW  Elec       q    Type
REMARK                         _______ _______ _______ _____ _____    ______ ____
ROOT
ATOM      1  C   UNL     1       7.014  -4.579   7.509  0.00  0.00    +0.153 C 
ATOM      2  S   UNL     1       6.186  -5.013   8.944  0.00  0.00    -0.017 S 
ENDROOT
BRANCH   1   5
ATOM      3  C   UNL     1       4.992  -4.584   6.342  0.00  0.00    +0.256 C 
ATOM      4  O   UNL     1       4.406  -4.891   7.357  0.00  0.00    -0.272 OA
ATOM      5  N   UNL     1       6.329  -4.411   6.361  0.00  0.00    -0.264 N 
ATOM      6  H   UNL     1       6.798  -4.165   5.548  0.00  0.00    +0.157 HD
BRANCH   3   7
ATOM      7  C   UNL     1       4.226  -4.395   5.058  0.00  0.00    +0.325 C 
BRANCH   7   8
ATOM      8  O   UNL     1       2.837  -4.633   5.292  0.00  0.00    -0.482 OA
BRANCH   8  12
ATOM      9  C   UNL     1       0.298  -4.241   2.063  0.00  0.00    -0.046 A 
ATOM     10  C   UNL     1       1.655  -4.025   1.905  0.00  0.00    +0.007 A 
ATOM     11  C   UNL     1       2.507  -4.155   2.985  0.00  0.00    +0.047 A 
ATOM     12  C   UNL     1       2.001  -4.503   4.229  0.00  0.00    +0.135 A 
ATOM     13  C   UNL     1       0.639  -4.720   4.385  0.00  0.00    +0.060 A 
ATOM     14  C   UNL     1      -0.210  -4.583   3.303  0.00  0.00    +0.022 A 
ATOM     15 BR   UNL     1      -0.056  -5.196   6.078  0.00  0.00    -0.047 Br
BRANCH   9  17
ATOM     16  C   UNL     1      -1.123  -2.654   0.795  0.00  0.00    +0.009 C 
ATOM     17  C   UNL     1      -0.629  -4.099   0.883  0.00  0.00    +0.032 C 
ENDBRANCH   9  17
ENDBRANCH   8  12
ENDBRANCH   7   8
ENDBRANCH   3   7
ENDBRANCH   1   5
BRANCH   1  18
ATOM     18  N   UNL     1       8.350  -4.406   7.529  0.00  0.00    -0.245 N 
ATOM     19  H   UNL     1       8.843  -4.528   8.355  0.00  0.00    +0.172 HD
BRANCH  18  20
ATOM     20  N   UNL     1       9.027  -4.051   6.355  0.00  0.00    -0.231 N 
ATOM     21  C   UNL     1      10.364  -3.878   6.374  0.00  0.00    +0.262 C 
ATOM     22  O   UNL     1      10.982  -4.030   7.410  0.00  0.00    -0.269 OA
ATOM     23  H   UNL     1       8.534  -3.930   5.528  0.00  0.00    +0.173 HD
BRANCH  21  24
ATOM     24  C   UNL     1      11.079  -3.503   5.135  0.00  0.00    +0.068 A 
ATOM     25  C   UNL     1      10.941  -4.281   3.984  0.00  0.00    +0.015 A 
ATOM     26  C   UNL     1      11.610  -3.925   2.831  0.00  0.00    +0.001 A 
ATOM     27  C   UNL     1      12.417  -2.801   2.815  0.00  0.00    +0.002 A 
ATOM     28  C   UNL     1      12.557  -2.026   3.952  0.00  0.00    +0.033 A 
ATOM     29  C   UNL     1      11.889  -2.368   5.110  0.00  0.00    +0.138 A 
BRANCH  29  30
ATOM     30  N   UNL     1      12.036  -1.534   6.324  0.00  0.00    +0.057 N 
ATOM     31  O   UNL     1      12.831  -0.623   6.340  0.00  0.00    -0.126 OA
ATOM     32  O   UNL     1      11.360  -1.764   7.300  0.00  0.00    -0.126 OA
ENDBRANCH  29  30
ENDBRANCH  21  24
ENDBRANCH  18  20
ENDBRANCH   1  18
TORSDOF 9
