REMARK  Name = ZINC09065229
REMARK  6 active torsions:
REMARK  status: ('A' for Active; 'I' for Inactive)
REMARK    1  A    between atoms: C_1  and  N_51
REMARK    2  A    between atoms: C_9  and  O_30
REMARK    3  A    between atoms: C_11  and  C_14
REMARK    4  A    between atoms: C_17  and  O_20
REMARK    5  A    between atoms: O_20  and  C_21
REMARK    6  A    between atoms: C_21  and  C_23
REMARK                            x       y       z     vdW  Elec       q    Type
REMARK                         _______ _______ _______ _____ _____    ______ ____
ROOT
ATOM      1  C   UNL     1      -3.957   8.484  -1.305  0.00  0.00    -0.096 C 
ATOM      2  C   UNL     1      -2.755   7.114   0.290  0.00  0.00    -0.074 C 
ATOM      3  C   UNL     1      -2.657   5.690   0.845  0.00  0.00    +0.018 C 
ATOM      4  C   UNL     1      -2.171   4.775  -0.274  0.00  0.00    -0.027 A 
ATOM      5  C   UNL     1      -2.253   5.183  -1.563  0.00  0.00    -0.021 A 
ATOM      6  S   UNL     1      -1.595   3.836  -2.508  0.00  0.00    -0.080 S 
ATOM      7  C   UNL     1      -1.227   2.765  -1.224  0.00  0.00    +0.080 A 
ATOM      8  C   UNL     1      -1.605   3.457  -0.065  0.00  0.00    +0.067 A 
ATOM      9  C   UNL     1      -1.401   2.766   1.234  0.00  0.00    +0.220 C 
ATOM     10  N   UNL     1      -0.700   1.666   1.235  0.00  0.00    -0.223 NA
ATOM     11  C   UNL     1      -0.021   1.113   0.070  0.00  0.00    +0.224 C 
ATOM     12  N   UNL     1      -0.694   1.500  -1.185  0.00  0.00    -0.313 N 
ATOM     13  C   UNL     1      -2.792   6.490  -2.051  0.00  0.00    -0.036 C 
ATOM     14  H   UNL     1      -0.755   0.896  -1.940  0.00  0.00    +0.149 HD
ATOM     15  N   UNL     1      -3.567   7.104  -0.945  0.00  0.00    +0.381 N 
ATOM     16  H   UNL     1      -4.415   6.548  -0.782  0.00  0.00    -0.082 HD
ENDROOT
BRANCH  11  17
ATOM     17  C   UNL     1       1.399   1.616   0.042  0.00  0.00    -0.005 A 
ATOM     18  C   UNL     1       2.058   1.757  -1.165  0.00  0.00    +0.011 A 
ATOM     19  C   UNL     1       3.358   2.224  -1.193  0.00  0.00    +0.047 A 
ATOM     20  C   UNL     1       4.006   2.541  -0.008  0.00  0.00    +0.132 A 
ATOM     21  C   UNL     1       3.344   2.393   1.203  0.00  0.00    +0.047 A 
ATOM     22  C   UNL     1       2.042   1.931   1.225  0.00  0.00    +0.011 A 
BRANCH  20  23
ATOM     23  O   UNL     1       5.287   2.994  -0.032  0.00  0.00    -0.422 OA
BRANCH  23  24
ATOM     24  C   UNL     1       6.235   2.174   0.461  0.00  0.00    +0.346 C 
ATOM     25  O   UNL     1       5.944   1.046   0.804  0.00  0.00    -0.244 OA
BRANCH  24  26
ATOM     26  C   UNL     1       7.628   2.647   0.585  0.00  0.00    +0.078 A 
ATOM     27  C   UNL     1       7.966   3.944   0.192  0.00  0.00    +0.016 A 
ATOM     28  C   UNL     1       9.269   4.380   0.310  0.00  0.00    +0.001 A 
ATOM     29  C   UNL     1      10.242   3.536   0.819  0.00  0.00    +0.001 A 
ATOM     30  C   UNL     1       9.916   2.251   1.210  0.00  0.00    +0.021 A 
ATOM     31  C   UNL     1       8.614   1.802   1.102  0.00  0.00    +0.055 A 
ATOM     32 CL   UNL     1       8.204   0.191   1.601  0.00  0.00    -0.083 Cl
ENDBRANCH  24  26
ENDBRANCH  23  24
ENDBRANCH  20  23
ENDBRANCH  11  17
BRANCH   9  33
ATOM     33  O   UNL     1      -1.925   3.261   2.379  0.00  0.00    -0.492 OA
ATOM     34  H   UNL     1      -1.730   2.731   3.163  0.00  0.00    +0.294 HD
ENDBRANCH   9  33
TORSDOF 5
