REMARK  Name = ZINC64344079
REMARK  9 active torsions:
REMARK  status: ('A' for Active; 'I' for Inactive)
REMARK    1  A    between atoms: C_1  and  C_2
REMARK    2  A    between atoms: C_2  and  C_4
REMARK    3  A    between atoms: C_9  and  N_10
REMARK    4  A    between atoms: C_11  and  C_13
REMARK    5  A    between atoms: C_13  and  N_14
REMARK    6  A    between atoms: N_14  and  C_15
REMARK    7  A    between atoms: C_15  and  C_16
REMARK    8  A    between atoms: C_15  and  C_17
REMARK    9  A    between atoms: C_15  and  C_18
REMARK                            x       y       z     vdW  Elec       q    Type
REMARK                         _______ _______ _______ _____ _____    ______ ____
ROOT
ATOM      1  N   UNL     1       0.017  -2.745  -0.194  0.00  0.00    -0.286 N 
ATOM      2  C   UNL     1       0.074  -4.076  -0.398  0.00  0.00    +0.200 C 
ATOM      3  O   UNL     1      -0.946  -4.706  -0.580  0.00  0.00    -0.278 OA
ATOM      4  H   UNL     1       0.835  -2.232  -0.105  0.00  0.00    +0.155 HD
ENDROOT
BRANCH   1  10
ATOM      5  C   UNL     1      -1.439  -1.125   0.874  0.00  0.00    +0.042 A 
ATOM      6  C   UNL     1      -2.684  -0.483   0.947  0.00  0.00    +0.062 A 
ATOM      7  C   UNL     1      -3.685  -0.820   0.061  0.00  0.00    +0.167 A 
ATOM      8  C   UNL     1      -3.462  -1.800  -0.911  0.00  0.00    +0.168 A 
ATOM      9  C   UNL     1      -2.235  -2.439  -0.990  0.00  0.00    +0.073 A 
ATOM     10  C   UNL     1      -1.218  -2.106  -0.109  0.00  0.00    +0.048 A 
ATOM     11  O   UNL     1      -4.599  -1.943  -1.651  0.00  0.00    -0.453 OA
ATOM     12  C   UNL     1      -5.647  -1.342  -0.868  0.00  0.00    +0.466 C 
ATOM     13  O   UNL     1      -4.962  -0.354  -0.076  0.00  0.00    -0.453 OA
BRANCH   5  15
ATOM     14  C   UNL     1      -0.571   0.365   2.785  0.00  0.00    +0.091 C 
ATOM     15  C   UNL     1      -0.373  -0.770   1.813  0.00  0.00    +0.162 C 
ATOM     16  O   UNL     1       0.670  -1.390   1.809  0.00  0.00    -0.292 OA
ENDBRANCH   5  15
ENDBRANCH   1  10
BRANCH   2  17
ATOM     17  C   UNL     1       1.406  -4.781  -0.400  0.00  0.00    +0.016 C 
BRANCH  17  18
ATOM     18  N   UNL     1       1.201  -6.215  -0.642  0.00  0.00    +0.391 N 
ATOM     19  H   UNL     1       0.618  -6.599   0.087  0.00  0.00    -0.084 HD
ATOM     20  H   UNL     1       0.751  -6.344  -1.536  0.00  0.00    -0.084 HD
BRANCH  18  21
ATOM     21  C   UNL     1       2.499  -6.902  -0.644  0.00  0.00    -0.047 C 
ATOM     22  C   UNL     1       3.383  -6.320  -1.749  0.00  0.00    -0.006 C 
ATOM     23  C   UNL     1       3.182  -6.707   0.712  0.00  0.00    -0.006 C 
BRANCH  21  24
ATOM     24  C   UNL     1       2.288  -8.374  -0.892  0.00  0.00    -0.055 A 
ATOM     25  C   UNL     1       1.010  -8.866  -1.080  0.00  0.00    +0.006 A 
ATOM     26  C   UNL     1       0.811 -10.214  -1.308  0.00  0.00    +0.050 A 
ATOM     27  C   UNL     1       1.895 -11.077  -1.349  0.00  0.00    +0.166 A 
ATOM     28  C   UNL     1       3.182 -10.582  -1.160  0.00  0.00    +0.166 A 
ATOM     29  C   UNL     1       3.374  -9.228  -0.937  0.00  0.00    +0.051 A 
ATOM     30  O   UNL     1       4.066 -11.619  -1.246  0.00  0.00    -0.453 OA
ATOM     31  C   UNL     1       3.275 -12.812  -1.082  0.00  0.00    +0.466 C 
ATOM     32  O   UNL     1       1.971 -12.425  -1.554  0.00  0.00    -0.453 OA
ENDBRANCH  21  24
ENDBRANCH  18  21
ENDBRANCH  17  18
ENDBRANCH   2  17
TORSDOF 6
