REMARK  Name = ZINC13016648
REMARK  8 active torsions:
REMARK  status: ('A' for Active; 'I' for Inactive)
REMARK    1  A    between atoms: C_1  and  C_2
REMARK    2  A    between atoms: C_5  and  N_8
REMARK    3  A    between atoms: C_9  and  C_11
REMARK    4  A    between atoms: C_11  and  C_12
REMARK    5  A    between atoms: N_18  and  N_19
REMARK    6  A    between atoms: C_26  and  C_30
REMARK    7  A    between atoms: C_27  and  C_28
REMARK    8  A    between atoms: C_27  and  C_29
REMARK                            x       y       z     vdW  Elec       q    Type
REMARK                         _______ _______ _______ _____ _____    ______ ____
ROOT
ATOM      1  C   UNL     1      -6.072   2.880  -0.242  0.00  0.00    +0.149 C 
ATOM      2  C   UNL     1      -7.418   3.586  -0.279  0.00  0.00    +0.233 C 
ATOM      3  O   UNL     1      -7.723   4.345  -1.174  0.00  0.00    -0.274 OA
ATOM      4  N   UNL     1      -8.235   3.322   0.727  0.00  0.00    -0.263 N 
ATOM      5  C   UNL     1      -7.893   2.460   1.747  0.00  0.00    +0.183 C 
ATOM      6  N   UNL     1      -8.611   2.117   2.794  0.00  0.00    -0.127 NA
ATOM      7  S   UNL     1      -6.247   1.918   1.313  0.00  0.00    -0.075 S 
ATOM      8  H   UNL     1      -9.105   3.750   0.747  0.00  0.00    +0.157 HD
ENDROOT
BRANCH   6   9
ATOM      9  N   UNL     1      -8.091   1.219   3.736  0.00  0.00    -0.156 NA
ATOM     10  C   UNL     1      -8.797   0.881   4.766  0.00  0.00    +0.048 C 
ATOM     11  C   UNL     1      -8.405  -0.078   5.880  0.00  0.00    +0.057 C 
ATOM     12  C   UNL     1      -9.628  -0.091   6.847  0.00  0.00    +0.001 C 
ATOM     13  C   UNL     1     -10.732  -0.855   6.053  0.00  0.00    +0.005 C 
ATOM     14  C   UNL     1     -11.115   0.106   4.904  0.00  0.00    +0.013 C 
ATOM     15  C   UNL     1     -10.213   1.359   5.122  0.00  0.00    +0.013 C 
ATOM     16  C   UNL     1     -10.129   1.389   6.689  0.00  0.00    -0.021 C 
ATOM     17  C   UNL     1      -9.098   2.402   7.191  0.00  0.00    +0.012 C 
ATOM     18  C   UNL     1     -11.499   1.604   7.334  0.00  0.00    +0.012 C 
ATOM     19  C   UNL     1     -10.676   2.643   4.432  0.00  0.00    +0.018 C 
ENDBRANCH   6   9
BRANCH   1  20
ATOM     20  C   UNL     1      -4.921   3.883  -0.147  0.00  0.00    +0.120 C 
BRANCH  20  22
ATOM     21  N   UNL     1      -2.456   3.823   0.044  0.00  0.00    -0.285 N 
ATOM     22  C   UNL     1      -3.614   3.140  -0.050  0.00  0.00    +0.219 C 
ATOM     23  O   UNL     1      -3.604   1.927  -0.056  0.00  0.00    -0.275 OA
ATOM     24  H   UNL     1      -2.469   4.790   0.126  0.00  0.00    +0.155 HD
BRANCH  21  29
ATOM     25  C   UNL     1       2.490   1.047  -0.040  0.00  0.00    +0.044 C 
ATOM     26  C   UNL     1       1.177   1.784  -0.018  0.00  0.00    -0.050 A 
ATOM     27  C   UNL     1       1.044   2.936   0.737  0.00  0.00    +0.005 A 
ATOM     28  C   UNL     1      -0.160   3.611   0.764  0.00  0.00    +0.023 A 
ATOM     29  C   UNL     1      -1.236   3.138   0.024  0.00  0.00    +0.033 A 
ATOM     30  C   UNL     1      -1.100   1.982  -0.733  0.00  0.00    +0.023 A 
ATOM     31  C   UNL     1       0.106   1.308  -0.752  0.00  0.00    +0.005 A 
ENDBRANCH  21  29
ENDBRANCH  20  22
ENDBRANCH   1  20
TORSDOF 4
