REMARK  Name = ZINC23732751
REMARK  5 active torsions:
REMARK  status: ('A' for Active; 'I' for Inactive)
REMARK    1  A    between atoms: C_3  and  C_6
REMARK    2  A    between atoms: C_6  and  C_8
REMARK    3  A    between atoms: C_6  and  N_24
REMARK    4  A    between atoms: C_8  and  N_9
REMARK    5  A    between atoms: C_10  and  C_12
REMARK                            x       y       z     vdW  Elec       q    Type
REMARK                         _______ _______ _______ _____ _____    ______ ____
ROOT
ATOM      1  N   UNL     1      -1.240   2.747  -3.659  0.00  0.00    -0.310 N 
ATOM      2  C   UNL     1      -1.962   3.401  -4.590  0.00  0.00    +0.279 C 
ATOM      3  O   UNL     1      -2.760   2.796  -5.277  0.00  0.00    -0.267 OA
ATOM      4  H   UNL     1      -0.517   3.296  -3.037  0.00  0.00    +0.149 HD
ENDROOT
BRANCH   2   5
ATOM      5  C   UNL     1      -1.782   4.861  -4.777  0.00  0.00    +0.193 A 
ATOM      6  C   UNL     1      -2.520   5.492  -5.720  0.00  0.00    +0.103 A 
ATOM      7  C   UNL     1      -2.343   6.941  -5.906  0.00  0.00    +0.193 A 
ATOM      8  O   UNL     1      -2.980   7.560  -6.739  0.00  0.00    -0.287 OA
ATOM      9  C   UNL     1      -1.355   7.607  -5.035  0.00  0.00    +0.065 A 
ATOM     10  C   UNL     1      -1.112   8.977  -5.131  0.00  0.00    +0.035 A 
ATOM     11  C   UNL     1      -0.181   9.562  -4.301  0.00  0.00    +0.042 A 
ATOM     12  C   UNL     1       0.509   8.793  -3.372  0.00  0.00    +0.023 A 
ATOM     13  C   UNL     1       0.277   7.439  -3.268  0.00  0.00    +0.048 A 
ATOM     14  C   UNL     1      -0.658   6.827  -4.097  0.00  0.00    +0.140 A 
ATOM     15  O   UNL     1      -0.898   5.505  -4.001  0.00  0.00    -0.450 OA
ATOM     16 CL   UNL     1       0.129  11.267  -4.413  0.00  0.00    -0.084 Cl
ENDBRANCH   2   5
BRANCH   1  17
ATOM     17  C   UNL     1      -1.418   1.304  -3.475  0.00  0.00    +0.097 C 
BRANCH  17  18
ATOM     18  C   UNL     1      -0.487   0.813  -2.365  0.00  0.00    +0.016 C 
BRANCH  18  19
ATOM     19  N   UNL     1      -0.727   1.594  -1.143  0.00  0.00    +0.387 N 
ATOM     20  C   UNL     1      -0.061   0.968   0.028  0.00  0.00    -0.078 C 
ATOM     21  C   UNL     1      -0.808   1.536   1.253  0.00  0.00    -0.020 C 
ATOM     22  C   UNL     1      -2.198   1.949   0.716  0.00  0.00    -0.020 C 
ATOM     23  C   UNL     1      -2.169   1.594  -0.786  0.00  0.00    -0.078 C 
ATOM     24  H   UNL     1      -0.343   2.601  -1.363  0.00  0.00    -0.081 HD
ENDBRANCH  18  19
BRANCH  18  27
ATOM     25  C   UNL     1      -0.594  -2.851  -1.988  0.00  0.00    +0.041 A 
ATOM     26  C   UNL     1       0.039  -1.671  -2.440  0.00  0.00    +0.043 A 
ATOM     27  C   UNL     1      -0.757  -0.644  -2.091  0.00  0.00    +0.093 A 
ATOM     28  O   UNL     1      -1.836  -1.138  -1.462  0.00  0.00    -0.469 OA
ATOM     29  C   UNL     1      -1.742  -2.476  -1.396  0.00  0.00    +0.195 A 
ENDBRANCH  18  27
ENDBRANCH  17  18
ENDBRANCH   1  17
TORSDOF 5
