REMARK  Name = ZINC01418919
REMARK  8 active torsions:
REMARK  status: ('A' for Active; 'I' for Inactive)
REMARK    1  A    between atoms: N_9  and  C_10
REMARK    2  A    between atoms: C_10  and  C_11
REMARK    3  A    between atoms: N_13  and  C_14
REMARK    4  A    between atoms: N_13  and  C_22
REMARK    5  A    between atoms: C_14  and  C_15
REMARK    6  A    between atoms: C_22  and  C_24
REMARK    7  A    between atoms: C_22  and  C_31
REMARK    8  A    between atoms: N_33  and  C_34
REMARK                            x       y       z     vdW  Elec       q    Type
REMARK                         _______ _______ _______ _____ _____    ______ ____
ROOT
ATOM      1  C   UNL     1      -4.285   6.256  -0.177  0.00  0.00    +0.238 C 
ATOM      2  O   UNL     1      -3.680   5.280  -0.567  0.00  0.00    -0.274 OA
ATOM      3  N   UNL     1      -4.855   7.095  -1.065  0.00  0.00    -0.284 N 
ENDROOT
BRANCH   1   4
ATOM      4  C   UNL     1      -4.400   6.532   1.300  0.00  0.00    +0.241 C 
BRANCH   4  13
ATOM      5  C   UNL     1       0.363   5.605   3.348  0.00  0.00    +0.002 A 
ATOM      6  C   UNL     1      -0.041   6.742   2.661  0.00  0.00    +0.002 A 
ATOM      7  C   UNL     1      -1.317   6.849   2.182  0.00  0.00    +0.029 A 
ATOM      8  C   UNL     1      -2.219   5.810   2.382  0.00  0.00    +0.090 A 
ATOM      9  C   UNL     1      -1.815   4.654   3.072  0.00  0.00    +0.113 A 
ATOM     10  C   UNL     1      -0.503   4.572   3.558  0.00  0.00    +0.032 A 
ATOM     11  N   UNL     1      -2.869   3.815   3.118  0.00  0.00    -0.129 NA
ATOM     12  N   UNL     1      -3.882   4.337   2.521  0.00  0.00    -0.064 NA
ATOM     13  N   UNL     1      -3.535   5.608   2.038  0.00  0.00    -0.235 N 
ENDBRANCH   4  13
ENDBRANCH   1   4
BRANCH   3  14
ATOM     14  C   UNL     1      -5.487   8.333  -0.602  0.00  0.00    +0.143 C 
BRANCH  14  15
ATOM     15  C   UNL     1      -6.968   8.111  -0.440  0.00  0.00    -0.030 A 
ATOM     16  C   UNL     1      -7.838   8.492  -1.445  0.00  0.00    +0.008 A 
ATOM     17  C   UNL     1      -9.196   8.284  -1.300  0.00  0.00    +0.038 A 
ATOM     18  C   UNL     1      -9.688   7.704  -0.143  0.00  0.00    +0.123 A 
ATOM     19  C   UNL     1      -8.816   7.327   0.865  0.00  0.00    +0.038 A 
ATOM     20  C   UNL     1      -7.458   7.531   0.715  0.00  0.00    +0.008 A 
ATOM     21  F   UNL     1     -11.016   7.505   0.002  0.00  0.00    -0.205 F 
ENDBRANCH  14  15
ENDBRANCH   3  14
BRANCH   3  22
ATOM     22  C   UNL     1      -4.842   6.768  -2.493  0.00  0.00    +0.166 C 
BRANCH  22  23
ATOM     23  C   UNL     1      -6.277   6.559  -2.981  0.00  0.00    +0.023 C 
ATOM     24  C   UNL     1      -6.269   6.217  -4.476  0.00  0.00    +0.010 C 
ATOM     25  C   UNL     1      -7.714   6.183  -4.974  0.00  0.00    +0.027 C 
ATOM     26  C   UNL     1      -8.560   5.346  -4.060  0.00  0.00    -0.031 C 
ATOM     27  C   UNL     1      -8.215   5.007  -2.860  0.00  0.00    -0.031 C 
ATOM     28  C   UNL     1      -6.915   5.396  -2.218  0.00  0.00    +0.032 C 
ENDBRANCH  22  23
BRANCH  22  29
ATOM     29  C   UNL     1      -4.211   7.901  -3.262  0.00  0.00    +0.238 C 
ATOM     30  O   UNL     1      -4.160   9.010  -2.775  0.00  0.00    -0.273 OA
ATOM     31  N   UNL     1      -3.702   7.680  -4.490  0.00  0.00    -0.284 N 
ATOM     32  H   UNL     1      -3.806   6.811  -4.909  0.00  0.00    +0.155 HD
BRANCH  31  33
ATOM     33  C   UNL     1      -3.022   8.705  -5.161  0.00  0.00    +0.037 A 
ATOM     34  C   UNL     1      -2.280   9.632  -4.443  0.00  0.00    +0.027 A 
ATOM     35  C   UNL     1      -1.609  10.643  -5.103  0.00  0.00    +0.051 A 
ATOM     36  C   UNL     1      -1.675  10.735  -6.484  0.00  0.00    +0.166 A 
ATOM     37  C   UNL     1      -2.420   9.806  -7.208  0.00  0.00    +0.168 A 
ATOM     38  C   UNL     1      -3.087   8.790  -6.545  0.00  0.00    +0.072 A 
ATOM     39  O   UNL     1      -2.326  10.111  -8.535  0.00  0.00    -0.453 OA
ATOM     40  C   UNL     1      -1.855  11.471  -8.585  0.00  0.00    +0.466 C 
ATOM     41  O   UNL     1      -1.116  11.622  -7.359  0.00  0.00    -0.453 OA
ENDBRANCH  31  33
ENDBRANCH  22  29
ENDBRANCH   3  22
TORSDOF 8
