REMARK  Name = ZINC39793602
REMARK  7 active torsions:
REMARK  status: ('A' for Active; 'I' for Inactive)
REMARK    1  A    between atoms: C_3  and  O_27
REMARK    2  A    between atoms: C_6  and  C_7
REMARK    3  A    between atoms: N_11  and  C_15
REMARK    4  A    between atoms: C_15  and  C_16
REMARK    5  A    between atoms: C_16  and  C_17
REMARK    6  A    between atoms: C_23  and  C_25
REMARK    7  A    between atoms: O_27  and  C_28
REMARK                            x       y       z     vdW  Elec       q    Type
REMARK                         _______ _______ _______ _____ _____    ______ ____
ROOT
ATOM      1  C   UNL     1      -1.634  -0.570  -0.926  0.00  0.00    +0.028 C 
ATOM      2  C   UNL     1      -1.639  -1.901  -0.663  0.00  0.00    +0.077 C 
ATOM      3  C   UNL     1      -2.702  -2.901  -0.887  0.00  0.00    +0.258 C 
ATOM      4  O   UNL     1      -3.774  -2.596  -1.376  0.00  0.00    -0.269 OA
ATOM      5  N   UNL     1      -2.430  -4.146  -0.531  0.00  0.00    -0.255 N 
ATOM      6  C   UNL     1      -1.240  -4.479   0.010  0.00  0.00    +0.121 C 
ATOM      7  S   UNL     1      -0.704  -6.020   0.530  0.00  0.00    -0.027 S 
ATOM      8  S   UNL     1      -0.357  -2.928   0.043  0.00  0.00    -0.061 S 
ENDROOT
BRANCH   1  14
ATOM      9  C   UNL     1       0.840  -0.448  -0.714  0.00  0.00    +0.011 A 
ATOM     10  C   UNL     1       1.996   0.284  -0.566  0.00  0.00    +0.046 A 
ATOM     11  C   UNL     1       1.938   1.669  -0.469  0.00  0.00    +0.121 A 
ATOM     12  C   UNL     1       0.712   2.324  -0.522  0.00  0.00    +0.046 A 
ATOM     13  C   UNL     1      -0.451   1.602  -0.670  0.00  0.00    +0.011 A 
ATOM     14  C   UNL     1      -0.397   0.206  -0.768  0.00  0.00    -0.024 A 
BRANCH  11  15
ATOM     15  O   UNL     1       3.081   2.386  -0.323  0.00  0.00    -0.489 OA
BRANCH  15  16
ATOM     16  C   UNL     1       2.947   3.804  -0.198  0.00  0.00    +0.173 C 
ATOM     17  C   UNL     1       2.831   4.429  -1.589  0.00  0.00    +0.044 C 
ATOM     18  C   UNL     1       2.687   5.947  -1.456  0.00  0.00    +0.004 C 
ATOM     19  C   UNL     1       3.916   6.514  -0.742  0.00  0.00    +0.000 C 
ATOM     20  C   UNL     1       4.032   5.889   0.649  0.00  0.00    +0.004 C 
ATOM     21  C   UNL     1       4.176   4.371   0.515  0.00  0.00    +0.044 C 
ENDBRANCH  15  16
ENDBRANCH  11  15
ENDBRANCH   1  14
BRANCH   5  22
ATOM     22  C   UNL     1      -3.443  -5.185  -0.728  0.00  0.00    +0.124 C 
BRANCH  22  23
ATOM     23  C   UNL     1      -3.271  -5.809  -2.115  0.00  0.00    +0.115 C 
BRANCH  23  24
ATOM     24  C   UNL     1      -4.314  -6.878  -2.317  0.00  0.00    +0.220 C 
ATOM     25  O   UNL     1      -5.116  -7.117  -1.440  0.00  0.00    -0.275 OA
ATOM     26  N   UNL     1      -4.355  -7.568  -3.474  0.00  0.00    -0.263 N 
ATOM     27  C   UNL     1      -5.317  -8.555  -3.661  0.00  0.00    +0.188 A 
ATOM     28  N   UNL     1      -6.269  -8.954  -2.841  0.00  0.00    -0.126 NA
ATOM     29  N   UNL     1      -7.078  -9.873  -3.154  0.00  0.00    -0.143 NA
ATOM     30  C   UNL     1      -6.969 -10.449  -4.334  0.00  0.00    +0.118 A 
ATOM     31  S   UNL     1      -5.577  -9.547  -4.999  0.00  0.00    -0.034 S 
ATOM     32  H   UNL     1      -3.714  -7.377  -4.176  0.00  0.00    +0.157 HD
BRANCH  30  33
ATOM     33  C   UNL     1      -7.790 -11.552  -4.951  0.00  0.00    +0.173 C 
ATOM     34 CL   UNL     1      -9.173 -10.836  -5.859  0.00  0.00    -0.118 Cl
ENDBRANCH  30  33
ENDBRANCH  23  24
ENDBRANCH  22  23
ENDBRANCH   5  22
TORSDOF 7
