REMARK  Name = ZINC61048748
REMARK  6 active torsions:
REMARK  status: ('A' for Active; 'I' for Inactive)
REMARK    1  A    between atoms: C_1  and  C_2
REMARK    2  A    between atoms: C_2  and  C_3
REMARK    3  A    between atoms: C_4  and  C_8
REMARK    4  A    between atoms: N_10  and  C_11
REMARK    5  A    between atoms: N_10  and  C_13
REMARK    6  A    between atoms: C_11  and  C_12
REMARK                            x       y       z     vdW  Elec       q    Type
REMARK                         _______ _______ _______ _____ _____    ______ ____
ROOT
ATOM      1  C   UNL     1      -1.495  -0.836  -2.720  0.00  0.00    +0.257 C 
ATOM      2  O   UNL     1      -2.331  -0.524  -1.894  0.00  0.00    -0.269 OA
ATOM      3  N   UNL     1      -1.802  -0.806  -4.033  0.00  0.00    -0.291 N 
ENDROOT
BRANCH   3   4
ATOM      4  C   UNL     1      -3.114  -0.321  -4.468  0.00  0.00    +0.038 C 
ATOM      5  C   UNL     1      -3.797  -1.391  -5.321  0.00  0.00    +0.029 C 
ATOM      6  C   UNL     1      -5.167  -0.884  -5.775  0.00  0.00    -0.008 C 
ATOM      7  C   UNL     1      -6.031  -0.581  -4.549  0.00  0.00    +0.007 C 
ATOM      8  C   UNL     1      -5.348   0.490  -3.696  0.00  0.00    -0.008 C 
ATOM      9  C   UNL     1      -3.978  -0.018  -3.242  0.00  0.00    +0.029 C 
ATOM     10  C   UNL     1      -5.171   1.765  -4.523  0.00  0.00    +0.007 C 
ATOM     11  C   UNL     1      -4.307   1.462  -5.749  0.00  0.00    -0.008 C 
ATOM     12  C   UNL     1      -4.990   0.391  -6.602  0.00  0.00    +0.007 C 
ATOM     13  C   UNL     1      -2.937   0.955  -5.295  0.00  0.00    +0.029 C 
ENDBRANCH   3   4
BRANCH   1  15
ATOM     14  C   UNL     1       0.427  -1.226  -1.024  0.00  0.00    +0.084 A 
ATOM     15  C   UNL     1      -0.150  -1.246  -2.288  0.00  0.00    +0.117 A 
ATOM     16  S   UNL     1       1.207  -1.911  -3.239  0.00  0.00    +0.041 S 
ATOM     17  N   UNL     1       2.277  -2.080  -2.032  0.00  0.00    -0.110 NA
ATOM     18  N   UNL     1       1.662  -1.661  -0.984  0.00  0.00    -0.145 NA
BRANCH  14  20
ATOM     19  C   UNL     1      -0.075   0.765   0.368  0.00  0.00    +0.010 C 
ATOM     20  C   UNL     1      -0.306  -0.738   0.200  0.00  0.00    +0.055 C 
ENDBRANCH  14  20
ENDBRANCH   1  15
BRANCH   3  21
ATOM     21  C   UNL     1      -0.823  -1.259  -5.024  0.00  0.00    +0.105 C 
ATOM     22  C   UNL     1      -0.887  -2.783  -5.144  0.00  0.00    +0.024 C 
ENDBRANCH   3  21
TORSDOF 4
