REMARK  Name = ZINC01381733
REMARK  9 active torsions:
REMARK  status: ('A' for Active; 'I' for Inactive)
REMARK    1  A    between atoms: C_1  and  C_2
REMARK    2  A    between atoms: C_5  and  C_42
REMARK    3  A    between atoms: C_9  and  C_14
REMARK    4  A    between atoms: C_14  and  C_16
REMARK    5  A    between atoms: C_14  and  N_29
REMARK    6  A    between atoms: N_20  and  C_21
REMARK    7  A    between atoms: C_21  and  C_22
REMARK    8  A    between atoms: C_22  and  C_23
REMARK    9  A    between atoms: N_32  and  C_35
REMARK                            x       y       z     vdW  Elec       q    Type
REMARK                         _______ _______ _______ _____ _____    ______ ____
ROOT
ATOM      1  C   UNL     1       0.048  -0.071   4.974  0.00  0.00    +0.162 C 
ENDROOT
BRANCH   1  10
ATOM      2  C   UNL     1      -3.339  -2.905   2.214  0.00  0.00    +0.044 C 
ATOM      3  C   UNL     1      -2.084  -2.779   1.389  0.00  0.00    -0.041 A 
ATOM      4  C   UNL     1      -2.014  -3.360   0.155  0.00  0.00    +0.004 A 
ATOM      5  C   UNL     1      -0.863  -3.249  -0.613  0.00  0.00    +0.005 A 
ATOM      6  C   UNL     1       0.231  -2.552  -0.145  0.00  0.00    -0.026 A 
ATOM      7  C   UNL     1       0.182  -1.952   1.109  0.00  0.00    +0.052 A 
ATOM      8  C   UNL     1      -0.989  -2.062   1.882  0.00  0.00    +0.002 A 
ATOM      9  C   UNL     1      -1.033  -1.423   3.199  0.00  0.00    +0.021 A 
ATOM     10  C   UNL     1       0.059  -0.741   3.624  0.00  0.00    +0.042 A 
ATOM     11  C   UNL     1       1.207  -0.656   2.807  0.00  0.00    +0.254 A 
ATOM     12  O   UNL     1       2.178  -0.038   3.208  0.00  0.00    -0.268 OA
ATOM     13  N   UNL     1       1.260  -1.248   1.601  0.00  0.00    -0.322 N 
ATOM     14  H   UNL     1       2.065  -1.170   1.065  0.00  0.00    +0.169 HD
ATOM     15  C   UNL     1       1.474  -2.440  -0.989  0.00  0.00    +0.046 C 
ENDBRANCH   1  10
BRANCH   1  16
ATOM     16  N   UNL     1       1.124  -0.626   5.805  0.00  0.00    -0.286 NA
ATOM     17  C   UNL     1       0.995  -2.084   5.929  0.00  0.00    +0.104 C 
ATOM     18  C   UNL     1       2.228  -2.644   6.646  0.00  0.00    +0.120 C 
ATOM     19  N   UNL     1       2.395  -1.925   7.918  0.00  0.00    -0.325 N 
ATOM     20  C   UNL     1       2.396  -0.454   7.891  0.00  0.00    +0.120 C 
ATOM     21  C   UNL     1       1.157   0.019   7.124  0.00  0.00    +0.104 C 
BRANCH  19  22
ATOM     22  C   UNL     1       2.550  -2.620   9.121  0.00  0.00    +0.065 A 
ATOM     23  C   UNL     1       3.818  -2.965   9.568  0.00  0.00    +0.026 A 
ATOM     24  C   UNL     1       3.968  -3.651  10.757  0.00  0.00    +0.002 A 
ATOM     25  C   UNL     1       2.856  -3.997  11.503  0.00  0.00    +0.003 A 
ATOM     26  C   UNL     1       1.591  -3.656  11.062  0.00  0.00    +0.040 A 
ATOM     27  C   UNL     1       1.433  -2.963   9.876  0.00  0.00    +0.144 A 
ATOM     28  F   UNL     1       0.197  -2.626   9.448  0.00  0.00    -0.204 F 
ENDBRANCH  19  22
ENDBRANCH   1  16
BRANCH   1  29
ATOM     29  C   UNL     1      -1.280  -0.314   5.643  0.00  0.00    +0.173 A 
ATOM     30  N   UNL     1      -1.682  -1.428   6.204  0.00  0.00    -0.111 NA
ATOM     31  N   UNL     1      -2.871  -1.237   6.663  0.00  0.00    -0.023 NA
ATOM     32  N   UNL     1      -3.237  -0.029   6.410  0.00  0.00    -0.044 NA
ATOM     33  N   UNL     1      -2.282   0.574   5.787  0.00  0.00    -0.227 N 
BRANCH  33  34
ATOM     34  C   UNL     1      -2.287   1.963   5.321  0.00  0.00    +0.152 C 
BRANCH  34  35
ATOM     35  C   UNL     1      -2.848   2.021   3.899  0.00  0.00    +0.058 C 
BRANCH  35  36
ATOM     36  C   UNL     1      -2.853   3.450   3.419  0.00  0.00    -0.046 A 
ATOM     37  C   UNL     1      -3.957   4.250   3.645  0.00  0.00    +0.004 A 
ATOM     38  C   UNL     1      -3.963   5.561   3.205  0.00  0.00    +0.000 A 
ATOM     39  C   UNL     1      -2.863   6.071   2.540  0.00  0.00    +0.000 A 
ATOM     40  C   UNL     1      -1.759   5.271   2.315  0.00  0.00    +0.000 A 
ATOM     41  C   UNL     1      -1.752   3.962   2.759  0.00  0.00    +0.004 A 
ENDBRANCH  35  36
ENDBRANCH  34  35
ENDBRANCH  33  34
ENDBRANCH   1  29
TORSDOF 7
