REMARK  Name = ZINC04217035
REMARK  14 active torsions:
REMARK  status: ('A' for Active; 'I' for Inactive)
REMARK    1  A    between atoms: C_1  and  C_2
REMARK    2  A    between atoms: C_2  and  C_3
REMARK    3  A    between atoms: C_3  and  C_5
REMARK    4  A    between atoms: C_3  and  N_6
REMARK    5  A    between atoms: N_6  and  C_7
REMARK    6  A    between atoms: C_7  and  N_9
REMARK    7  A    between atoms: N_9  and  C_10
REMARK    8  A    between atoms: N_9  and  C_25
REMARK    9  A    between atoms: C_10  and  C_11
REMARK   10  A    between atoms: C_16  and  C_24
REMARK   11  A    between atoms: C_17  and  C_23
REMARK   12  A    between atoms: C_25  and  C_26
REMARK   13  A    between atoms: C_31  and  C_32
REMARK   14  A    between atoms: C_31  and  N_66
REMARK                            x       y       z     vdW  Elec       q    Type
REMARK                         _______ _______ _______ _____ _____    ______ ____
ROOT
ATOM      1  N   UNL     1      -3.416  -3.934  -1.343  0.00  0.00    -0.310 N 
ENDROOT
BRANCH   1   2
ATOM      2  C   UNL     1      -3.089  -4.985  -2.121  0.00  0.00    +0.133 C 
ATOM      3  S   UNL     1      -3.746  -5.123  -3.696  0.00  0.00    -0.019 S 
BRANCH   2   4
ATOM      4  N   UNL     1      -2.244  -5.928  -1.658  0.00  0.00    -0.324 N 
ATOM      5  H   UNL     1      -1.911  -5.877  -0.749  0.00  0.00    +0.148 HD
BRANCH   4   6
ATOM      6  C   UNL     1      -1.830  -7.031  -2.529  0.00  0.00    +0.069 C 
ATOM      7  C   UNL     1      -3.022  -7.957  -2.781  0.00  0.00    +0.028 C 
BRANCH   6   9
ATOM      8  C   UNL     1       0.550  -6.951  -1.776  0.00  0.00    +0.005 C 
ATOM      9  C   UNL     1      -0.706  -7.820  -1.854  0.00  0.00    +0.018 C 
ENDBRANCH   6   9
ENDBRANCH   4   6
ENDBRANCH   2   4
ENDBRANCH   1   2
BRANCH   1  10
ATOM     10  C   UNL     1      -2.750  -3.742  -0.053  0.00  0.00    +0.147 C 
BRANCH  10  11
ATOM     11  C   UNL     1      -1.642  -2.733  -0.204  0.00  0.00    +0.035 A 
ATOM     12  C   UNL     1      -1.866  -1.432   0.105  0.00  0.00    +0.020 A 
ATOM     13  C   UNL     1      -0.768  -0.476  -0.053  0.00  0.00    -0.001 A 
ATOM     14  C   UNL     1      -0.939   0.879   0.250  0.00  0.00    +0.010 A 
ATOM     15  C   UNL     1       0.105   1.745   0.092  0.00  0.00    +0.004 A 
ATOM     16  C   UNL     1       1.335   1.293  -0.368  0.00  0.00    -0.046 A 
ATOM     17  C   UNL     1       1.526  -0.037  -0.673  0.00  0.00    -0.024 A 
ATOM     18  C   UNL     1       0.477  -0.938  -0.519  0.00  0.00    +0.052 A 
ATOM     19  N   UNL     1       0.640  -2.274  -0.817  0.00  0.00    -0.322 N 
ATOM     20  H   UNL     1       1.498  -2.591  -1.139  0.00  0.00    +0.169 HD
ATOM     21  C   UNL     1      -0.374  -3.145  -0.669  0.00  0.00    +0.254 A 
ATOM     22  O   UNL     1      -0.194  -4.319  -0.941  0.00  0.00    -0.268 OA
ATOM     23  C   UNL     1       2.866  -0.514  -1.171  0.00  0.00    +0.046 C 
ATOM     24  C   UNL     1       2.472   2.267  -0.536  0.00  0.00    +0.044 C 
ENDBRANCH  10  11
ENDBRANCH   1  10
BRANCH   1  25
ATOM     25  C   UNL     1      -4.438  -2.983  -1.789  0.00  0.00    +0.092 C 
BRANCH  25  26
ATOM     26  C   UNL     1      -3.761  -1.774  -2.437  0.00  0.00    -0.051 C 
ATOM     27  C   UNL     1      -4.820  -0.779  -2.959  0.00  0.00    -0.016 C 
ATOM     28  C   UNL     1      -4.239  -0.231  -4.279  0.00  0.00    -0.020 C 
ATOM     29  C   UNL     1      -2.878  -0.940  -4.443  0.00  0.00    -0.078 C 
ATOM     30  N   UNL     1      -3.025  -2.157  -3.647  0.00  0.00    +0.382 N 
ATOM     31  H   UNL     1      -3.556  -2.860  -4.174  0.00  0.00    -0.081 HD
BRANCH  30  32
ATOM     32  C   UNL     1      -1.685  -2.724  -3.286  0.00  0.00    -0.082 C 
ATOM     33  C   UNL     1      -1.020  -3.320  -4.528  0.00  0.00    -0.017 C 
ENDBRANCH  30  32
ENDBRANCH  25  26
ENDBRANCH   1  25
TORSDOF 9
