REMARK  Name = ZINC06527083
REMARK  8 active torsions:
REMARK  status: ('A' for Active; 'I' for Inactive)
REMARK    1  A    between atoms: C_3  and  C_6
REMARK    2  A    between atoms: C_7  and  C_8
REMARK    3  A    between atoms: N_10  and  C_11
REMARK    4  A    between atoms: C_11  and  N_13
REMARK    5  A    between atoms: N_13  and  N_14
REMARK    6  A    between atoms: C_15  and  C_17
REMARK    7  A    between atoms: C_17  and  O_18
REMARK    8  A    between atoms: O_18  and  C_19
REMARK                            x       y       z     vdW  Elec       q    Type
REMARK                         _______ _______ _______ _____ _____    ______ ____
ROOT
ATOM      1  N   UNL     1       3.067   7.821   0.013  0.00  0.00    -0.245 N 
ATOM      2  H   UNL     1       2.167   8.181   0.024  0.00  0.00    +0.172 HD
ENDROOT
BRANCH   1   3
ATOM      3  N   UNL     1       3.268   6.435   0.004  0.00  0.00    -0.232 N 
ATOM      4  C   UNL     1       2.209   5.601   0.010  0.00  0.00    +0.267 C 
ATOM      5  O   UNL     1       1.083   6.051   0.023  0.00  0.00    -0.271 OA
ATOM      6  H   UNL     1       4.169   6.075  -0.006  0.00  0.00    +0.173 HD
BRANCH   4   7
ATOM      7  C   UNL     1       2.425   4.109   0.001  0.00  0.00    +0.326 C 
BRANCH   7   8
ATOM      8  O   UNL     1       1.159   3.445   0.009  0.00  0.00    -0.483 OA
BRANCH   8   9
ATOM      9  C   UNL     1       1.176   2.086   0.002  0.00  0.00    +0.121 A 
ATOM     10  C   UNL     1      -0.017   1.377   0.010  0.00  0.00    +0.047 A 
ATOM     11  C   UNL     1       0.002  -0.004   0.002  0.00  0.00    +0.023 A 
ATOM     12  C   UNL     1       1.209  -0.680  -0.013  0.00  0.00    +0.041 A 
ATOM     13  C   UNL     1       2.399   0.025  -0.020  0.00  0.00    +0.023 A 
ATOM     14  C   UNL     1       2.385   1.406  -0.012  0.00  0.00    +0.047 A 
ATOM     15 CL   UNL     1       1.230  -2.416  -0.023  0.00  0.00    -0.084 Cl
ENDBRANCH   8   9
ENDBRANCH   7   8
ENDBRANCH   4   7
ENDBRANCH   1   3
BRANCH   1  16
ATOM     16  C   UNL     1       4.126   8.655   0.008  0.00  0.00    +0.153 C 
ATOM     17  S   UNL     1       3.881  10.350   0.018  0.00  0.00    -0.017 S 
BRANCH  16  20
ATOM     18  C   UNL     1       6.437   8.989  -0.012  0.00  0.00    +0.242 C 
ATOM     19  O   UNL     1       6.263  10.194  -0.005  0.00  0.00    -0.270 OA
ATOM     20  N   UNL     1       5.378   8.155  -0.007  0.00  0.00    -0.263 N 
ATOM     21  H   UNL     1       5.516   7.195  -0.013  0.00  0.00    +0.157 HD
BRANCH  18  23
ATOM     22  C   UNL     1       8.815   9.305  -0.033  0.00  0.00    +0.020 C 
ATOM     23  C   UNL     1       7.749   8.465  -0.027  0.00  0.00    +0.069 C 
BRANCH  22  26
ATOM     24  C   UNL     1      12.483   8.692  -0.070  0.00  0.00    +0.008 A 
ATOM     25  C   UNL     1      11.344   9.457  -0.056  0.00  0.00    +0.015 A 
ATOM     26  C   UNL     1      10.129   8.780  -0.048  0.00  0.00    +0.012 A 
ATOM     27  S   UNL     1      10.660   7.077  -0.054  0.00  0.00    -0.097 S 
ATOM     28  C   UNL     1      12.374   7.337  -0.076  0.00  0.00    +0.046 A 
ENDBRANCH  22  26
ENDBRANCH  18  23
ENDBRANCH  16  20
ENDBRANCH   1  16
TORSDOF 8
