REMARK  Name = ZINC35293018
REMARK  12 active torsions:
REMARK  status: ('A' for Active; 'I' for Inactive)
REMARK    1  A    between atoms: C_1  and  C_2
REMARK    2  A    between atoms: C_2  and  C_3
REMARK    3  A    between atoms: C_3  and  C_5
REMARK    4  A    between atoms: C_3  and  N_6
REMARK    5  A    between atoms: C_7  and  C_9
REMARK    6  A    between atoms: C_9  and  S_10
REMARK    7  A    between atoms: S_10  and  C_11
REMARK    8  A    between atoms: C_22  and  C_25
REMARK    9  A    between atoms: N_28  and  C_29
REMARK   10  A    between atoms: C_29  and  C_30
REMARK   11  A    between atoms: C_29  and  C_31
REMARK   12  A    between atoms: C_29  and  C_32
REMARK                            x       y       z     vdW  Elec       q    Type
REMARK                         _______ _______ _______ _____ _____    ______ ____
ROOT
ATOM      1  C   UNL     1      -6.512   0.860   3.963  0.00  0.00    +0.192 A 
ATOM      2  N   UNL     1      -7.821   0.986   4.129  0.00  0.00    -0.207 NA
ATOM      3  C   UNL     1      -8.325   1.318   5.313  0.00  0.00    +0.127 A 
ATOM      4  C   UNL     1      -7.455   1.534   6.383  0.00  0.00    +0.083 A 
ATOM      5  C   UNL     1      -6.096   1.393   6.168  0.00  0.00    +0.135 A 
ATOM      6  N   UNL     1      -5.662   1.054   4.962  0.00  0.00    -0.210 NA
ATOM      7 CL   UNL     1      -4.971   1.650   7.465  0.00  0.00    -0.062 Cl
ATOM      8  N   UNL     1      -9.693   1.449   5.482  0.00  0.00    -0.312 N 
ATOM      9  C   UNL     1     -10.612   1.214   4.359  0.00  0.00    +0.125 C 
ATOM     10  C   UNL     1     -11.491   2.458   4.176  0.00  0.00    +0.128 C 
ATOM     11  N   UNL     1     -12.050   2.833   5.482  0.00  0.00    -0.280 N 
ATOM     12  C   UNL     1     -11.132   3.068   6.606  0.00  0.00    +0.092 C 
ATOM     13  C   UNL     1     -10.253   1.819   6.790  0.00  0.00    +0.128 C 
ATOM     14  C   UNL     1     -10.252   4.283   6.304  0.00  0.00    +0.030 C 
ATOM     15  C   UNL     1     -13.382   2.961   5.647  0.00  0.00    +0.303 C 
ATOM     16  O   UNL     1     -13.828   3.364   6.704  0.00  0.00    -0.253 OA
ATOM     17  N   UNL     1     -14.219   2.641   4.640  0.00  0.00    -0.294 N 
ATOM     18  H   UNL     1     -13.869   2.251   3.824  0.00  0.00    +0.151 HD
ENDROOT
BRANCH  17  19
ATOM     19  C   UNL     1     -15.657   2.884   4.778  0.00  0.00    +0.028 C 
ATOM     20  C   UNL     1     -15.903   4.378   5.004  0.00  0.00    +0.031 C 
ATOM     21  C   UNL     1     -16.375   2.436   3.504  0.00  0.00    +0.031 C 
ATOM     22  C   UNL     1     -16.195   2.093   5.972  0.00  0.00    +0.031 C 
ENDBRANCH  17  19
BRANCH   1  23
ATOM     23  S   UNL     1      -5.885   0.417   2.377  0.00  0.00    -0.077 S 
BRANCH  23  24
ATOM     24  C   UNL     1      -4.088   0.354   2.616  0.00  0.00    +0.173 C 
BRANCH  24  26
ATOM     25  N   UNL     1      -2.079  -0.126   1.256  0.00  0.00    -0.312 N 
ATOM     26  C   UNL     1      -3.421  -0.019   1.318  0.00  0.00    +0.224 C 
ATOM     27  O   UNL     1      -4.092  -0.223   0.328  0.00  0.00    -0.275 OA
ATOM     28  H   UNL     1      -1.542   0.037   2.048  0.00  0.00    +0.149 HD
BRANCH  25  29
ATOM     29  C   UNL     1      -1.430  -0.489  -0.006  0.00  0.00    +0.070 C 
ATOM     30  C   UNL     1      -1.412  -2.012  -0.151  0.00  0.00    +0.028 C 
BRANCH  29  32
ATOM     31  C   UNL     1      -0.017   1.571   0.006  0.00  0.00    +0.005 C 
ATOM     32  C   UNL     1       0.005   0.041  -0.013  0.00  0.00    +0.018 C 
ENDBRANCH  29  32
ENDBRANCH  25  29
ENDBRANCH  24  26
ENDBRANCH  23  24
ENDBRANCH   1  23
TORSDOF 6
