REMARK  Name = ZINC35745958
REMARK  15 active torsions:
REMARK  status: ('A' for Active; 'I' for Inactive)
REMARK    1  A    between atoms: C_1  and  C_2
REMARK    2  A    between atoms: C_2  and  C_3
REMARK    3  A    between atoms: C_2  and  C_4
REMARK    4  A    between atoms: C_4  and  O_5
REMARK    5  A    between atoms: O_5  and  C_6
REMARK    6  A    between atoms: C_6  and  C_7
REMARK    7  A    between atoms: C_7  and  C_9
REMARK    8  A    between atoms: C_7  and  O_38
REMARK    9  A    between atoms: C_9  and  N_10
REMARK   10  A    between atoms: N_10  and  C_11
REMARK   11  A    between atoms: N_10  and  C_19
REMARK   12  A    between atoms: C_11  and  C_12
REMARK   13  A    between atoms: C_12  and  N_13
REMARK   14  A    between atoms: C_19  and  C_20
REMARK   15  A    between atoms: C_26  and  C_31
REMARK                            x       y       z     vdW  Elec       q    Type
REMARK                         _______ _______ _______ _____ _____    ______ ____
ROOT
ATOM      1  N   UNL     1      -3.848  -6.345  -0.476  0.00  0.00    +0.387 N 
ATOM      2  H   UNL     1      -3.132  -6.117  -1.150  0.00  0.00    -0.081 HD
ENDROOT
BRANCH   1   3
ATOM      3  C   UNL     1      -4.268  -5.124   0.225  0.00  0.00    -0.044 C 
BRANCH   3   4
ATOM      4  C   UNL     1      -3.043  -4.436   0.829  0.00  0.00    +0.124 C 
BRANCH   4   5
ATOM      5  O   UNL     1      -2.512  -5.245   1.881  0.00  0.00    -0.391 OA
ATOM      6  H   UNL     1      -3.134  -5.409   2.603  0.00  0.00    +0.210 HD
ENDBRANCH   4   5
BRANCH   4   7
ATOM      7  C   UNL     1      -3.449  -3.072   1.392  0.00  0.00    +0.189 C 
BRANCH   7   8
ATOM      8  O   UNL     1      -2.287  -2.381   1.851  0.00  0.00    -0.377 OA
BRANCH   8   9
ATOM      9  C   UNL     1      -2.557  -1.089   2.399  0.00  0.00    +0.163 C 
BRANCH   9  11
ATOM     10  C   UNL     1      -1.520   0.986   3.327  0.00  0.00    +0.009 C 
ATOM     11  C   UNL     1      -1.247  -0.444   2.856  0.00  0.00    +0.009 C 
ATOM     12  C   UNL     1      -0.654  -1.256   4.009  0.00  0.00    +0.009 C 
ENDBRANCH   9  11
ENDBRANCH   8   9
ENDBRANCH   7   8
ENDBRANCH   4   7
ENDBRANCH   3   4
ENDBRANCH   1   3
BRANCH   1  13
ATOM     13  C   UNL     1      -3.316  -7.309   0.496  0.00  0.00    -0.063 C 
BRANCH  13  14
ATOM     14  C   UNL     1      -4.346  -7.536   1.605  0.00  0.00    +0.066 C 
BRANCH  14  15
ATOM     15  N   UNL     1      -3.772  -8.415   2.633  0.00  0.00    -0.300 NA
ATOM     16  C   UNL     1      -3.537  -9.765   2.101  0.00  0.00    +0.112 C 
ATOM     17  C   UNL     1      -2.886 -10.628   3.185  0.00  0.00    +0.175 C 
ATOM     18  O   UNL     1      -3.723 -10.641   4.344  0.00  0.00    -0.377 OA
ATOM     19  C   UNL     1      -3.972  -9.343   4.889  0.00  0.00    +0.175 C 
ATOM     20  C   UNL     1      -4.635  -8.466   3.823  0.00  0.00    +0.112 C 
ENDBRANCH  14  15
ENDBRANCH  13  14
ENDBRANCH   1  13
BRANCH   1  21
ATOM     21  C   UNL     1      -5.002  -6.934  -1.168  0.00  0.00    -0.003 C 
BRANCH  21  22
ATOM     22  C   UNL     1      -4.542  -8.090  -2.018  0.00  0.00    +0.094 A 
ATOM     23  N   UNL     1      -5.457  -8.817  -2.708  0.00  0.00    -0.312 N 
ATOM     24  H   UNL     1      -6.396  -8.582  -2.645  0.00  0.00    +0.170 HD
ATOM     25  C   UNL     1      -5.088  -9.857  -3.478  0.00  0.00    +0.260 A 
ATOM     26  O   UNL     1      -5.922 -10.500  -4.092  0.00  0.00    -0.267 OA
ATOM     27  C   UNL     1      -3.700 -10.197  -3.566  0.00  0.00    +0.080 A 
ATOM     28  C   UNL     1      -3.058 -11.265  -4.323  0.00  0.00    +0.004 A 
ATOM     29  C   UNL     1      -1.711 -11.395  -4.251  0.00  0.00    +0.056 A 
ATOM     30  S   UNL     1      -1.227 -10.078  -3.152  0.00  0.00    -0.076 S 
ATOM     31  C   UNL     1      -2.828  -9.390  -2.818  0.00  0.00    +0.116 A 
ATOM     32  N   UNL     1      -3.268  -8.373  -2.081  0.00  0.00    -0.229 NA
BRANCH  28  33
ATOM     33  C   UNL     1      -3.863 -12.191  -5.155  0.00  0.00    -0.016 A 
ATOM     34  C   UNL     1      -4.985 -12.818  -4.617  0.00  0.00    +0.010 A 
ATOM     35  C   UNL     1      -5.731 -13.679  -5.395  0.00  0.00    +0.020 A 
ATOM     36  C   UNL     1      -5.367 -13.919  -6.709  0.00  0.00    +0.041 A 
ATOM     37  C   UNL     1      -4.253 -13.299  -7.248  0.00  0.00    +0.020 A 
ATOM     38  C   UNL     1      -3.503 -12.432  -6.480  0.00  0.00    +0.010 A 
ATOM     39 CL   UNL     1      -6.310 -15.003  -7.684  0.00  0.00    -0.084 Cl
ENDBRANCH  28  33
ENDBRANCH  21  22
ENDBRANCH   1  21
TORSDOF 13
