REMARK  Name = ZINC06198611
REMARK  11 active torsions:
REMARK  status: ('A' for Active; 'I' for Inactive)
REMARK    1  A    between atoms: C_1  and  N_68
REMARK    2  A    between atoms: C_2  and  N_68
REMARK    3  A    between atoms: C_8  and  C_10
REMARK    4  A    between atoms: C_8  and  C_26
REMARK    5  A    between atoms: C_8  and  N_68
REMARK    6  A    between atoms: C_14  and  O_24
REMARK    7  A    between atoms: C_15  and  O_22
REMARK    8  A    between atoms: O_22  and  C_23
REMARK    9  A    between atoms: O_24  and  C_25
REMARK   10  A    between atoms: N_30  and  C_31
REMARK   11  A    between atoms: C_31  and  C_32
REMARK                            x       y       z     vdW  Elec       q    Type
REMARK                         _______ _______ _______ _____ _____    ______ ____
ROOT
ATOM      1  C   UNL     1       4.365   2.912  -1.419  0.00  0.00    +0.039 C 
ENDROOT
BRANCH   1   2
ATOM      2  C   UNL     1       3.523   4.118  -1.747  0.00  0.00    +0.011 A 
ATOM      3  C   UNL     1       2.782   4.710  -0.775  0.00  0.00    +0.017 A 
ATOM      4  C   UNL     1       1.974   5.877  -1.125  0.00  0.00    +0.002 A 
ATOM      5  C   UNL     1       1.191   6.528  -0.163  0.00  0.00    +0.059 A 
ATOM      6  C   UNL     1       0.442   7.626  -0.524  0.00  0.00    +0.162 A 
ATOM      7  C   UNL     1       0.461   8.091  -1.843  0.00  0.00    +0.163 A 
ATOM      8  C   UNL     1       1.231   7.455  -2.800  0.00  0.00    +0.075 A 
ATOM      9  C   UNL     1       1.993   6.346  -2.453  0.00  0.00    +0.053 A 
ATOM     10  N   UNL     1       2.768   5.699  -3.394  0.00  0.00    -0.322 N 
ATOM     11  H   UNL     1       2.776   6.030  -4.337  0.00  0.00    +0.169 HD
ATOM     12  C   UNL     1       3.511   4.629  -3.060  0.00  0.00    +0.251 A 
ATOM     13  O   UNL     1       4.187   4.085  -3.916  0.00  0.00    -0.268 OA
BRANCH   7  14
ATOM     14  O   UNL     1      -0.282   9.174  -2.187  0.00  0.00    -0.491 OA
ATOM     15  C   UNL     1      -0.219   9.598  -3.550  0.00  0.00    +0.277 C 
ENDBRANCH   7  14
BRANCH   6  16
ATOM     16  O   UNL     1      -0.321   8.261   0.406  0.00  0.00    -0.491 OA
ATOM     17  C   UNL     1      -0.295   7.735   1.735  0.00  0.00    +0.277 C 
ENDBRANCH   6  16
ENDBRANCH   1   2
BRANCH   1  18
ATOM     18  C   UNL     1       3.824   1.708  -2.144  0.00  0.00    +0.143 A 
ATOM     19  N   UNL     1       3.999   1.412  -3.409  0.00  0.00    -0.115 NA
ATOM     20  N   UNL     1       3.381   0.307  -3.649  0.00  0.00    -0.023 NA
ATOM     21  N   UNL     1       2.820  -0.112  -2.569  0.00  0.00    -0.044 NA
ATOM     22  N   UNL     1       3.065   0.728  -1.620  0.00  0.00    -0.226 N 
BRANCH  22  23
ATOM     23  C   UNL     1       2.608   0.629  -0.231  0.00  0.00    +0.182 C 
BRANCH  23  24
ATOM     24  C   UNL     1       3.554  -0.249   0.547  0.00  0.00    -0.026 A 
ATOM     25  C   UNL     1       4.630   0.312   1.209  0.00  0.00    +0.005 A 
ATOM     26  C   UNL     1       5.501  -0.494   1.919  0.00  0.00    +0.000 A 
ATOM     27  C   UNL     1       5.290  -1.859   1.975  0.00  0.00    +0.000 A 
ATOM     28  C   UNL     1       4.213  -2.420   1.313  0.00  0.00    +0.000 A 
ATOM     29  C   UNL     1       3.345  -1.614   0.599  0.00  0.00    +0.005 A 
ENDBRANCH  23  24
ENDBRANCH  22  23
ENDBRANCH   1  18
BRANCH   1  31
ATOM     30  C   UNL     1       6.590   1.973  -1.599  0.00  0.00    -0.094 C 
ATOM     31  N   UNL     1       5.752   3.160  -1.868  0.00  0.00    +0.389 N 
ATOM     32  H   UNL     1       5.747   3.343  -2.878  0.00  0.00    -0.080 HD
BRANCH  31  33
ATOM     33  C   UNL     1       6.306   4.338  -1.168  0.00  0.00    -0.068 C 
ATOM     34  C   UNL     1       7.655   4.695  -1.795  0.00  0.00    -0.015 C 
ATOM     35  C   UNL     1       8.233   5.928  -1.097  0.00  0.00    -0.002 C 
ATOM     36  C   UNL     1       8.425   5.627   0.391  0.00  0.00    -0.000 C 
ATOM     37  C   UNL     1       7.076   5.271   1.018  0.00  0.00    -0.002 C 
ATOM     38  C   UNL     1       6.498   4.038   0.319  0.00  0.00    -0.015 C 
ENDBRANCH  31  33
ENDBRANCH   1  31
TORSDOF 8
