REMARK  Name = ZINC14201203
REMARK  3 active torsions:
REMARK  status: ('A' for Active; 'I' for Inactive)
REMARK    1  A    between atoms: C_3  and  N_18
REMARK    2  A    between atoms: C_6  and  C_7
REMARK    3  A    between atoms: C_19  and  C_21
REMARK                            x       y       z     vdW  Elec       q    Type
REMARK                         _______ _______ _______ _____ _____    ______ ____
ROOT
ATOM      1  C   UNL     1      -0.673  -2.201   0.391  0.00  0.00    +0.013 A 
ATOM      2  C   UNL     1      -0.880  -0.842   0.299  0.00  0.00    +0.024 A 
ATOM      3  C   UNL     1       0.197   0.015   0.104  0.00  0.00    +0.034 A 
ATOM      4  C   UNL     1       1.485  -0.496  -0.004  0.00  0.00    +0.024 A 
ATOM      5  C   UNL     1       1.700  -1.854   0.093  0.00  0.00    +0.013 A 
ATOM      6  C   UNL     1       0.620  -2.717   0.288  0.00  0.00    +0.019 A 
ENDROOT
BRANCH   6   7
ATOM      7  C   UNL     1       0.846  -4.175   0.386  0.00  0.00    +0.164 A 
ATOM      8  N   UNL     1       1.980  -4.770   0.676  0.00  0.00    -0.129 NA
ATOM      9  N   UNL     1       1.802  -6.042   0.712  0.00  0.00    -0.134 NA
ATOM     10  C   UNL     1       0.550  -6.320   0.466  0.00  0.00    +0.134 A 
ATOM     11  N   UNL     1      -0.093  -5.164   0.184  0.00  0.00    -0.311 N 
ATOM     12  C   UNL     1      -1.446  -4.886  -0.304  0.00  0.00    +0.125 C 
ATOM     13  C   UNL     1      -2.244  -6.168  -0.538  0.00  0.00    +0.022 C 
ATOM     14  C   UNL     1      -2.783  -6.720   0.772  0.00  0.00    +0.002 C 
ATOM     15  C   UNL     1      -1.814  -6.560   1.928  0.00  0.00    +0.000 C 
ATOM     16  C   UNL     1      -0.857  -7.755   1.884  0.00  0.00    +0.008 C 
ATOM     17  C   UNL     1      -0.074  -7.693   0.560  0.00  0.00    +0.076 C 
ENDBRANCH   6   7
BRANCH   3  18
ATOM     18  N   UNL     1      -0.017   1.393   0.010  0.00  0.00    -0.283 N 
ATOM     19  C   UNL     1       0.892   2.252   0.512  0.00  0.00    +0.246 C 
ATOM     20  O   UNL     1       1.933   1.832   0.974  0.00  0.00    -0.273 OA
ATOM     21  H   UNL     1      -0.818   1.732  -0.420  0.00  0.00    +0.155 HD
BRANCH  19  22
ATOM     22  C   UNL     1       0.617   3.733   0.501  0.00  0.00    +0.204 C 
ATOM     23  C   UNL     1       0.539   4.255  -0.952  0.00  0.00    +0.043 C 
ATOM     24  C   UNL     1       1.200   5.650  -0.885  0.00  0.00    +0.031 C 
ATOM     25  C   UNL     1       1.599   5.806   0.599  0.00  0.00    +0.161 C 
ATOM     26  O   UNL     1       1.719   4.455   1.093  0.00  0.00    -0.367 OA
ENDBRANCH  19  22
ENDBRANCH   3  18
TORSDOF 3
