REMARK  Name = ZINC22709167
REMARK  8 active torsions:
REMARK  status: ('A' for Active; 'I' for Inactive)
REMARK    1  A    between atoms: C_1  and  C_2
REMARK    2  A    between atoms: C_3  and  C_12
REMARK    3  A    between atoms: C_12  and  C_14
REMARK    4  A    between atoms: C_14  and  C_16
REMARK    5  A    between atoms: C_14  and  O_17
REMARK    6  A    between atoms: O_17  and  C_18
REMARK    7  A    between atoms: C_18  and  C_20
REMARK    8  A    between atoms: C_22  and  N_28
REMARK                            x       y       z     vdW  Elec       q    Type
REMARK                         _______ _______ _______ _____ _____    ______ ____
ROOT
ATOM      1  C   UNL     1       0.124   1.342  -2.588  0.00  0.00    +0.244 C 
ATOM      2  C   UNL     1      -1.152   2.030  -2.097  0.00  0.00    +0.061 C 
ENDROOT
BRANCH   1   3
ATOM      3  C   UNL     1      -0.009  -0.148  -2.410  0.00  0.00    +0.205 C 
ATOM      4  O   UNL     1      -0.267  -0.853  -3.365  0.00  0.00    -0.288 OA
BRANCH   3   7
ATOM      5  C   UNL     1       2.721  -0.929  -1.168  0.00  0.00    +0.064 C 
ATOM      6  C   UNL     1       1.360  -1.089  -0.540  0.00  0.00    +0.025 A 
ATOM      7  C   UNL     1       0.167  -0.728  -1.129  0.00  0.00    +0.049 A 
ATOM      8  C   UNL     1      -0.890  -1.066  -0.156  0.00  0.00    +0.011 A 
ATOM      9  C   UNL     1      -2.277  -0.948  -0.155  0.00  0.00    +0.011 A 
ATOM     10  C   UNL     1      -2.997  -1.369   0.942  0.00  0.00    +0.001 A 
ATOM     11  C   UNL     1      -2.345  -1.908   2.041  0.00  0.00    +0.002 A 
ATOM     12  C   UNL     1      -0.973  -2.031   2.053  0.00  0.00    +0.026 A 
ATOM     13  C   UNL     1      -0.228  -1.611   0.955  0.00  0.00    +0.047 A 
ATOM     14  N   UNL     1       1.124  -1.611   0.678  0.00  0.00    -0.358 N 
ATOM     15  H   UNL     1       1.810  -1.940   1.280  0.00  0.00    +0.166 HD
ENDBRANCH   3   7
ENDBRANCH   1   3
BRANCH   1  16
ATOM     16  O   UNL     1       0.325   1.641  -3.970  0.00  0.00    -0.449 OA
BRANCH  16  17
ATOM     17  C   UNL     1       1.050   2.739  -4.260  0.00  0.00    +0.360 C 
ATOM     18  O   UNL     1       1.499   3.424  -3.363  0.00  0.00    -0.243 OA
BRANCH  17  19
ATOM     19  C   UNL     1       1.298   3.111  -5.670  0.00  0.00    +0.169 A 
ATOM     20  C   UNL     1       2.054   4.243  -5.962  0.00  0.00    +0.095 A 
ATOM     21  C   UNL     1       2.279   4.580  -7.297  0.00  0.00    +0.067 A 
ATOM     22  C   UNL     1       1.736   3.762  -8.286  0.00  0.00    +0.100 A 
ATOM     23  C   UNL     1       0.995   2.651  -7.916  0.00  0.00    +0.150 A 
ATOM     24  N   UNL     1       0.803   2.357  -6.647  0.00  0.00    -0.226 NA
ATOM     25 CL   UNL     1       0.315   1.629  -9.143  0.00  0.00    -0.060 Cl
ATOM     26 CL   UNL     1       1.984   4.132  -9.964  0.00  0.00    -0.078 Cl
ATOM     27 CL   UNL     1       2.704   5.222  -4.684  0.00  0.00    -0.079 Cl
BRANCH  21  28
ATOM     28  N   UNL     1       3.029   5.705  -7.633  0.00  0.00    -0.356 N 
ATOM     29  H   UNL     1       3.402   6.266  -6.935  0.00  0.00    +0.142 HD
ATOM     30  H   UNL     1       3.179   5.928  -8.565  0.00  0.00    +0.142 HD
ENDBRANCH  21  28
ENDBRANCH  17  19
ENDBRANCH  16  17
ENDBRANCH   1  16
TORSDOF 6
