REMARK  Name = ZINC39940691
REMARK  6 active torsions:
REMARK  status: ('A' for Active; 'I' for Inactive)
REMARK    1  A    between atoms: C_1  and  C_2
REMARK    2  A    between atoms: C_7  and  N_8
REMARK    3  A    between atoms: C_17  and  S_18
REMARK    4  A    between atoms: S_18  and  C_19
REMARK    5  A    between atoms: C_19  and  C_20
REMARK    6  A    between atoms: C_20  and  C_22
REMARK                            x       y       z     vdW  Elec       q    Type
REMARK                         _______ _______ _______ _____ _____    ______ ____
ROOT
ATOM      1  N   UNL     1       0.025  -0.013   2.418  0.00  0.00    -0.255 N 
ATOM      2  C   UNL     1      -1.146   0.292   3.006  0.00  0.00    +0.268 A 
ATOM      3  O   UNL     1      -2.201  -0.030   2.486  0.00  0.00    -0.267 OA
ATOM      4  C   UNL     1      -1.137   0.998   4.250  0.00  0.00    +0.076 A 
ATOM      5  C   UNL     1      -2.280   1.430   5.057  0.00  0.00    -0.023 A 
ATOM      6  C   UNL     1      -2.008   2.087   6.202  0.00  0.00    -0.004 A 
ATOM      7  S   UNL     1      -0.239   2.170   6.276  0.00  0.00    -0.073 S 
ATOM      8  C   UNL     1       0.131   1.320   4.763  0.00  0.00    +0.117 A 
ATOM      9  N   UNL     1       1.253   0.990   4.133  0.00  0.00    -0.215 NA
ATOM     10  C   UNL     1       1.217   0.334   2.990  0.00  0.00    +0.178 A 
ATOM     11  C   UNL     1      -2.991   2.630   7.194  0.00  0.00    +0.043 C 
ATOM     12  C   UNL     1      -4.378   2.657   6.535  0.00  0.00    +0.005 C 
ATOM     13  C   UNL     1      -4.628   1.305   5.861  0.00  0.00    +0.005 C 
ATOM     14  C   UNL     1      -3.723   1.159   4.637  0.00  0.00    +0.037 C 
ENDROOT
BRANCH   1  21
ATOM     15  C   UNL     1      -0.018   1.503   0.010  0.00  0.00    +0.046 C 
ATOM     16  C   UNL     1       0.002  -0.004   0.002  0.00  0.00    -0.026 A 
ATOM     17  C   UNL     1       0.006  -0.689  -1.198  0.00  0.00    +0.005 A 
ATOM     18  C   UNL     1       0.025  -2.071  -1.206  0.00  0.00    +0.000 A 
ATOM     19  C   UNL     1       0.040  -2.773  -0.014  0.00  0.00    +0.002 A 
ATOM     20  C   UNL     1       0.036  -2.094   1.188  0.00  0.00    +0.026 A 
ATOM     21  C   UNL     1       0.023  -0.705   1.200  0.00  0.00    +0.055 A 
ENDBRANCH   1  21
BRANCH  10  22
ATOM     22  S   UNL     1       2.725  -0.094   2.186  0.00  0.00    -0.079 S 
BRANCH  22  23
ATOM     23  C   UNL     1       4.011   0.556   3.288  0.00  0.00    +0.156 C 
BRANCH  23  24
ATOM     24  C   UNL     1       5.369   0.254   2.709  0.00  0.00    +0.172 C 
ATOM     25  O   UNL     1       5.461  -0.343   1.656  0.00  0.00    -0.291 OA
BRANCH  24  26
ATOM     26  C   UNL     1       6.534   0.663   3.392  0.00  0.00    +0.024 C 
ATOM     27  C   UNL     1       7.846   0.471   2.998  0.00  0.00    +0.006 A 
ATOM     28  C   UNL     1       8.430  -0.151   1.870  0.00  0.00    +0.010 A 
ATOM     29  C   UNL     1       9.774  -0.196   1.737  0.00  0.00    +0.001 A 
ATOM     30  C   UNL     1      10.645   0.359   2.688  0.00  0.00    +0.002 A 
ATOM     31  C   UNL     1      10.190   0.975   3.801  0.00  0.00    +0.026 A 
ATOM     32  C   UNL     1       8.737   1.068   4.023  0.00  0.00    +0.043 A 
ATOM     33  N   UNL     1       8.037   1.594   4.987  0.00  0.00    -0.380 N 
ATOM     34  C   UNL     1       6.609   1.411   4.705  0.00  0.00    +0.152 C 
ATOM     35  H   UNL     1       8.402   2.041   5.766  0.00  0.00    +0.160 HD
ENDBRANCH  24  26
ENDBRANCH  23  24
ENDBRANCH  22  23
ENDBRANCH  10  22
TORSDOF 5
