REMARK  Name = ZINC66716811
REMARK  8 active torsions:
REMARK  status: ('A' for Active; 'I' for Inactive)
REMARK    1  A    between atoms: C_1  and  C_2
REMARK    2  A    between atoms: C_5  and  C_9
REMARK    3  A    between atoms: C_6  and  C_8
REMARK    4  A    between atoms: C_9  and  C_10
REMARK    5  A    between atoms: C_10  and  C_12
REMARK    6  A    between atoms: C_10  and  N_13
REMARK    7  A    between atoms: N_19  and  S_22
REMARK    8  A    between atoms: S_22  and  C_25
REMARK                            x       y       z     vdW  Elec       q    Type
REMARK                         _______ _______ _______ _____ _____    ______ ____
ROOT
ATOM      1  N   UNL     1      -2.310  -4.503   2.672  0.00  0.00    -0.296 N 
ATOM      2  C   UNL     1      -3.620  -4.222   2.820  0.00  0.00    +0.302 C 
ATOM      3  O   UNL     1      -4.428  -4.652   2.020  0.00  0.00    -0.253 OA
ATOM      4  N   UNL     1      -4.034  -3.466   3.857  0.00  0.00    -0.283 N 
ATOM      5  C   UNL     1      -5.468  -3.249   4.098  0.00  0.00    +0.126 C 
ATOM      6  C   UNL     1      -5.793  -3.679   5.534  0.00  0.00    +0.128 C 
ATOM      7  N   UNL     1      -4.819  -3.058   6.443  0.00  0.00    -0.178 NA
ATOM      8  C   UNL     1      -3.386  -3.275   6.201  0.00  0.00    +0.128 C 
ATOM      9  C   UNL     1      -3.061  -2.849   4.768  0.00  0.00    +0.126 C 
ATOM     10  H   UNL     1      -1.674  -4.221   3.348  0.00  0.00    +0.151 HD
ENDROOT
BRANCH   7  11
ATOM     11  S   UNL     1      -5.328  -2.129   7.716  0.00  0.00    +0.029 S 
ATOM     12  O   UNL     1      -4.250  -1.238   7.969  0.00  0.00    -0.158 OA
ATOM     13  O   UNL     1      -6.599  -1.633   7.318  0.00  0.00    -0.158 OA
ATOM     14  C   UNL     1      -5.516  -3.292   9.095  0.00  0.00    +0.215 C 
ENDBRANCH   7  11
BRANCH   1  15
ATOM     15  C   UNL     1      -1.847  -5.232   1.489  0.00  0.00    +0.076 C 
ATOM     16  C   UNL     1      -1.987  -6.737   1.731  0.00  0.00    +0.028 C 
BRANCH  15  17
ATOM     17  C   UNL     1      -0.379  -4.893   1.223  0.00  0.00    +0.057 C 
BRANCH  17  22
ATOM     18  C   UNL     1       0.096   0.713  -0.099  0.00  0.00    +0.044 C 
ATOM     19  C   UNL     1      -0.028  -0.749   0.246  0.00  0.00    -0.050 A 
ATOM     20  C   UNL     1       0.268  -1.185   1.524  0.00  0.00    +0.003 A 
ATOM     21  C   UNL     1       0.154  -2.526   1.840  0.00  0.00    +0.004 A 
ATOM     22  C   UNL     1      -0.256  -3.431   0.879  0.00  0.00    -0.043 A 
ATOM     23  C   UNL     1      -0.553  -2.994  -0.399  0.00  0.00    -0.047 A 
ATOM     24  C   UNL     1      -0.443  -1.653  -0.714  0.00  0.00    +0.007 A 
ATOM     25  C   UNL     1      -0.999  -3.981  -1.447  0.00  0.00    +0.044 C 
ENDBRANCH  17  22
ENDBRANCH  15  17
ENDBRANCH   1  15
TORSDOF 4
