REMARK  Name = ZINC03905736
REMARK  6 active torsions:
REMARK  status: ('A' for Active; 'I' for Inactive)
REMARK    1  A    between atoms: C_1  and  C_2
REMARK    2  A    between atoms: C_18  and  C_19
REMARK    3  A    between atoms: C_18  and  N_62
REMARK    4  A    between atoms: C_19  and  C_21
REMARK    5  A    between atoms: C_19  and  O_28
REMARK    6  A    between atoms: C_21  and  N_64
REMARK                            x       y       z     vdW  Elec       q    Type
REMARK                         _______ _______ _______ _____ _____    ______ ____
ROOT
ATOM      1  C   UNL     1      -1.695   0.875   0.237  0.00  0.00    +0.044 C 
ATOM      2  C   UNL     1      -0.276   1.377   0.150  0.00  0.00    -0.050 A 
ATOM      3  C   UNL     1      -0.054   2.730  -0.047  0.00  0.00    +0.005 A 
ATOM      4  C   UNL     1       1.220   3.261  -0.137  0.00  0.00    +0.026 A 
ATOM      5  C   UNL     1       2.290   2.377  -0.021  0.00  0.00    +0.049 A 
ATOM      6  C   UNL     1       2.056   0.983   0.181  0.00  0.00    +0.003 A 
ATOM      7  C   UNL     1       0.754   0.479   0.269  0.00  0.00    +0.013 A 
ATOM      8  C   UNL     1       3.354   0.369   0.256  0.00  0.00    -0.020 A 
ATOM      9  C   UNL     1       4.255   1.355   0.077  0.00  0.00    +0.009 A 
ATOM     10  N   UNL     1       3.649   2.584  -0.048  0.00  0.00    -0.347 N 
ATOM     11  C   UNL     1       4.436   3.816  -0.206  0.00  0.00    +0.103 C 
ATOM     12  C   UNL     1       5.870   3.421  -0.582  0.00  0.00    -0.056 C 
ATOM     13  C   UNL     1       5.744   1.090   0.077  0.00  0.00    -0.020 C 
ATOM     14  C   UNL     1       6.050   0.114   1.201  0.00  0.00    -0.009 C 
ATOM     15  C   UNL     1       5.050  -0.995   1.416  0.00  0.00    +0.003 C 
ATOM     16  C   UNL     1       3.847  -1.033   0.485  0.00  0.00    +0.037 C 
ATOM     17  N   UNL     1       6.388   2.400   0.353  0.00  0.00    +0.388 N 
ATOM     18  H   UNL     1       6.168   2.685   1.314  0.00  0.00    -0.081 HD
ENDROOT
BRANCH  17  19
ATOM     19  C   UNL     1       7.855   2.282   0.210  0.00  0.00    -0.048 C 
BRANCH  19  20
ATOM     20  C   UNL     1       8.245   2.222  -1.268  0.00  0.00    +0.082 C 
BRANCH  20  21
ATOM     21  O   UNL     1       7.755   1.008  -1.841  0.00  0.00    -0.395 OA
ATOM     22  H   UNL     1       8.100   0.207  -1.421  0.00  0.00    +0.210 HD
ENDBRANCH  20  21
BRANCH  20  23
ATOM     23  C   UNL     1       9.769   2.267  -1.395  0.00  0.00    -0.049 C 
BRANCH  23  30
ATOM     24  C   UNL     1       9.664   1.131  -3.541  0.00  0.00    -0.079 C 
ATOM     25  C   UNL     1      10.247   1.016  -4.923  0.00  0.00    -0.019 C 
ATOM     26  C   UNL     1      11.507   0.129  -4.851  0.00  0.00    -0.002 C 
ATOM     27  C   UNL     1      12.663   0.855  -4.337  0.00  0.00    -0.002 C 
ATOM     28  C   UNL     1      12.434   1.375  -2.902  0.00  0.00    -0.019 C 
ATOM     29  C   UNL     1      11.584   2.614  -2.974  0.00  0.00    -0.079 C 
ATOM     30  N   UNL     1      10.108   2.374  -2.823  0.00  0.00    +0.381 N 
ATOM     31  H   UNL     1       9.607   3.176  -3.223  0.00  0.00    -0.082 HD
ENDBRANCH  23  30
ENDBRANCH  20  23
ENDBRANCH  19  20
ENDBRANCH  17  19
TORSDOF 5
