REMARK  Name = ZINC08382503
REMARK  15 active torsions:
REMARK  status: ('A' for Active; 'I' for Inactive)
REMARK    1  A    between atoms: C_1  and  C_2
REMARK    2  A    between atoms: C_2  and  C_4
REMARK    3  A    between atoms: C_2  and  C_10
REMARK    4  A    between atoms: C_4  and  C_5
REMARK    5  A    between atoms: C_5  and  C_6
REMARK    6  A    between atoms: C_6  and  C_7
REMARK    7  A    between atoms: C_7  and  C_8
REMARK    8  A    between atoms: C_7  and  C_9
REMARK    9  A    between atoms: C_16  and  C_40
REMARK   10  A    between atoms: N_25  and  O_26
REMARK   11  A    between atoms: C_27  and  O_39
REMARK   12  A    between atoms: C_28  and  C_38
REMARK   13  A    between atoms: C_31  and  O_34
REMARK   14  A    between atoms: O_34  and  C_35
REMARK   15  A    between atoms: C_35  and  C_37
REMARK                            x       y       z     vdW  Elec       q    Type
REMARK                         _______ _______ _______ _____ _____    ______ ____
ROOT
ATOM      1  C   UNL     1       0.606  -0.503  -1.312  0.00  0.00    -0.002 C 
ATOM      2  C   UNL     1       0.442  -2.036  -1.440  0.00  0.00    +0.004 C 
ATOM      3  C   UNL     1       0.119  -2.322  -2.918  0.00  0.00    +0.004 C 
ATOM      4  C   UNL     1       0.142  -0.949  -3.643  0.00  0.00    -0.001 C 
ATOM      5  C   UNL     1      -0.184   0.045  -2.515  0.00  0.00    -0.026 C 
ATOM      6  C   UNL     1       0.180   1.473  -2.847  0.00  0.00    +0.007 C 
ATOM      7  C   UNL     1       1.638   1.579  -3.290  0.00  0.00    +0.005 C 
ATOM      8  C   UNL     1       1.834   0.703  -4.535  0.00  0.00    +0.002 C 
ATOM      9  C   UNL     1       1.565  -0.764  -4.180  0.00  0.00    +0.002 C 
ATOM     10  C   UNL     1       1.730  -1.666  -5.411  0.00  0.00    +0.061 C 
ATOM     11  C   UNL     1       3.080  -1.403  -6.040  0.00  0.00    +0.090 C 
ATOM     12  N   UNL     1       3.881  -2.364  -6.311  0.00  0.00    -0.094 NA
ATOM     13  C   UNL     1       3.450   0.032  -6.339  0.00  0.00    +0.116 C 
ATOM     14  C   UNL     1       3.285   0.868  -5.007  0.00  0.00    +0.005 C 
ATOM     15  C   UNL     1       4.220   0.343  -3.914  0.00  0.00    +0.014 C 
ATOM     16  C   UNL     1       5.672   0.451  -4.380  0.00  0.00    +0.045 C 
ATOM     17  C   UNL     1       5.862  -0.392  -5.643  0.00  0.00    +0.180 C 
ATOM     18  C   UNL     1       4.897   0.106  -6.817  0.00  0.00    +0.086 C 
ATOM     19  C   UNL     1       3.572   2.345  -5.285  0.00  0.00    +0.015 C 
ATOM     20  C   UNL     1      -1.681  -0.021  -2.206  0.00  0.00    +0.012 C 
ENDROOT
BRANCH   1  22
ATOM     21  C   UNL     1       0.177   1.513   0.100  0.00  0.00    +0.008 C 
ATOM     22  C   UNL     1       0.002  -0.004   0.002  0.00  0.00    -0.010 C 
BRANCH  22  23
ATOM     23  C   UNL     1       0.714  -0.676   1.178  0.00  0.00    +0.003 C 
BRANCH  23  24
ATOM     24  C   UNL     1       0.030  -0.273   2.486  0.00  0.00    +0.001 C 
BRANCH  24  25
ATOM     25  C   UNL     1       0.742  -0.945   3.662  0.00  0.00    +0.003 C 
BRANCH  25  26
ATOM     26  C   UNL     1       0.058  -0.543   4.970  0.00  0.00    -0.017 C 
ATOM     27  C   UNL     1       0.690  -1.310   6.133  0.00  0.00    +0.007 C 
ATOM     28  C   UNL     1       0.234   0.960   5.195  0.00  0.00    +0.007 C 
ENDBRANCH  25  26
ENDBRANCH  24  25
ENDBRANCH  23  24
ENDBRANCH  22  23
ENDBRANCH   1  22
BRANCH  12  29
ATOM     29  O   UNL     1       3.509  -3.699  -6.021  0.00  0.00    -0.409 OA
ATOM     30  H   UNL     1       4.178  -4.354  -6.261  0.00  0.00    +0.328 HD
ENDBRANCH  12  29
BRANCH  13  31
ATOM     31  O   UNL     1       2.586   0.545  -7.355  0.00  0.00    -0.382 OA
ATOM     32  H   UNL     1       2.628   0.060  -8.190  0.00  0.00    +0.211 HD
ENDBRANCH  13  31
BRANCH  17  33
ATOM     33  O   UNL     1       7.222  -0.306  -6.074  0.00  0.00    -0.461 OA
BRANCH  33  34
ATOM     34  C   UNL     1       8.076  -1.218  -5.583  0.00  0.00    +0.304 C 
ATOM     35  O   UNL     1       7.682  -2.062  -4.814  0.00  0.00    -0.251 OA
ATOM     36  C   UNL     1       9.526  -1.190  -5.993  0.00  0.00    +0.136 C 
ENDBRANCH  33  34
ENDBRANCH  17  33
TORSDOF 9
