REMARK  Name = ZINC01430751
REMARK  6 active torsions:
REMARK  status: ('A' for Active; 'I' for Inactive)
REMARK    1  A    between atoms: C_3  and  C_7
REMARK    2  A    between atoms: C_12  and  S_21
REMARK    3  A    between atoms: C_16  and  N_20
REMARK    4  A    between atoms: C_17  and  C_18
REMARK    5  A    between atoms: S_21  and  C_22
REMARK    6  A    between atoms: C_22  and  C_23
REMARK                            x       y       z     vdW  Elec       q    Type
REMARK                         _______ _______ _______ _____ _____    ______ ____
ROOT
ATOM      1  C   UNL     1       3.631   2.080  -0.022  0.00  0.00    +0.104 C 
ATOM      2  C   UNL     1       2.330   1.327  -0.013  0.00  0.00    +0.067 A 
ATOM      3  C   UNL     1       1.119   2.016   0.002  0.00  0.00    +0.128 A 
ATOM      4  N   UNL     1      -0.016   1.321   0.009  0.00  0.00    -0.207 NA
ATOM      5  C   UNL     1       0.002  -0.004   0.002  0.00  0.00    +0.193 A 
ATOM      6  N   UNL     1       1.137  -0.687  -0.012  0.00  0.00    -0.186 NA
ATOM      7  C   UNL     1       2.310  -0.058  -0.020  0.00  0.00    +0.232 A 
ATOM      8  O   UNL     1       3.459  -0.768  -0.034  0.00  0.00    -0.423 OA
ATOM      9  C   UNL     1       4.614  -0.183   0.329  0.00  0.00    +0.200 C 
ATOM     10  C   UNL     1       4.761   1.163   0.356  0.00  0.00    +0.098 C 
ATOM     11  N   UNL     1       1.097   3.401   0.009  0.00  0.00    -0.343 N 
ATOM     12  H   UNL     1       0.249   3.873   0.020  0.00  0.00    +0.144 HD
ATOM     13  H   UNL     1       1.929   3.900   0.004  0.00  0.00    +0.144 HD
ENDROOT
BRANCH   1  16
ATOM     14  C   UNL     1       4.219   4.462  -2.889  0.00  0.00    +0.020 A 
ATOM     15  C   UNL     1       3.993   3.999  -1.602  0.00  0.00    +0.007 A 
ATOM     16  C   UNL     1       3.877   2.632  -1.403  0.00  0.00    -0.016 A 
ATOM     17  C   UNL     1       3.994   1.781  -2.486  0.00  0.00    +0.115 A 
ATOM     18  N   UNL     1       4.205   2.257  -3.698  0.00  0.00    -0.263 NA
ATOM     19  C   UNL     1       4.320   3.551  -3.924  0.00  0.00    +0.111 A 
ENDBRANCH   1  16
BRANCH   9  20
ATOM     20  N   UNL     1       5.677  -0.975   0.684  0.00  0.00    -0.328 N 
ATOM     21  H   UNL     1       5.589  -1.941   0.669  0.00  0.00    +0.145 HD
ATOM     22  H   UNL     1       6.517  -0.569   0.948  0.00  0.00    +0.145 HD
ENDBRANCH   9  20
BRANCH  10  23
ATOM     23  C   UNL     1       6.018   1.723   0.752  0.00  0.00    +0.101 C 
ATOM     24  N   UNL     1       7.014   2.168   1.067  0.00  0.00    -0.191 NA
ENDBRANCH  10  23
BRANCH   5  25
ATOM     25  S   UNL     1      -1.526  -0.882   0.012  0.00  0.00    -0.081 S 
BRANCH  25  26
ATOM     26  C   UNL     1      -2.686   0.507   0.031  0.00  0.00    +0.112 C 
BRANCH  26  27
ATOM     27  C   UNL     1      -4.098  -0.018   0.042  0.00  0.00    -0.037 A 
ATOM     28  C   UNL     1      -4.760  -0.247  -1.151  0.00  0.00    +0.006 A 
ATOM     29  C   UNL     1      -6.053  -0.734  -1.142  0.00  0.00    +0.020 A 
ATOM     30  C   UNL     1      -6.690  -0.982   0.061  0.00  0.00    +0.041 A 
ATOM     31  C   UNL     1      -6.030  -0.747   1.254  0.00  0.00    +0.020 A 
ATOM     32  C   UNL     1      -4.734  -0.265   1.244  0.00  0.00    +0.006 A 
ATOM     33 CL   UNL     1      -8.317  -1.588   0.074  0.00  0.00    -0.084 Cl
ENDBRANCH  26  27
ENDBRANCH  25  26
ENDBRANCH   5  25
TORSDOF 6
