REMARK  Name = ZINC18353761
REMARK  12 active torsions:
REMARK  status: ('A' for Active; 'I' for Inactive)
REMARK    1  A    between atoms: C_1  and  C_2
REMARK    2  A    between atoms: C_2  and  C_3
REMARK    3  A    between atoms: C_3  and  N_4
REMARK    4  A    between atoms: N_4  and  C_5
REMARK    5  A    between atoms: C_6  and  N_21
REMARK    6  A    between atoms: N_7  and  C_14
REMARK    7  A    between atoms: C_14  and  C_15
REMARK    8  A    between atoms: C_22  and  C_24
REMARK    9  A    between atoms: C_24  and  S_25
REMARK   10  A    between atoms: S_25  and  C_26
REMARK   11  A    between atoms: N_34  and  C_35
REMARK   12  A    between atoms: C_35  and  C_36
REMARK                            x       y       z     vdW  Elec       q    Type
REMARK                         _______ _______ _______ _____ _____    ______ ____
ROOT
ATOM      1  N   UNL     1       4.557   5.184   4.558  0.00  0.00    -0.264 N 
ATOM      2  C   UNL     1       3.459   4.980   3.800  0.00  0.00    +0.230 C 
ATOM      3  O   UNL     1       3.081   5.843   3.036  0.00  0.00    -0.274 OA
ENDROOT
BRANCH   1   4
ATOM      4  C   UNL     1       5.320   6.359   4.393  0.00  0.00    +0.140 A 
ATOM      5  C   UNL     1       5.961   6.617   3.198  0.00  0.00    +0.128 A 
ATOM      6  N   UNL     1       6.694   7.774   3.066  0.00  0.00    -0.276 N 
ATOM      7  C   UNL     1       6.794   8.638   4.093  0.00  0.00    +0.331 A 
ATOM      8  O   UNL     1       7.451   9.652   3.957  0.00  0.00    -0.246 OA
ATOM      9  N   UNL     1       6.180   8.400   5.266  0.00  0.00    -0.273 N 
ATOM     10  H   UNL     1       6.270   9.059   6.013  0.00  0.00    +0.173 HD
ATOM     11  C   UNL     1       5.446   7.285   5.446  0.00  0.00    +0.277 A 
ATOM     12  O   UNL     1       4.894   7.079   6.513  0.00  0.00    -0.266 OA
BRANCH   5  13
ATOM     13  N   UNL     1       5.864   5.732   2.152  0.00  0.00    -0.343 N 
ATOM     14  H   UNL     1       5.435   4.872   2.282  0.00  0.00    +0.144 HD
ATOM     15  H   UNL     1       6.224   5.968   1.282  0.00  0.00    +0.144 HD
ENDBRANCH   5  13
BRANCH   6  16
ATOM     16  C   UNL     1       7.375   8.063   1.802  0.00  0.00    +0.163 C 
BRANCH  16  17
ATOM     17  C   UNL     1       8.763   7.476   1.834  0.00  0.00    -0.028 A 
ATOM     18  C   UNL     1       9.822   8.231   2.304  0.00  0.00    +0.005 A 
ATOM     19  C   UNL     1      11.094   7.691   2.337  0.00  0.00    +0.000 A 
ATOM     20  C   UNL     1      11.309   6.400   1.891  0.00  0.00    +0.000 A 
ATOM     21  C   UNL     1      10.251   5.648   1.416  0.00  0.00    +0.000 A 
ATOM     22  C   UNL     1       8.978   6.186   1.387  0.00  0.00    +0.005 A 
ENDBRANCH  16  17
ENDBRANCH   6  16
ENDBRANCH   1   4
BRANCH   1  23
ATOM     23  C   UNL     1       4.956   4.185   5.553  0.00  0.00    +0.114 C 
BRANCH  23  25
ATOM     24  C   UNL     1       6.354   2.155   5.958  0.00  0.00    +0.005 C 
ATOM     25  C   UNL     1       5.937   3.198   4.919  0.00  0.00    +0.016 C 
ENDBRANCH  23  25
ENDBRANCH   1  23
BRANCH   2  26
ATOM     26  C   UNL     1       2.703   3.680   3.903  0.00  0.00    +0.173 C 
BRANCH  26  27
ATOM     27  S   UNL     1       1.292   3.712   2.770  0.00  0.00    -0.078 S 
BRANCH  27  28
ATOM     28  C   UNL     1       0.609   2.119   3.088  0.00  0.00    +0.170 A 
ATOM     29  N   UNL     1       1.093   1.248   3.939  0.00  0.00    -0.222 NA
ATOM     30  C   UNL     1       0.323   0.129   3.934  0.00  0.00    +0.090 A 
ATOM     31  C   UNL     1       0.383  -1.080   4.632  0.00  0.00    +0.030 A 
ATOM     32  C   UNL     1      -0.577  -2.044   4.414  0.00  0.00    +0.002 A 
ATOM     33  C   UNL     1      -1.595  -1.829   3.497  0.00  0.00    +0.002 A 
ATOM     34  C   UNL     1      -1.665  -0.642   2.796  0.00  0.00    +0.028 A 
ATOM     35  C   UNL     1      -0.712   0.343   3.009  0.00  0.00    +0.069 A 
ATOM     36  N   UNL     1      -0.505   1.608   2.484  0.00  0.00    -0.319 N 
BRANCH  36  37
ATOM     37  C   UNL     1      -1.329   2.275   1.473  0.00  0.00    +0.121 C 
ATOM     38  C   UNL     1      -0.792   1.946   0.079  0.00  0.00    +0.027 C 
ENDBRANCH  36  37
ENDBRANCH  27  28
ENDBRANCH  26  27
ENDBRANCH   2  26
TORSDOF 10
