REMARK  Name = ZINC39667172
REMARK  12 active torsions:
REMARK  status: ('A' for Active; 'I' for Inactive)
REMARK    1  A    between atoms: C_1  and  C_2
REMARK    2  A    between atoms: C_5  and  C_9
REMARK    3  A    between atoms: C_6  and  C_8
REMARK    4  A    between atoms: C_9  and  C_10
REMARK    5  A    between atoms: C_10  and  N_11
REMARK    6  A    between atoms: C_12  and  C_14
REMARK    7  A    between atoms: C_25  and  C_27
REMARK    8  A    between atoms: C_27  and  C_29
REMARK    9  A    between atoms: C_27  and  O_32
REMARK   10  A    between atoms: C_29  and  C_30
REMARK   11  A    between atoms: C_29  and  C_31
REMARK   12  A    between atoms: O_32  and  C_33
REMARK                            x       y       z     vdW  Elec       q    Type
REMARK                         _______ _______ _______ _____ _____    ______ ____
ROOT
ATOM      1  C   UNL     1      -2.352  -8.668   0.564  0.00  0.00    +0.100 C 
ATOM      2  C   UNL     1      -1.934  -9.078  -0.866  0.00  0.00    +0.121 C 
ATOM      3  N   UNL     1      -2.806 -10.231  -1.195  0.00  0.00    -0.297 N 
ATOM      4  C   UNL     1      -4.125  -9.871  -0.622  0.00  0.00    +0.115 C 
ATOM      5  C   UNL     1      -3.791  -9.189   0.720  0.00  0.00    -0.004 C 
ATOM      6  C   UNL     1      -4.748  -8.030   0.975  0.00  0.00    -0.010 C 
ATOM      7  C   UNL     1      -6.162  -8.578   1.185  0.00  0.00    -0.082 C 
ATOM      8  N   UNL     1      -6.167  -9.502   2.325  0.00  0.00    +0.379 N 
ATOM      9  C   UNL     1      -5.315 -10.662   2.033  0.00  0.00    -0.082 C 
ATOM     10  C   UNL     1      -3.865 -10.201   1.859  0.00  0.00    -0.010 C 
ATOM     11  C   UNL     1      -2.474 -11.353  -1.863  0.00  0.00    +0.257 C 
ATOM     12  O   UNL     1      -3.325 -12.175  -2.128  0.00  0.00    -0.272 OA
ATOM     13  H   UNL     1      -5.816  -9.027   3.143  0.00  0.00    -0.086 HD
ATOM     14  H   UNL     1      -7.110  -9.815   2.500  0.00  0.00    -0.086 HD
ENDROOT
BRANCH   1  16
ATOM     15  N   UNL     1      -2.223  -6.614   1.935  0.00  0.00    -0.315 N 
ATOM     16  C   UNL     1      -2.318  -7.169   0.711  0.00  0.00    +0.218 C 
ATOM     17  O   UNL     1      -2.377  -6.462  -0.273  0.00  0.00    -0.275 OA
ATOM     18  H   UNL     1      -2.176  -7.179   2.722  0.00  0.00    +0.149 HD
BRANCH  15  19
ATOM     19  C   UNL     1      -2.190  -5.156   2.078  0.00  0.00    +0.109 C 
BRANCH  19  20
ATOM     20  C   UNL     1      -2.079  -4.791   3.560  0.00  0.00    +0.054 C 
BRANCH  20  25
ATOM     21  C   UNL     1      -1.950   0.959   4.120  0.00  0.00    +0.044 C 
ATOM     22  C   UNL     1      -1.984  -0.541   3.974  0.00  0.00    -0.050 A 
ATOM     23  C   UNL     1      -0.802  -1.257   3.927  0.00  0.00    +0.003 A 
ATOM     24  C   UNL     1      -0.833  -2.633   3.793  0.00  0.00    +0.004 A 
ATOM     25  C   UNL     1      -2.046  -3.292   3.707  0.00  0.00    -0.043 A 
ATOM     26  C   UNL     1      -3.227  -2.575   3.755  0.00  0.00    -0.047 A 
ATOM     27  C   UNL     1      -3.196  -1.200   3.893  0.00  0.00    +0.007 A 
ATOM     28  C   UNL     1      -4.548  -3.294   3.660  0.00  0.00    +0.044 C 
ENDBRANCH  20  25
ENDBRANCH  19  20
ENDBRANCH  15  19
ENDBRANCH   1  16
BRANCH  11  29
ATOM     29  C   UNL     1      -1.045 -11.587  -2.280  0.00  0.00    +0.261 C 
BRANCH  29  30
ATOM     30  C   UNL     1      -0.803 -10.950  -3.651  0.00  0.00    +0.033 C 
ATOM     31  C   UNL     1      -1.184  -9.469  -3.599  0.00  0.00    +0.011 C 
ATOM     32  C   UNL     1       0.675 -11.084  -4.021  0.00  0.00    +0.011 C 
ENDBRANCH  29  30
BRANCH  29  33
ATOM     33  O   UNL     1      -0.795 -12.992  -2.357  0.00  0.00    -0.479 OA
BRANCH  33  34
ATOM     34  C   UNL     1       0.452 -13.416  -2.021  0.00  0.00    +0.122 A 
ATOM     35  C   UNL     1       1.386 -12.512  -1.537  0.00  0.00    +0.045 A 
ATOM     36  C   UNL     1       2.653 -12.945  -1.196  0.00  0.00    +0.004 A 
ATOM     37  C   UNL     1       2.990 -14.279  -1.337  0.00  0.00    +0.000 A 
ATOM     38  C   UNL     1       2.061 -15.181  -1.820  0.00  0.00    +0.004 A 
ATOM     39  C   UNL     1       0.791 -14.754  -2.157  0.00  0.00    +0.045 A 
ENDBRANCH  33  34
ENDBRANCH  29  33
ENDBRANCH  11  29
TORSDOF 8
