REMARK  Name = ZINC64937941
REMARK  8 active torsions:
REMARK  status: ('A' for Active; 'I' for Inactive)
REMARK    1  A    between atoms: C_1  and  C_2
REMARK    2  A    between atoms: C_5  and  N_10
REMARK    3  A    between atoms: C_6  and  C_9
REMARK    4  A    between atoms: C_7  and  O_8
REMARK    5  A    between atoms: N_10  and  S_11
REMARK    6  A    between atoms: S_11  and  C_14
REMARK    7  A    between atoms: C_17  and  S_20
REMARK    8  A    between atoms: S_20  and  C_21
REMARK                            x       y       z     vdW  Elec       q    Type
REMARK                         _______ _______ _______ _____ _____    ______ ____
ROOT
ATOM      1  S   UNL     1       0.781  -4.979  -1.278  0.00  0.00    +0.072 S 
ATOM      2  O   UNL     1       0.558  -6.363  -1.051  0.00  0.00    -0.150 OA
ATOM      3  O   UNL     1       0.371  -4.327  -2.472  0.00  0.00    -0.150 OA
ENDROOT
BRANCH   1   4
ATOM      4  C   UNL     1       2.518  -4.718  -1.134  0.00  0.00    +0.109 A 
ATOM      5  C   UNL     1       3.107  -3.633  -1.757  0.00  0.00    +0.030 A 
ATOM      6  C   UNL     1       4.468  -3.426  -1.647  0.00  0.00    +0.017 A 
ATOM      7  C   UNL     1       5.245  -4.309  -0.908  0.00  0.00    +0.016 A 
ATOM      8  C   UNL     1       4.650  -5.399  -0.283  0.00  0.00    +0.017 A 
ATOM      9  C   UNL     1       3.288  -5.596  -0.394  0.00  0.00    +0.030 A 
BRANCH   7  10
ATOM     10  S   UNL     1       6.982  -4.050  -0.765  0.00  0.00    -0.016 S 
BRANCH  10  11
ATOM     11  C   UNL     1       7.549  -5.428   0.269  0.00  0.00    +0.448 C 
ATOM     12  F   UNL     1       7.247  -6.640  -0.363  0.00  0.00    -0.160 F 
ATOM     13  F   UNL     1       8.931  -5.332   0.458  0.00  0.00    -0.160 F 
ATOM     14  F   UNL     1       6.904  -5.376   1.509  0.00  0.00    -0.160 F 
ENDBRANCH  10  11
ENDBRANCH   7  10
ENDBRANCH   1   4
BRANCH   1  15
ATOM     15  N   UNL     1       0.059  -4.171  -0.026  0.00  0.00    -0.216 N 
ATOM     16  H   UNL     1      -0.468  -4.658   0.626  0.00  0.00    +0.174 HD
BRANCH  15  21
ATOM     17  C   UNL     1       0.672   1.451   0.443  0.00  0.00    +0.047 C 
ATOM     18  C   UNL     1       0.509  -0.042   0.320  0.00  0.00    -0.009 A 
ATOM     19  C   UNL     1       0.417  -0.626  -0.930  0.00  0.00    +0.009 A 
ATOM     20  C   UNL     1       0.268  -1.994  -1.047  0.00  0.00    +0.025 A 
ATOM     21  C   UNL     1       0.211  -2.787   0.092  0.00  0.00    +0.054 A 
ATOM     22  C   UNL     1       0.303  -2.203   1.348  0.00  0.00    +0.014 A 
ATOM     23  C   UNL     1       0.458  -0.830   1.461  0.00  0.00    +0.124 A 
ATOM     24  C   UNL     1       0.241  -3.060   2.586  0.00  0.00    +0.049 C 
BRANCH  23  25
ATOM     25  O   UNL     1       0.554  -0.255   2.688  0.00  0.00    -0.506 OA
ATOM     26  H   UNL     1      -0.296   0.004   3.069  0.00  0.00    +0.292 HD
ENDBRANCH  23  25
ENDBRANCH  15  21
ENDBRANCH   1  15
TORSDOF 6
