REMARK  Name = ZINC35688329
REMARK  9 active torsions:
REMARK  status: ('A' for Active; 'I' for Inactive)
REMARK    1  A    between atoms: C_1  and  C_2
REMARK    2  A    between atoms: C_2  and  C_3
REMARK    3  A    between atoms: C_3  and  C_5
REMARK    4  A    between atoms: C_3  and  C_6
REMARK    5  A    between atoms: C_6  and  C_8
REMARK    6  A    between atoms: C_6  and  N_27
REMARK    7  A    between atoms: C_14  and  C_17
REMARK    8  A    between atoms: N_20  and  C_21
REMARK    9  A    between atoms: N_30  and  C_31
REMARK                            x       y       z     vdW  Elec       q    Type
REMARK                         _______ _______ _______ _____ _____    ______ ____
ROOT
ATOM      1  C   UNL     1       3.849  -0.817   0.946  0.00  0.00    +0.236 C 
ATOM      2  O   UNL     1       4.531  -0.243   1.767  0.00  0.00    -0.274 OA
ATOM      3  N   UNL     1       4.007  -2.140   0.743  0.00  0.00    -0.297 N 
ATOM      4  C   UNL     1       3.277  -2.825  -0.332  0.00  0.00    +0.127 C 
ATOM      5  C   UNL     1       2.492  -3.994   0.276  0.00  0.00    +0.128 C 
ATOM      6  N   UNL     1       3.399  -4.777   1.127  0.00  0.00    -0.280 N 
ATOM      7  C   UNL     1       4.130  -4.092   2.202  0.00  0.00    +0.092 C 
ATOM      8  C   UNL     1       4.919  -2.922   1.590  0.00  0.00    +0.130 C 
ATOM      9  C   UNL     1       3.139  -3.564   3.241  0.00  0.00    +0.030 C 
ATOM     10  C   UNL     1       3.558  -6.100   0.924  0.00  0.00    +0.303 C 
ATOM     11  O   UNL     1       4.235  -6.756   1.693  0.00  0.00    -0.253 OA
ATOM     12  N   UNL     1       2.967  -6.697  -0.130  0.00  0.00    -0.296 N 
ATOM     13  H   UNL     1       2.490  -6.163  -0.784  0.00  0.00    +0.151 HD
ENDROOT
BRANCH  12  14
ATOM     14  C   UNL     1       3.044  -8.151  -0.287  0.00  0.00    +0.074 C 
ATOM     15  C   UNL     1       4.348  -8.519  -0.997  0.00  0.00    +0.022 C 
ATOM     16  C   UNL     1       4.429 -10.038  -1.161  0.00  0.00    +0.002 C 
ATOM     17  C   UNL     1       3.241 -10.525  -1.993  0.00  0.00    +0.000 C 
ATOM     18  C   UNL     1       1.937 -10.157  -1.282  0.00  0.00    +0.002 C 
ATOM     19  C   UNL     1       1.856  -8.638  -1.118  0.00  0.00    +0.022 C 
ENDBRANCH  12  14
BRANCH   1  20
ATOM     20  C   UNL     1       2.822  -0.051   0.151  0.00  0.00    +0.163 C 
BRANCH  20  21
ATOM     21  N   UNL     1       3.411   1.202  -0.327  0.00  0.00    -0.288 N 
ATOM     22  C   UNL     1       2.895   1.820  -1.408  0.00  0.00    +0.304 C 
ATOM     23  O   UNL     1       1.886   1.388  -1.931  0.00  0.00    -0.252 OA
ATOM     24  N   UNL     1       3.497   2.917  -1.909  0.00  0.00    -0.269 N 
ATOM     25  H   UNL     1       4.173   1.587   0.134  0.00  0.00    +0.151 HD
ATOM     26  H   UNL     1       4.337   3.224  -1.532  0.00  0.00    +0.156 HD
BRANCH  24  27
ATOM     27  C   UNL     1       2.910   3.614  -2.971  0.00  0.00    +0.035 A 
ATOM     28  C   UNL     1       3.708   4.191  -3.950  0.00  0.00    +0.024 A 
ATOM     29  C   UNL     1       3.127   4.878  -4.997  0.00  0.00    +0.017 A 
ATOM     30  C   UNL     1       1.750   4.992  -5.072  0.00  0.00    +0.018 A 
ATOM     31  C   UNL     1       0.952   4.418  -4.098  0.00  0.00    +0.017 A 
ATOM     32  C   UNL     1       1.528   3.725  -3.052  0.00  0.00    +0.024 A 
ATOM     33 BR   UNL     1       0.957   5.934  -6.507  0.00  0.00    -0.050 Br
ENDBRANCH  24  27
ENDBRANCH  20  21
BRANCH  20  34
ATOM     34  C   UNL     1       1.616   0.258   1.039  0.00  0.00    +0.015 C 
ATOM     35  C   UNL     1       2.090   0.941   2.323  0.00  0.00    +0.010 C 
BRANCH  34  37
ATOM     36  C   UNL     1       0.258  -1.632   0.129  0.00  0.00    +0.004 C 
ATOM     37  C   UNL     1       0.894  -1.044   1.391  0.00  0.00    +0.002 C 
ENDBRANCH  34  37
ENDBRANCH  20  34
ENDBRANCH   1  20
TORSDOF 6
