REMARK  Name = ZINC46008469
REMARK  3 active torsions:
REMARK  status: ('A' for Active; 'I' for Inactive)
REMARK    1  A    between atoms: C_6  and  N_7
REMARK    2  A    between atoms: C_14  and  C_16
REMARK    3  A    between atoms: C_22  and  C_24
REMARK                            x       y       z     vdW  Elec       q    Type
REMARK                         _______ _______ _______ _____ _____    ______ ____
ROOT
ATOM      1  N   UNL     1      -1.203  -0.718   0.010  0.00  0.00    -0.269 N 
ATOM      2  C   UNL     1      -2.375  -0.062   0.127  0.00  0.00    +0.307 C 
ATOM      3  O   UNL     1      -2.392   1.154   0.134  0.00  0.00    -0.252 OA
ATOM      4  N   UNL     1      -3.527  -0.753   0.236  0.00  0.00    -0.278 N 
ATOM      5  C   UNL     1      -3.649  -2.222   0.249  0.00  0.00    +0.110 C 
ATOM      6  C   UNL     1      -5.096  -2.503  -0.228  0.00  0.00    +0.021 C 
ATOM      7  C   UNL     1      -5.875  -1.336   0.433  0.00  0.00    +0.029 C 
ATOM      8  C   UNL     1      -4.868  -0.167   0.370  0.00  0.00    +0.108 C 
ATOM      9  H   UNL     1      -1.195  -1.685  -0.062  0.00  0.00    +0.156 HD
ENDROOT
BRANCH   1  15
ATOM     10  C   UNL     1       1.139  -0.547   0.585  0.00  0.00    +0.027 A 
ATOM     11  C   UNL     1       2.330   0.146   0.575  0.00  0.00    +0.050 A 
ATOM     12  C   UNL     1       2.401   1.393  -0.027  0.00  0.00    +0.155 A 
ATOM     13  C   UNL     1       1.259   1.948  -0.625  0.00  0.00    +0.111 A 
ATOM     14  C   UNL     1       0.057   1.240  -0.611  0.00  0.00    +0.055 A 
ATOM     15  C   UNL     1       0.002  -0.003  -0.006  0.00  0.00    +0.037 A 
ATOM     16  N   UNL     1       1.632   3.158  -1.124  0.00  0.00    -0.213 NA
ATOM     17  C   UNL     1       2.890   3.348  -0.864  0.00  0.00    +0.200 A 
ATOM     18  O   UNL     1       3.393   2.296  -0.198  0.00  0.00    -0.439 OA
BRANCH  17  19
ATOM     19  C   UNL     1       3.675   4.574  -1.254  0.00  0.00    +0.075 C 
ATOM     20  C   UNL     1       5.190   4.539  -1.045  0.00  0.00    +0.013 C 
ATOM     21  C   UNL     1       4.311   5.393  -0.129  0.00  0.00    +0.013 C 
ENDBRANCH  17  19
ENDBRANCH   1  15
BRANCH   8  22
ATOM     22  C   UNL     1      -4.947   0.650   1.633  0.00  0.00    -0.020 A 
ATOM     23  C   UNL     1      -5.650   1.840   1.656  0.00  0.00    +0.013 A 
ATOM     24  C   UNL     1      -5.701   2.551   2.809  0.00  0.00    +0.045 A 
ATOM     25  S   UNL     1      -4.737   1.533   3.914  0.00  0.00    -0.105 S 
ATOM     26  C   UNL     1      -4.336   0.226   2.766  0.00  0.00    +0.050 A 
ENDBRANCH   8  22
TORSDOF 3
