REMARK  Name = ZINC39689209
REMARK  8 active torsions:
REMARK  status: ('A' for Active; 'I' for Inactive)
REMARK    1  A    between atoms: C_4  and  C_7
REMARK    2  A    between atoms: C_7  and  C_8
REMARK    3  A    between atoms: C_8  and  C_9
REMARK    4  A    between atoms: C_9  and  C_10
REMARK    5  A    between atoms: C_14  and  C_23
REMARK    6  A    between atoms: N_25  and  C_26
REMARK    7  A    between atoms: C_26  and  C_27
REMARK    8  A    between atoms: N_30  and  C_33
REMARK                            x       y       z     vdW  Elec       q    Type
REMARK                         _______ _______ _______ _____ _____    ______ ____
ROOT
ATOM      1  C   UNL     1       5.931  -2.077   2.501  0.00  0.00    +0.216 C 
ATOM      2  O   UNL     1       5.172  -1.692   3.365  0.00  0.00    -0.276 OA
ATOM      3  N   UNL     1       7.089  -2.678   2.840  0.00  0.00    -0.300 N 
ATOM      4  C   UNL     1       8.138  -3.205   1.935  0.00  0.00    +0.121 C 
ATOM      5  C   UNL     1       9.470  -2.836   2.626  0.00  0.00    +0.100 C 
ATOM      6  C   UNL     1       9.111  -2.679   4.113  0.00  0.00    -0.004 C 
ATOM      7  C   UNL     1       7.604  -2.956   4.202  0.00  0.00    +0.115 C 
ATOM      8  C   UNL     1       9.410  -1.258   4.582  0.00  0.00    -0.010 C 
ATOM      9  C   UNL     1       9.099  -1.143   6.077  0.00  0.00    -0.082 C 
ATOM     10  N   UNL     1       9.915  -2.108   6.824  0.00  0.00    +0.379 N 
ATOM     11  C   UNL     1       9.555  -3.477   6.433  0.00  0.00    -0.082 C 
ATOM     12  C   UNL     1       9.885  -3.690   4.953  0.00  0.00    -0.010 C 
ATOM     13  H   UNL     1      10.890  -1.948   6.623  0.00  0.00    -0.086 HD
ATOM     14  H   UNL     1       9.753  -1.989   7.812  0.00  0.00    -0.086 HD
ENDROOT
BRANCH   5  15
ATOM     15  C   UNL     1      10.006  -1.540   2.073  0.00  0.00    +0.218 C 
ATOM     16  O   UNL     1       9.241  -0.693   1.663  0.00  0.00    -0.275 OA
ATOM     17  N   UNL     1      11.335  -1.323   2.035  0.00  0.00    -0.315 N 
ATOM     18  H   UNL     1      11.947  -2.000   2.364  0.00  0.00    +0.149 HD
BRANCH  17  19
ATOM     19  C   UNL     1      11.856  -0.063   1.498  0.00  0.00    +0.107 C 
BRANCH  19  20
ATOM     20  C   UNL     1      13.384  -0.071   1.570  0.00  0.00    +0.003 C 
ATOM     21  C   UNL     1      13.829  -0.091   3.035  0.00  0.00    -0.014 C 
ATOM     22  C   UNL     1      15.356  -0.019   3.100  0.00  0.00    -0.078 C 
ATOM     23  N   UNL     1      15.819   1.220   2.464  0.00  0.00    +0.382 N 
ATOM     24  C   UNL     1      15.459   1.213   1.041  0.00  0.00    -0.078 C 
ATOM     25  C   UNL     1      13.936   1.189   0.896  0.00  0.00    -0.014 C 
ATOM     26  H   UNL     1      15.385   2.011   2.916  0.00  0.00    -0.081 HD
BRANCH  23  27
ATOM     27  C   UNL     1      17.278   1.322   2.598  0.00  0.00    -0.069 C 
ATOM     28  C   UNL     1      17.667   1.411   4.088  0.00  0.00    -0.015 C 
ATOM     29  C   UNL     1      18.859   2.400   4.111  0.00  0.00    -0.002 C 
ATOM     30  C   UNL     1      18.455   3.448   3.045  0.00  0.00    -0.002 C 
ATOM     31  C   UNL     1      17.779   2.617   1.935  0.00  0.00    -0.015 C 
ENDBRANCH  23  27
ENDBRANCH  19  20
ENDBRANCH  17  19
ENDBRANCH   5  15
BRANCH   1  32
ATOM     32  C   UNL     1       5.581  -1.883   1.048  0.00  0.00    +0.096 C 
BRANCH  32  33
ATOM     33  C   UNL     1       4.225  -1.181   0.940  0.00  0.00    +0.014 C 
BRANCH  33  34
ATOM     34  C   UNL     1       3.869  -0.984  -0.535  0.00  0.00    +0.035 C 
BRANCH  34  38
ATOM     35  C   UNL     1       0.085   0.974  -0.839  0.00  0.00    +0.000 A 
ATOM     36  C   UNL     1       1.247   1.721  -0.780  0.00  0.00    +0.000 A 
ATOM     37  C   UNL     1       2.471   1.087  -0.681  0.00  0.00    +0.003 A 
ATOM     38  C   UNL     1       2.534  -0.293  -0.641  0.00  0.00    -0.047 A 
ATOM     39  C   UNL     1       1.372  -1.040  -0.700  0.00  0.00    +0.003 A 
ATOM     40  C   UNL     1       0.148  -0.406  -0.800  0.00  0.00    +0.000 A 
ENDBRANCH  34  38
ENDBRANCH  33  34
ENDBRANCH  32  33
ENDBRANCH   1  32
TORSDOF 8
