REMARK  Name = ZINC10325239
REMARK  6 active torsions:
REMARK  status: ('A' for Active; 'I' for Inactive)
REMARK    1  A    between atoms: C_1  and  C_2
REMARK    2  A    between atoms: C_2  and  C_3
REMARK    3  A    between atoms: C_3  and  C_4
REMARK    4  A    between atoms: C_15  and  C_25
REMARK    5  A    between atoms: C_18  and  C_24
REMARK    6  A    between atoms: C_20  and  C_23
REMARK                            x       y       z     vdW  Elec       q    Type
REMARK                         _______ _______ _______ _____ _____    ______ ____
ROOT
ATOM      1  C   UNL     1      -1.211   3.280   0.032  0.00  0.00    +0.050 A 
ATOM      2  C   UNL     1      -1.234   1.916   0.018  0.00  0.00    +0.093 A 
ATOM      3  C   UNL     1      -0.015   1.216   0.009  0.00  0.00    +0.253 A 
ATOM      4  O   UNL     1       0.002  -0.004   0.002  0.00  0.00    -0.268 OA
ATOM      5  N   UNL     1       1.138   1.920   0.002  0.00  0.00    -0.295 N 
ATOM      6  H   UNL     1       1.990   1.457  -0.009  0.00  0.00    +0.172 HD
ATOM      7  C   UNL     1       1.099   3.280   0.009  0.00  0.00    +0.202 A 
ATOM      8  N   UNL     1      -0.048   3.928   0.024  0.00  0.00    -0.221 NA
ATOM      9  N   UNL     1       2.274   3.988   0.002  0.00  0.00    -0.254 N 
ATOM     10  C   UNL     1       2.248   5.375   0.009  0.00  0.00    +0.222 A 
ATOM     11  N   UNL     1       1.069   5.992   0.024  0.00  0.00    -0.219 NA
ATOM     12  C   UNL     1       0.978   7.305   0.033  0.00  0.00    +0.051 A 
ATOM     13  C   UNL     1       2.166   8.060   0.026  0.00  0.00    +0.022 A 
ATOM     14  C   UNL     1       2.156   9.462   0.033  0.00  0.00    +0.015 A 
ATOM     15  C   UNL     1       3.338  10.141   0.027  0.00  0.00    -0.049 A 
ATOM     16  C   UNL     1       4.554   9.462   0.011  0.00  0.00    +0.008 A 
ATOM     17  C   UNL     1       4.600   8.101   0.003  0.00  0.00    -0.024 A 
ATOM     18  C   UNL     1       3.404   7.367   0.010  0.00  0.00    +0.079 A 
ATOM     19  N   UNL     1       3.393   6.029   0.008  0.00  0.00    -0.214 NA
ATOM     20  C   UNL     1       5.926   7.386  -0.013  0.00  0.00    +0.046 C 
ATOM     21  C   UNL     1       3.328  11.648   0.035  0.00  0.00    +0.044 C 
ATOM     22  C   UNL     1      -0.367   7.984   0.049  0.00  0.00    +0.066 C 
ATOM     23  H   UNL     1       3.123   3.519  -0.009  0.00  0.00    +0.158 HD
ENDROOT
BRANCH   1  24
ATOM     24  C   UNL     1      -2.503   4.055   0.049  0.00  0.00    +0.055 C 
BRANCH  24  26
ATOM     25  C   UNL     1      -4.175   5.203   1.509  0.00  0.00    +0.004 C 
ATOM     26  C   UNL     1      -2.862   4.417   1.492  0.00  0.00    +0.003 C 
ENDBRANCH  24  26
ENDBRANCH   1  24
TORSDOF 2
