REMARK  Name = ZINC13591990
REMARK  4 active torsions:
REMARK  status: ('A' for Active; 'I' for Inactive)
REMARK    1  A    between atoms: C_8  and  C_27
REMARK    2  A    between atoms: C_10  and  C_18
REMARK    3  A    between atoms: C_22  and  N_24
REMARK    4  A    between atoms: C_27  and  C_29
REMARK                            x       y       z     vdW  Elec       q    Type
REMARK                         _______ _______ _______ _____ _____    ______ ____
ROOT
ATOM      1  C   UNL     1      -3.359  -0.574  -0.970  0.00  0.00    +0.000 A 
ATOM      2  C   UNL     1      -3.617  -0.235  -2.286  0.00  0.00    +0.002 A 
ATOM      3  C   UNL     1      -2.667  -0.453  -3.261  0.00  0.00    +0.023 A 
ATOM      4  C   UNL     1      -1.437  -1.017  -2.928  0.00  0.00    +0.039 A 
ATOM      5  C   UNL     1      -1.189  -1.354  -1.601  0.00  0.00    +0.004 A 
ATOM      6  C   UNL     1      -2.140  -1.135  -0.630  0.00  0.00    +0.008 A 
ATOM      7  C   UNL     1       0.203  -1.929  -1.572  0.00  0.00    +0.137 C 
ATOM      8  C   UNL     1       0.190  -3.374  -1.062  0.00  0.00    +0.106 C 
ATOM      9  C   UNL     1       1.133  -3.372   0.165  0.00  0.00    +0.049 C 
ATOM     10  C   UNL     1       2.018  -2.126  -0.072  0.00  0.00    +0.066 C 
ATOM     11  N   UNL     1       1.082  -1.141  -0.694  0.00  0.00    -0.281 NA
ATOM     12  C   UNL     1       0.298  -0.599   0.442  0.00  0.00    +0.086 C 
ATOM     13  C   UNL     1       1.293  -0.500   1.615  0.00  0.00    +0.017 C 
ATOM     14  C   UNL     1       2.418  -1.524   1.286  0.00  0.00    +0.021 C 
ATOM     15  C   UNL     1       0.673  -1.868  -3.003  0.00  0.00    +0.243 C 
ATOM     16  O   UNL     1       1.749  -2.232  -3.426  0.00  0.00    -0.273 OA
ATOM     17  N   UNL     1      -0.332  -1.331  -3.721  0.00  0.00    -0.283 N 
ATOM     18  H   UNL     1      -0.292  -1.181  -4.678  0.00  0.00    +0.155 HD
ENDROOT
BRANCH   9  19
ATOM     19  C   UNL     1       1.969  -4.625   0.194  0.00  0.00    -0.040 A 
ATOM     20  C   UNL     1       3.320  -4.562  -0.093  0.00  0.00    +0.004 A 
ATOM     21  C   UNL     1       4.087  -5.711  -0.065  0.00  0.00    +0.002 A 
ATOM     22  C   UNL     1       3.503  -6.924   0.250  0.00  0.00    +0.033 A 
ATOM     23  C   UNL     1       2.153  -6.987   0.538  0.00  0.00    +0.126 A 
ATOM     24  C   UNL     1       1.387  -5.837   0.514  0.00  0.00    +0.036 A 
BRANCH  23  25
ATOM     25  N   UNL     1       1.528  -8.286   0.874  0.00  0.00    +0.056 N 
ATOM     26  O   UNL     1       2.199  -9.292   0.897  0.00  0.00    -0.126 OA
ATOM     27  O   UNL     1       0.347  -8.341   1.126  0.00  0.00    -0.126 OA
ENDBRANCH  23  25
ENDBRANCH   9  19
BRANCH   8  28
ATOM     28  C   UNL     1       0.709  -4.309  -2.123  0.00  0.00    +0.204 C 
ATOM     29  O   UNL     1       1.906  -4.442  -2.282  0.00  0.00    -0.288 OA
BRANCH  28  30
ATOM     30  C   UNL     1      -0.196  -5.030  -2.934  0.00  0.00    +0.170 A 
ATOM     31  C   UNL     1       0.139  -5.920  -3.935  0.00  0.00    +0.053 A 
ATOM     32  C   UNL     1      -1.068  -6.393  -4.468  0.00  0.00    +0.042 A 
ATOM     33  C   UNL     1      -2.070  -5.789  -3.788  0.00  0.00    +0.196 A 
ATOM     34  O   UNL     1      -1.544  -4.976  -2.865  0.00  0.00    -0.460 OA
ENDBRANCH  28  30
ENDBRANCH   8  28
TORSDOF 4
