REMARK  Name = ZINC20482333
REMARK  5 active torsions:
REMARK  status: ('A' for Active; 'I' for Inactive)
REMARK    1  A    between atoms: C_1  and  N_2
REMARK    2  A    between atoms: C_6  and  C_7
REMARK    3  A    between atoms: C_7  and  N_8
REMARK    4  A    between atoms: C_11  and  C_14
REMARK    5  A    between atoms: C_14  and  C_15
REMARK                            x       y       z     vdW  Elec       q    Type
REMARK                         _______ _______ _______ _____ _____    ______ ____
ROOT
ATOM      1  N   UNL     1      -0.706   1.976   1.219  0.00  0.00    -0.295 NA
ATOM      2  C   UNL     1      -2.126   1.603   1.197  0.00  0.00    +0.085 C 
ATOM      3  C   UNL     1      -2.775   1.982   2.530  0.00  0.00    +0.019 C 
ATOM      4  C   UNL     1      -2.628   3.490   2.753  0.00  0.00    -0.004 C 
ATOM      5  C   UNL     1      -1.143   3.860   2.723  0.00  0.00    +0.019 C 
ATOM      6  C   UNL     1      -0.541   3.426   1.384  0.00  0.00    +0.085 C 
ENDROOT
BRANCH   1   7
ATOM      7  C   UNL     1      -0.018   1.503   0.010  0.00  0.00    +0.156 C 
BRANCH   7  13
ATOM      8  C   UNL     1      -2.163  -0.362  -1.224  0.00  0.00    +0.150 C 
ATOM      9  N   UNL     1      -0.943  -0.801  -0.542  0.00  0.00    -0.338 N 
ATOM     10  C   UNL     1      -0.548  -2.095  -0.337  0.00  0.00    +0.104 A 
ATOM     11  C   UNL     1       0.624  -2.045   0.325  0.00  0.00    +0.101 A 
ATOM     12  N   UNL     1       0.939  -0.755   0.514  0.00  0.00    -0.349 N 
ATOM     13  C   UNL     1       0.002  -0.004   0.002  0.00  0.00    +0.101 A 
ATOM     14  H   UNL     1       1.869  -0.486   1.035  0.00  0.00    +0.166 HD
ENDBRANCH   7  13
ENDBRANCH   1   7
BRANCH   4  15
ATOM     15  C   UNL     1      -3.222   3.868   4.111  0.00  0.00    +0.041 C 
BRANCH  15  16
ATOM     16  C   UNL     1      -4.708   3.617   4.097  0.00  0.00    -0.012 A 
ATOM     17  C   UNL     1      -5.221   2.470   4.673  0.00  0.00    +0.006 A 
ATOM     18  C   UNL     1      -6.584   2.240   4.660  0.00  0.00    +0.000 A 
ATOM     19  C   UNL     1      -7.436   3.157   4.074  0.00  0.00    +0.003 A 
ATOM     20  C   UNL     1      -6.925   4.304   3.498  0.00  0.00    +0.038 A 
ATOM     21  C   UNL     1      -5.560   4.539   3.514  0.00  0.00    +0.127 A 
ATOM     22  F   UNL     1      -5.061   5.663   2.956  0.00  0.00    -0.205 F 
ENDBRANCH  15  16
ENDBRANCH   4  15
TORSDOF 4
