REMARK  Name = ZINC05813194
REMARK  6 active torsions:
REMARK  status: ('A' for Active; 'I' for Inactive)
REMARK    1  A    between atoms: C_4  and  C_7
REMARK    2  A    between atoms: C_9  and  C_32
REMARK    3  A    between atoms: C_11  and  C_25
REMARK    4  A    between atoms: C_11  and  O_31
REMARK    5  A    between atoms: C_12  and  O_24
REMARK    6  A    between atoms: C_15  and  O_23
REMARK                            x       y       z     vdW  Elec       q    Type
REMARK                         _______ _______ _______ _____ _____    ______ ____
ROOT
ATOM      1  C   UNL     1      -0.126   5.258  -0.110  0.00  0.00    +0.039 C 
ATOM      2  C   UNL     1      -1.017   5.788   1.059  0.00  0.00    +0.066 C 
ATOM      3  C   UNL     1      -2.410   6.097   0.425  0.00  0.00    +0.131 C 
ATOM      4  C   UNL     1      -2.283   5.608  -0.973  0.00  0.00    +0.130 C 
ATOM      5  C   UNL     1      -0.776   5.900  -1.327  0.00  0.00    +0.069 C 
ATOM      6  C   UNL     1      -0.765   5.198  -2.682  0.00  0.00    +0.152 C 
ATOM      7  C   UNL     1      -2.125   5.669  -3.260  0.00  0.00    -0.013 A 
ATOM      8  C   UNL     1      -2.997   5.968  -2.197  0.00  0.00    -0.007 A 
ATOM      9  C   UNL     1      -4.243   6.492  -2.490  0.00  0.00    +0.007 A 
ATOM     10  C   UNL     1      -4.638   6.689  -3.798  0.00  0.00    +0.000 A 
ATOM     11  C   UNL     1      -3.787   6.364  -4.837  0.00  0.00    +0.000 A 
ATOM     12  C   UNL     1      -2.531   5.855  -4.560  0.00  0.00    +0.006 A 
ENDROOT
BRANCH   1  16
ATOM     13  C   UNL     1      -0.314   0.998  -0.353  0.00  0.00    +0.000 A 
ATOM     14  C   UNL     1      -1.012   1.773  -1.260  0.00  0.00    +0.000 A 
ATOM     15  C   UNL     1      -0.955   3.152  -1.178  0.00  0.00    +0.004 A 
ATOM     16  C   UNL     1      -0.193   3.755  -0.196  0.00  0.00    -0.043 A 
ATOM     17  C   UNL     1       0.509   2.980   0.708  0.00  0.00    +0.004 A 
ATOM     18  C   UNL     1       0.448   1.601   0.630  0.00  0.00    +0.000 A 
ENDBRANCH   1  16
BRANCH   3  19
ATOM     19  C   UNL     1      -3.501   5.351   1.149  0.00  0.00    -0.012 A 
ATOM     20  C   UNL     1      -4.482   4.693   0.431  0.00  0.00    +0.006 A 
ATOM     21  C   UNL     1      -5.480   4.005   1.095  0.00  0.00    +0.000 A 
ATOM     22  C   UNL     1      -5.503   3.983   2.477  0.00  0.00    +0.000 A 
ATOM     23  C   UNL     1      -4.524   4.646   3.195  0.00  0.00    +0.000 A 
ATOM     24  C   UNL     1      -3.523   5.330   2.531  0.00  0.00    +0.006 A 
ENDBRANCH   3  19
BRANCH   2  25
ATOM     25  C   UNL     1      -1.155   4.734   2.127  0.00  0.00    -0.041 A 
ATOM     26  C   UNL     1      -1.788   3.539   1.842  0.00  0.00    +0.004 A 
ATOM     27  C   UNL     1      -1.910   2.571   2.821  0.00  0.00    +0.000 A 
ATOM     28  C   UNL     1      -1.407   2.801   4.087  0.00  0.00    +0.000 A 
ATOM     29  C   UNL     1      -0.778   3.998   4.374  0.00  0.00    +0.000 A 
ATOM     30  C   UNL     1      -0.652   4.965   3.394  0.00  0.00    +0.004 A 
ENDBRANCH   2  25
BRANCH   6  31
ATOM     31  O   UNL     1       0.326   5.653  -3.486  0.00  0.00    -0.387 OA
ATOM     32  H   UNL     1       0.374   5.235  -4.357  0.00  0.00    +0.210 HD
ENDBRANCH   6  31
BRANCH   4  33
ATOM     33  O   UNL     1      -2.329   4.182  -0.896  0.00  0.00    -0.380 OA
ATOM     34  H   UNL     1      -3.217   3.824  -0.766  0.00  0.00    +0.211 HD
ENDBRANCH   4  33
BRANCH   3  35
ATOM     35  O   UNL     1      -2.668   7.503   0.443  0.00  0.00    -0.380 OA
ATOM     36  H   UNL     1      -2.760   7.874   1.331  0.00  0.00    +0.211 HD
ENDBRANCH   3  35
TORSDOF 6
