REMARK  Name = ZINC35689276
REMARK  15 active torsions:
REMARK  status: ('A' for Active; 'I' for Inactive)
REMARK    1  A    between atoms: C_1  and  C_2
REMARK    2  A    between atoms: C_2  and  C_3
REMARK    3  A    between atoms: C_3  and  C_4
REMARK    4  A    between atoms: C_4  and  C_5
REMARK    5  A    between atoms: C_5  and  C_6
REMARK    6  A    between atoms: C_6  and  N_7
REMARK    7  A    between atoms: N_7  and  C_8
REMARK    8  A    between atoms: C_8  and  C_10
REMARK    9  A    between atoms: C_8  and  C_12
REMARK   10  A    between atoms: C_10  and  C_11
REMARK   11  A    between atoms: N_22  and  C_23
REMARK   12  A    between atoms: N_33  and  C_34
REMARK   13  A    between atoms: C_34  and  C_35
REMARK   14  A    between atoms: C_34  and  C_36
REMARK   15  A    between atoms: C_34  and  C_37
REMARK                            x       y       z     vdW  Elec       q    Type
REMARK                         _______ _______ _______ _____ _____    ______ ____
ROOT
ATOM      1  C   UNL     1       1.757  -6.482   5.155  0.00  0.00    +0.138 A 
ATOM      2  N   UNL     1       2.403  -6.863   6.215  0.00  0.00    -0.231 NA
ATOM      3  C   UNL     1       2.198  -8.083   6.772  0.00  0.00    +0.078 A 
ATOM      4  C   UNL     1       2.892  -8.493   7.912  0.00  0.00    +0.028 A 
ATOM      5  C   UNL     1       2.652  -9.740   8.445  0.00  0.00    +0.002 A 
ATOM      6  C   UNL     1       1.726 -10.596   7.863  0.00  0.00    +0.001 A 
ATOM      7  C   UNL     1       1.028 -10.214   6.738  0.00  0.00    +0.015 A 
ATOM      8  C   UNL     1       1.257  -8.956   6.183  0.00  0.00    +0.065 A 
ATOM      9  C   UNL     1       0.542  -8.494   4.984  0.00  0.00    +0.266 A 
ATOM     10  O   UNL     1      -0.281  -9.198   4.429  0.00  0.00    -0.267 OA
ATOM     11  N   UNL     1       0.831  -7.254   4.526  0.00  0.00    -0.263 N 
ENDROOT
BRANCH  11  12
ATOM     12  C   UNL     1       0.174  -6.763   3.389  0.00  0.00    +0.053 A 
ATOM     13  C   UNL     1       0.451  -7.301   2.140  0.00  0.00    +0.029 A 
ATOM     14  C   UNL     1      -0.197  -6.817   1.021  0.00  0.00    +0.042 A 
ATOM     15  C   UNL     1      -1.124  -5.795   1.144  0.00  0.00    +0.142 A 
ATOM     16  C   UNL     1      -1.402  -5.257   2.390  0.00  0.00    +0.078 A 
ATOM     17  C   UNL     1      -0.759  -5.743   3.513  0.00  0.00    +0.049 A 
ATOM     18 CL   UNL     1      -2.565  -3.976   2.542  0.00  0.00    -0.081 Cl
ATOM     19  F   UNL     1      -1.757  -5.323   0.048  0.00  0.00    -0.204 F 
ENDBRANCH  11  12
BRANCH   1  20
ATOM     20  C   UNL     1       2.043  -5.111   4.598  0.00  0.00    +0.144 C 
BRANCH  20  21
ATOM     21  N   UNL     1       2.859  -5.237   3.387  0.00  0.00    -0.276 N 
ATOM     22  C   UNL     1       4.071  -5.823   3.449  0.00  0.00    +0.303 C 
ATOM     23  O   UNL     1       4.488  -6.247   4.509  0.00  0.00    -0.253 OA
ATOM     24  N   UNL     1       4.821  -5.938   2.335  0.00  0.00    -0.294 N 
ATOM     25  H   UNL     1       4.488  -5.600   1.489  0.00  0.00    +0.151 HD
BRANCH  24  26
ATOM     26  C   UNL     1       6.138  -6.575   2.402  0.00  0.00    +0.028 C 
ATOM     27  C   UNL     1       5.984  -8.015   2.895  0.00  0.00    +0.031 C 
ATOM     28  C   UNL     1       6.775  -6.578   1.011  0.00  0.00    +0.031 C 
ATOM     29  C   UNL     1       7.032  -5.798   3.370  0.00  0.00    +0.031 C 
ENDBRANCH  24  26
BRANCH  21  30
ATOM     30  C   UNL     1       2.357  -4.725   2.110  0.00  0.00    +0.110 C 
BRANCH  30  31
ATOM     31  C   UNL     1       2.787  -3.267   1.940  0.00  0.00    +0.019 C 
BRANCH  31  32
ATOM     32  C   UNL     1       2.262  -2.733   0.605  0.00  0.00    +0.002 C 
BRANCH  32  33
ATOM     33  C   UNL     1       2.692  -1.274   0.435  0.00  0.00    -0.000 C 
BRANCH  33  35
ATOM     34  C   UNL     1       2.598   0.718  -1.069  0.00  0.00    +0.004 C 
ATOM     35  C   UNL     1       2.168  -0.740  -0.899  0.00  0.00    -0.003 C 
ENDBRANCH  33  35
ENDBRANCH  32  33
ENDBRANCH  31  32
ENDBRANCH  30  31
ENDBRANCH  21  30
ENDBRANCH  20  21
BRANCH  20  36
ATOM     36  C   UNL     1       2.801  -4.285   5.639  0.00  0.00    +0.027 C 
ATOM     37  C   UNL     1       2.967  -2.852   5.131  0.00  0.00    +0.006 C 
ENDBRANCH  20  36
ENDBRANCH   1  20
TORSDOF 10
