REMARK  Name = ZINC28939118
REMARK  10 active torsions:
REMARK  status: ('A' for Active; 'I' for Inactive)
REMARK    1  A    between atoms: C_1  and  C_2
REMARK    2  A    between atoms: C_9  and  C_16
REMARK    3  A    between atoms: C_11  and  O_12
REMARK    4  A    between atoms: C_16  and  O_17
REMARK    5  A    between atoms: O_17  and  C_18
REMARK    6  A    between atoms: C_18  and  C_20
REMARK    7  A    between atoms: C_20  and  C_22
REMARK    8  A    between atoms: C_20  and  N_29
REMARK    9  A    between atoms: C_22  and  C_23
REMARK   10  A    between atoms: C_30  and  C_32
REMARK                            x       y       z     vdW  Elec       q    Type
REMARK                         _______ _______ _______ _____ _____    ______ ____
ROOT
ATOM      1  C   UNL     1      -0.511  -9.256   1.166  0.00  0.00    +0.328 C 
ATOM      2  O   UNL     1      -0.527  -8.782   2.277  0.00  0.00    -0.249 OA
ENDROOT
BRANCH   1   3
ATOM      3  O   UNL     1      -0.433  -8.452   0.094  0.00  0.00    -0.459 OA
BRANCH   3   4
ATOM      4  C   UNL     1      -0.370  -7.024   0.344  0.00  0.00    +0.268 C 
BRANCH   4  13
ATOM      5  C   UNL     1      -0.617   1.507  -2.165  0.00  0.00    +0.109 C 
ATOM      6  C   UNL     1      -0.606  -0.000  -2.168  0.00  0.00    +0.214 C 
ATOM      7  O   UNL     1      -1.141  -0.609  -3.070  0.00  0.00    -0.276 OA
ATOM      8  N   UNL     1       0.000  -0.672  -1.169  0.00  0.00    -0.286 N 
ATOM      9  C   UNL     1      -0.071  -2.064  -1.121  0.00  0.00    +0.037 A 
ATOM     10  C   UNL     1      -0.140  -2.712   0.113  0.00  0.00    +0.024 A 
ATOM     11  C   UNL     1      -0.216  -4.072   0.175  0.00  0.00    +0.014 A 
ATOM     12  C   UNL     1      -0.211  -4.825  -1.005  0.00  0.00    +0.024 A 
ATOM     13  C   UNL     1      -0.286  -6.287  -0.967  0.00  0.00    +0.007 A 
ATOM     14  C   UNL     1      -0.279  -6.961  -2.147  0.00  0.00    +0.095 A 
ATOM     15  C   UNL     1      -0.200  -6.248  -3.361  0.00  0.00    +0.285 A 
ATOM     16  O   UNL     1      -0.132  -4.908  -3.389  0.00  0.00    -0.425 OA
ATOM     17  C   UNL     1      -0.136  -4.178  -2.253  0.00  0.00    +0.141 A 
ATOM     18  C   UNL     1      -0.065  -2.794  -2.300  0.00  0.00    +0.070 A 
ATOM     19  H   UNL     1       0.550  -0.122  -0.391  0.00  0.00    +0.155 HD
BRANCH  15  20
ATOM     20  O   UNL     1      -0.194  -6.865  -4.412  0.00  0.00    -0.480 OA
ATOM     21  H   UNL     1      -0.133  -6.323  -5.367  0.00  0.00    +0.295 HD
ENDBRANCH  15  20
ENDBRANCH   4  13
ENDBRANCH   3   4
ENDBRANCH   1   3
BRANCH   1  22
ATOM     22  C   UNL     1      -0.581 -10.751   0.984  0.00  0.00    +0.186 C 
BRANCH  22  23
ATOM     23  N   UNL     1      -0.660 -11.399   2.295  0.00  0.00    -0.298 N 
ATOM     24  C   UNL     1      -0.235 -12.669   2.445  0.00  0.00    +0.245 C 
ATOM     25  O   UNL     1       0.214 -13.277   1.493  0.00  0.00    -0.270 OA
ATOM     26  H   UNL     1      -1.066 -10.850   3.157  0.00  0.00    +0.150 HD
BRANCH  24  27
ATOM     27  C   UNL     1      -0.315 -13.324   3.769  0.00  0.00    +0.037 A 
ATOM     28  C   UNL     1      -0.824 -12.627   4.866  0.00  0.00    +0.013 A 
ATOM     29  C   UNL     1      -0.901 -13.246   6.096  0.00  0.00    +0.001 A 
ATOM     30  C   UNL     1      -0.464 -14.550   6.247  0.00  0.00    +0.000 A 
ATOM     31  C   UNL     1       0.047 -15.244   5.165  0.00  0.00    +0.001 A 
ATOM     32  C   UNL     1       0.124 -14.639   3.928  0.00  0.00    +0.013 A 
ENDBRANCH  24  27
ENDBRANCH  22  23
BRANCH  22  33
ATOM     33  C   UNL     1      -1.821 -11.107   0.163  0.00  0.00    +0.069 C 
BRANCH  33  34
ATOM     34  C   UNL     1      -1.825 -12.587  -0.124  0.00  0.00    -0.045 A 
ATOM     35  C   UNL     1      -1.220 -13.071  -1.268  0.00  0.00    +0.004 A 
ATOM     36  C   UNL     1      -1.219 -14.428  -1.529  0.00  0.00    +0.000 A 
ATOM     37  C   UNL     1      -1.834 -15.301  -0.650  0.00  0.00    +0.000 A 
ATOM     38  C   UNL     1      -2.444 -14.816   0.491  0.00  0.00    +0.000 A 
ATOM     39  C   UNL     1      -2.440 -13.459   0.755  0.00  0.00    +0.004 A 
ENDBRANCH  33  34
ENDBRANCH  22  33
ENDBRANCH   1  22
TORSDOF 9
