REMARK  Name = ZINC35564285
REMARK  9 active torsions:
REMARK  status: ('A' for Active; 'I' for Inactive)
REMARK    1  A    between atoms: C_1  and  C_2
REMARK    2  A    between atoms: C_2  and  C_3
REMARK    3  A    between atoms: C_3  and  C_4
REMARK    4  A    between atoms: C_4  and  N_5
REMARK    5  A    between atoms: C_21  and  C_23
REMARK    6  A    between atoms: C_23  and  N_24
REMARK    7  A    between atoms: N_27  and  C_30
REMARK    8  A    between atoms: C_30  and  C_31
REMARK    9  A    between atoms: C_31  and  C_32
REMARK                            x       y       z     vdW  Elec       q    Type
REMARK                         _______ _______ _______ _____ _____    ______ ____
ROOT
ATOM      1  N   UNL     1      -1.979  -4.761   0.001  0.00  0.00    -0.299 N 
ATOM      2  C   UNL     1      -3.015  -3.899   0.010  0.00  0.00    +0.302 C 
ATOM      3  O   UNL     1      -2.811  -2.704   0.101  0.00  0.00    -0.253 OA
ATOM      4  N   UNL     1      -4.278  -4.361  -0.082  0.00  0.00    -0.284 N 
ATOM      5  C   UNL     1      -4.474  -5.811  -0.077  0.00  0.00    +0.111 C 
ATOM      6  C   UNL     1      -4.836  -6.230   1.333  0.00  0.00    +0.038 C 
ATOM      7  C   UNL     1      -6.346  -6.109   1.554  0.00  0.00    +0.109 C 
ATOM      8  N   UNL     1      -6.909  -4.890   0.953  0.00  0.00    -0.300 N 
ATOM      9  C   UNL     1      -6.269  -3.589   1.045  0.00  0.00    +0.127 C 
ATOM     10  C   UNL     1      -5.327  -3.407  -0.172  0.00  0.00    +0.128 C 
ATOM     11  C   UNL     1      -8.093  -4.986   0.274  0.00  0.00    +0.199 A 
ATOM     12  N   UNL     1      -8.630  -3.873  -0.295  0.00  0.00    -0.295 N 
ATOM     13  H   UNL     1      -8.175  -3.020  -0.218  0.00  0.00    +0.172 HD
ATOM     14  C   UNL     1      -9.798  -3.961  -0.967  0.00  0.00    +0.253 A 
ATOM     15  O   UNL     1     -10.293  -2.973  -1.484  0.00  0.00    -0.268 OA
ATOM     16  C   UNL     1     -10.432  -5.212  -1.061  0.00  0.00    +0.094 A 
ATOM     17  C   UNL     1      -9.846  -6.294  -0.470  0.00  0.00    +0.064 A 
ATOM     18  N   UNL     1      -8.691  -6.157   0.178  0.00  0.00    -0.219 NA
ATOM     19  H   UNL     1      -2.144  -5.717   0.004  0.00  0.00    +0.150 HD
ENDROOT
BRANCH   1  20
ATOM     20  C   UNL     1      -0.605  -4.254  -0.014  0.00  0.00    +0.106 C 
BRANCH  20  21
ATOM     21  C   UNL     1       0.372  -5.431  -0.022  0.00  0.00    +0.018 C 
BRANCH  21  23
ATOM     22  C   UNL     1       2.785  -6.080  -0.046  0.00  0.00    +0.004 C 
ATOM     23  C   UNL     1       1.808  -4.902  -0.038  0.00  0.00    -0.002 C 
ENDBRANCH  21  23
ENDBRANCH  20  21
ENDBRANCH   1  20
BRANCH  17  24
ATOM     24  C   UNL     1     -10.505  -7.647  -0.555  0.00  0.00    +0.140 C 
BRANCH  24  25
ATOM     25  N   UNL     1      -9.654  -8.558  -1.332  0.00  0.00    -0.300 NA
ATOM     26  C   UNL     1      -9.565  -8.129  -2.735  0.00  0.00    +0.066 C 
ATOM     27  C   UNL     1      -8.624  -9.067  -3.493  0.00  0.00    -0.063 C 
ATOM     28  N   UNL     1      -9.136 -10.442  -3.415  0.00  0.00    +0.382 N 
ATOM     29  C   UNL     1      -9.195 -10.865  -2.010  0.00  0.00    -0.063 C 
ATOM     30  C   UNL     1     -10.141  -9.941  -1.239  0.00  0.00    +0.066 C 
ATOM     31  H   UNL     1     -10.060 -10.480  -3.817  0.00  0.00    -0.082 HD
BRANCH  28  32
ATOM     32  C   UNL     1      -8.242 -11.340  -4.159  0.00  0.00    -0.074 C 
BRANCH  32  33
ATOM     33  C   UNL     1      -8.839 -12.748  -4.183  0.00  0.00    +0.016 C 
BRANCH  33  34
ATOM     34  C   UNL     1      -7.922 -13.669  -4.946  0.00  0.00    -0.049 A 
ATOM     35  C   UNL     1      -8.077 -13.824  -6.311  0.00  0.00    +0.003 A 
ATOM     36  C   UNL     1      -7.236 -14.669  -7.011  0.00  0.00    +0.000 A 
ATOM     37  C   UNL     1      -6.240 -15.359  -6.346  0.00  0.00    +0.000 A 
ATOM     38  C   UNL     1      -6.084 -15.203  -4.981  0.00  0.00    +0.000 A 
ATOM     39  C   UNL     1      -6.922 -14.355  -4.282  0.00  0.00    +0.003 A 
ENDBRANCH  33  34
ENDBRANCH  32  33
ENDBRANCH  28  32
ENDBRANCH  24  25
ENDBRANCH  17  24
TORSDOF 8
