REMARK  Name = ZINC05915186
REMARK  8 active torsions:
REMARK  status: ('A' for Active; 'I' for Inactive)
REMARK    1  A    between atoms: C_1  and  C_2
REMARK    2  A    between atoms: C_2  and  C_27
REMARK    3  A    between atoms: C_7  and  C_11
REMARK    4  A    between atoms: C_11  and  S_12
REMARK    5  A    between atoms: S_12  and  N_15
REMARK    6  A    between atoms: N_15  and  C_16
REMARK    7  A    between atoms: C_19  and  O_22
REMARK    8  A    between atoms: O_22  and  C_23
REMARK                            x       y       z     vdW  Elec       q    Type
REMARK                         _______ _______ _______ _____ _____    ______ ____
ROOT
ATOM      1  S   UNL     1      -2.544   3.713  -3.042  0.00  0.00    +0.044 S 
ATOM      2  O   UNL     1      -2.226   5.093  -2.914  0.00  0.00    -0.155 OA
ATOM      3  O   UNL     1      -1.651   2.822  -3.695  0.00  0.00    -0.155 OA
ENDROOT
BRANCH   1   4
ATOM      4  N   UNL     1      -3.921   3.681  -3.962  0.00  0.00    -0.221 N 
ATOM      5  H   UNL     1      -3.962   3.125  -4.755  0.00  0.00    +0.173 HD
BRANCH   4   6
ATOM      6  C   UNL     1      -5.026   4.457  -3.594  0.00  0.00    +0.048 A 
ATOM      7  C   UNL     1      -6.145   3.851  -3.036  0.00  0.00    +0.028 A 
ATOM      8  C   UNL     1      -7.232   4.618  -2.667  0.00  0.00    +0.048 A 
ATOM      9  C   UNL     1      -7.213   5.991  -2.865  0.00  0.00    +0.130 A 
ATOM     10  C   UNL     1      -6.099   6.595  -3.428  0.00  0.00    +0.048 A 
ATOM     11  C   UNL     1      -5.008   5.831  -3.791  0.00  0.00    +0.028 A 
BRANCH   9  12
ATOM     12  O   UNL     1      -8.287   6.744  -2.507  0.00  0.00    -0.406 OA
BRANCH  12  13
ATOM     13  C   UNL     1      -9.400   6.056  -1.933  0.00  0.00    +0.575 C 
ATOM     14  F   UNL     1      -8.993   5.403  -0.765  0.00  0.00    -0.133 F 
ATOM     15  F   UNL     1     -10.409   6.976  -1.626  0.00  0.00    -0.133 F 
ATOM     16  F   UNL     1      -9.889   5.116  -2.847  0.00  0.00    -0.133 F 
ENDBRANCH  12  13
ENDBRANCH   9  12
ENDBRANCH   4   6
ENDBRANCH   1   4
BRANCH   1  17
ATOM     17  C   UNL     1      -3.040   3.035  -1.435  0.00  0.00    +0.203 C 
BRANCH  17  23
ATOM     18  C   UNL     1      -3.299   3.388   1.717  0.00  0.00    +0.012 C 
ATOM     19  C   UNL     1      -2.155   2.656   1.013  0.00  0.00    -0.018 C 
ATOM     20  C   UNL     1      -0.749   3.062   1.590  0.00  0.00    +0.003 C 
ATOM     21  C   UNL     1      -0.719   4.604   1.214  0.00  0.00    +0.005 C 
ATOM     22  C   UNL     1      -1.485   4.684  -0.127  0.00  0.00    +0.017 C 
ATOM     23  C   UNL     1      -1.899   3.212  -0.432  0.00  0.00    +0.055 C 
ATOM     24  C   UNL     1      -0.582   2.506  -0.784  0.00  0.00    +0.142 C 
ATOM     25  O   UNL     1      -0.229   2.115  -1.871  0.00  0.00    -0.297 OA
ATOM     26  C   UNL     1       0.183   2.403   0.527  0.00  0.00    +0.079 C 
ATOM     27  C   UNL     1      -2.363   1.140   1.017  0.00  0.00    +0.012 C 
ENDBRANCH  17  23
ENDBRANCH   1  17
TORSDOF 6
