REMARK  Name = ZINC08432366
REMARK  5 active torsions:
REMARK  status: ('A' for Active; 'I' for Inactive)
REMARK    1  A    between atoms: C_1  and  C_2
REMARK    2  A    between atoms: C_2  and  C_3
REMARK    3  A    between atoms: C_6  and  C_30
REMARK    4  A    between atoms: C_9  and  C_11
REMARK    5  A    between atoms: C_12  and  C_24
REMARK                            x       y       z     vdW  Elec       q    Type
REMARK                         _______ _______ _______ _____ _____    ______ ____
ROOT
ATOM      1  C   UNL     1       0.388  -5.347   0.374  0.00  0.00    +0.070 A 
ATOM      2  C   UNL     1       0.891  -5.620  -0.900  0.00  0.00    +0.005 A 
ATOM      3  C   UNL     1       0.358  -6.784  -1.624  0.00  0.00    +0.008 A 
ATOM      4  C   UNL     1       0.829  -7.101  -2.903  0.00  0.00    +0.025 A 
ATOM      5  C   UNL     1       0.319  -8.195  -3.565  0.00  0.00    +0.019 A 
ATOM      6  C   UNL     1      -0.658  -8.983  -2.970  0.00  0.00    +0.017 A 
ATOM      7  C   UNL     1      -1.131  -8.682  -1.711  0.00  0.00    +0.027 A 
ATOM      8  C   UNL     1      -0.630  -7.581  -1.022  0.00  0.00    +0.050 A 
ATOM      9  N   UNL     1      -1.103  -7.280   0.240  0.00  0.00    -0.322 N 
ATOM     10  H   UNL     1      -1.785  -7.844   0.636  0.00  0.00    +0.169 HD
ATOM     11  C   UNL     1      -0.639  -6.228   0.936  0.00  0.00    +0.259 A 
ATOM     12  O   UNL     1      -1.081  -6.002   2.049  0.00  0.00    -0.267 OA
ATOM     13 BR   UNL     1       0.952  -8.627  -5.294  0.00  0.00    -0.050 Br
ENDROOT
BRANCH   1  19
ATOM     14  C   UNL     1       0.639  -0.827   2.171  0.00  0.00    +0.235 C 
ATOM     15  O   UNL     1       1.300  -0.110   2.893  0.00  0.00    -0.274 OA
ATOM     16  N   UNL     1       1.006  -2.108   1.974  0.00  0.00    -0.185 N 
ATOM     17  C   UNL     1       2.178  -2.765   2.576  0.00  0.00    +0.137 C 
ATOM     18  C   UNL     1       2.115  -4.200   2.018  0.00  0.00    +0.087 C 
ATOM     19  C   UNL     1       0.884  -4.197   1.140  0.00  0.00    +0.075 C 
ATOM     20  N   UNL     1       0.335  -3.030   1.173  0.00  0.00    -0.181 NA
BRANCH  17  21
ATOM     21  C   UNL     1       2.068  -2.771   4.079  0.00  0.00    -0.025 A 
ATOM     22  C   UNL     1       0.843  -2.992   4.682  0.00  0.00    +0.005 A 
ATOM     23  C   UNL     1       0.743  -2.998   6.060  0.00  0.00    +0.000 A 
ATOM     24  C   UNL     1       1.867  -2.784   6.836  0.00  0.00    +0.000 A 
ATOM     25  C   UNL     1       3.091  -2.564   6.234  0.00  0.00    +0.000 A 
ATOM     26  C   UNL     1       3.192  -2.562   4.855  0.00  0.00    +0.005 A 
ENDBRANCH  17  21
BRANCH  14  28
ATOM     27  C   UNL     1      -0.783   1.184   1.881  0.00  0.00    +0.013 C 
ATOM     28  C   UNL     1      -0.593  -0.284   1.494  0.00  0.00    +0.094 C 
ENDBRANCH  14  28
ENDBRANCH   1  19
BRANCH   2  29
ATOM     29  C   UNL     1       1.929  -4.762  -1.505  0.00  0.00    -0.016 A 
ATOM     30  C   UNL     1       1.634  -3.442  -1.854  0.00  0.00    +0.008 A 
ATOM     31  C   UNL     1       2.609  -2.647  -2.419  0.00  0.00    +0.001 A 
ATOM     32  C   UNL     1       3.878  -3.153  -2.639  0.00  0.00    +0.000 A 
ATOM     33  C   UNL     1       4.178  -4.460  -2.296  0.00  0.00    +0.001 A 
ATOM     34  C   UNL     1       3.214  -5.265  -1.725  0.00  0.00    +0.008 A 
ENDBRANCH   2  29
TORSDOF 4
