REMARK  Name = ZINC37368760
REMARK  7 active torsions:
REMARK  status: ('A' for Active; 'I' for Inactive)
REMARK    1  A    between atoms: C_1  and  C_2
REMARK    2  A    between atoms: C_6  and  C_8
REMARK    3  A    between atoms: C_8  and  O_9
REMARK    4  A    between atoms: O_9  and  C_10
REMARK    5  A    between atoms: C_13  and  C_20
REMARK    6  A    between atoms: C_15  and  S_16
REMARK    7  A    between atoms: S_16  and  N_19
REMARK                            x       y       z     vdW  Elec       q    Type
REMARK                         _______ _______ _______ _____ _____    ______ ____
ROOT
ATOM      1  C   UNL     1       1.599  -3.745   4.055  0.00  0.00    +0.147 A 
ATOM      2  C   UNL     1       0.509  -4.191   4.788  0.00  0.00    +0.048 A 
ATOM      3  C   UNL     1       0.707  -4.880   5.969  0.00  0.00    +0.007 A 
ATOM      4  C   UNL     1       1.991  -5.125   6.420  0.00  0.00    -0.048 A 
ATOM      5  C   UNL     1       3.079  -4.681   5.692  0.00  0.00    +0.035 A 
ATOM      6  C   UNL     1       2.886  -3.997   4.507  0.00  0.00    +0.147 A 
ATOM      7  C   UNL     1       2.205  -5.877   7.708  0.00  0.00    +0.044 C 
ENDROOT
BRANCH   6   8
ATOM      8  S   UNL     1       4.273  -3.437   3.575  0.00  0.00    +0.059 S 
ATOM      9  O   UNL     1       4.031  -2.071   3.268  0.00  0.00    -0.153 OA
ATOM     10  O   UNL     1       5.432  -3.867   4.276  0.00  0.00    -0.153 OA
BRANCH   8  11
ATOM     11  N   UNL     1       4.259  -4.257   2.136  0.00  0.00    -0.203 NA
ATOM     12  H   UNL     1       4.620  -3.841   1.338  0.00  0.00    +0.144 HD
ATOM     13  H   UNL     1       3.889  -5.152   2.092  0.00  0.00    +0.144 HD
ENDBRANCH   8  11
ENDBRANCH   6   8
BRANCH   1  14
ATOM     14  O   UNL     1       1.406  -3.067   2.893  0.00  0.00    -0.485 OA
BRANCH  14  15
ATOM     15  C   UNL     1       0.054  -2.845   2.489  0.00  0.00    +0.264 C 
BRANCH  15  21
ATOM     16  C   UNL     1      -0.018   1.503   0.010  0.00  0.00    +0.044 C 
ATOM     17  C   UNL     1       0.002  -0.004   0.002  0.00  0.00    -0.050 A 
ATOM     18  C   UNL     1       0.006  -0.689  -1.199  0.00  0.00    +0.003 A 
ATOM     19  C   UNL     1       0.025  -2.071  -1.207  0.00  0.00    +0.001 A 
ATOM     20  C   UNL     1       0.040  -2.768  -0.013  0.00  0.00    +0.007 A 
ATOM     21  C   UNL     1       0.037  -2.084   1.188  0.00  0.00    -0.010 A 
ATOM     22  C   UNL     1       0.023  -0.702   1.195  0.00  0.00    +0.010 A 
ENDBRANCH  15  21
ENDBRANCH  14  15
ENDBRANCH   1  14
TORSDOF 5
