REMARK  Name = ZINC64988951
REMARK  5 active torsions:
REMARK  status: ('A' for Active; 'I' for Inactive)
REMARK    1  A    between atoms: C_4  and  C_7
REMARK    2  A    between atoms: C_7  and  N_8
REMARK    3  A    between atoms: N_11  and  C_14
REMARK    4  A    between atoms: N_22  and  C_23
REMARK    5  A    between atoms: C_28  and  C_29
REMARK                            x       y       z     vdW  Elec       q    Type
REMARK                         _______ _______ _______ _____ _____    ______ ____
ROOT
ATOM      1  C   UNL     1       3.952  -2.954   4.120  0.00  0.00    +0.081 C 
ATOM      2  C   UNL     1       4.386  -4.208   3.357  0.00  0.00    +0.041 C 
ATOM      3  C   UNL     1       4.437  -5.396   4.323  0.00  0.00    +0.111 C 
ATOM      4  N   UNL     1       3.135  -5.518   4.992  0.00  0.00    -0.285 N 
ATOM      5  C   UNL     1       2.581  -4.343   5.680  0.00  0.00    +0.111 C 
ATOM      6  C   UNL     1       2.551  -3.167   4.699  0.00  0.00    +0.041 C 
ATOM      7  C   UNL     1       2.460  -6.684   4.976  0.00  0.00    +0.306 C 
ATOM      8  O   UNL     1       2.882  -7.622   4.326  0.00  0.00    -0.252 OA
ATOM      9  N   UNL     1       1.317  -6.812   5.679  0.00  0.00    -0.269 N 
ATOM     10  H   UNL     1       0.946  -6.047   6.144  0.00  0.00    +0.156 HD
ENDROOT
BRANCH   1  14
ATOM     11  N   UNL     1       3.349  -0.559   1.435  0.00  0.00    -0.280 N 
ATOM     12  C   UNL     1       4.337   0.271   2.141  0.00  0.00    +0.128 C 
ATOM     13  C   UNL     1       4.739  -0.587   3.357  0.00  0.00    +0.128 C 
ATOM     14  N   UNL     1       3.934  -1.809   3.207  0.00  0.00    -0.281 N 
ATOM     15  C   UNL     1       3.179  -1.706   2.105  0.00  0.00    +0.305 C 
ATOM     16  O   UNL     1       2.411  -2.578   1.744  0.00  0.00    -0.252 OA
BRANCH  11  17
ATOM     17  C   UNL     1       2.656  -0.187   0.200  0.00  0.00    +0.144 C 
BRANCH  17  21
ATOM     18  C   UNL     1      -0.963   1.871   1.158  0.00  0.00    +0.000 A 
ATOM     19  C   UNL     1       0.211   2.580   0.988  0.00  0.00    +0.000 A 
ATOM     20  C   UNL     1       1.382   1.914   0.678  0.00  0.00    +0.005 A 
ATOM     21  C   UNL     1       1.379   0.539   0.538  0.00  0.00    -0.030 A 
ATOM     22  C   UNL     1       0.205  -0.170   0.710  0.00  0.00    +0.005 A 
ATOM     23  C   UNL     1      -0.966   0.496   1.018  0.00  0.00    +0.000 A 
ENDBRANCH  17  21
ENDBRANCH  11  17
ENDBRANCH   1  14
BRANCH   9  24
ATOM     24  C   UNL     1       0.667  -8.050   5.739  0.00  0.00    +0.046 A 
ATOM     25  C   UNL     1       1.352  -9.213   5.410  0.00  0.00    +0.024 A 
ATOM     26  C   UNL     1       0.708 -10.433   5.470  0.00  0.00    +0.002 A 
ATOM     27  C   UNL     1      -0.619 -10.497   5.856  0.00  0.00    +0.001 A 
ATOM     28  C   UNL     1      -1.303  -9.342   6.184  0.00  0.00    +0.014 A 
ATOM     29  C   UNL     1      -0.663  -8.119   6.132  0.00  0.00    +0.076 A 
BRANCH  29  30
ATOM     30  C   UNL     1      -1.408  -6.861   6.495  0.00  0.00    +0.419 C 
ATOM     31  F   UNL     1      -2.721  -7.184   6.855  0.00  0.00    -0.166 F 
ATOM     32  F   UNL     1      -0.770  -6.235   7.571  0.00  0.00    -0.166 F 
ATOM     33  F   UNL     1      -1.426  -5.995   5.396  0.00  0.00    -0.166 F 
ENDBRANCH  29  30
ENDBRANCH   9  24
TORSDOF 5
