REMARK  Name = ZINC42474562
REMARK  9 active torsions:
REMARK  status: ('A' for Active; 'I' for Inactive)
REMARK    1  A    between atoms: C_1  and  C_2
REMARK    2  A    between atoms: C_2  and  C_4
REMARK    3  A    between atoms: C_2  and  N_15
REMARK    4  A    between atoms: N_6  and  C_7
REMARK    5  A    between atoms: N_18  and  C_21
REMARK    6  A    between atoms: C_21  and  C_22
REMARK    7  A    between atoms: N_24  and  C_25
REMARK    8  A    between atoms: C_25  and  C_26
REMARK    9  A    between atoms: C_25  and  C_27
REMARK                            x       y       z     vdW  Elec       q    Type
REMARK                         _______ _______ _______ _____ _____    ______ ____
ROOT
ATOM      1  N   UNL     1       1.072  -0.690   0.656  0.00  0.00    +0.389 N 
ATOM      2  C   UNL     1       2.397  -0.072   0.515  0.00  0.00    -0.062 C 
ATOM      3  C   UNL     1       3.443  -0.944   1.213  0.00  0.00    +0.066 C 
ATOM      4  N   UNL     1       3.442  -2.284   0.608  0.00  0.00    -0.298 NA
ATOM      5  C   UNL     1       2.115  -2.905   0.719  0.00  0.00    +0.066 C 
ATOM      6  C   UNL     1       1.079  -2.017   0.026  0.00  0.00    -0.062 C 
ATOM      7  H   UNL     1       0.847  -0.784   1.635  0.00  0.00    -0.081 HD
ENDROOT
BRANCH   1   9
ATOM      8  C   UNL     1       0.110   1.561   0.605  0.00  0.00    -0.004 C 
ATOM      9  C   UNL     1       0.065   0.156   0.001  0.00  0.00    +0.017 C 
BRANCH   9  10
ATOM     10  C   UNL     1      -1.304  -0.437   0.212  0.00  0.00    +0.203 C 
ATOM     11  O   UNL     1      -1.526  -1.116   1.192  0.00  0.00    -0.277 OA
ATOM     12  N   UNL     1      -2.281  -0.214  -0.689  0.00  0.00    -0.285 N 
ATOM     13  H   UNL     1      -2.084   0.267  -1.508  0.00  0.00    +0.155 HD
BRANCH  12  14
ATOM     14  C   UNL     1      -3.580  -0.676  -0.442  0.00  0.00    +0.070 A 
ATOM     15  C   UNL     1      -3.973  -0.986   0.852  0.00  0.00    +0.046 A 
ATOM     16  C   UNL     1      -5.256  -1.442   1.093  0.00  0.00    +0.043 A 
ATOM     17  C   UNL     1      -6.148  -1.590   0.044  0.00  0.00    +0.023 A 
ATOM     18  C   UNL     1      -5.760  -1.282  -1.246  0.00  0.00    +0.041 A 
ATOM     19  C   UNL     1      -4.479  -0.820  -1.493  0.00  0.00    +0.145 A 
ATOM     20  F   UNL     1      -4.102  -0.513  -2.753  0.00  0.00    -0.204 F 
ATOM     21 CL   UNL     1      -5.749  -1.831   2.711  0.00  0.00    -0.083 Cl
ENDBRANCH  12  14
ENDBRANCH   9  10
ENDBRANCH   1   9
BRANCH   4  22
ATOM     22  C   UNL     1       4.474  -3.135   1.214  0.00  0.00    +0.180 C 
BRANCH  22  23
ATOM     23  C   UNL     1       4.611  -4.405   0.414  0.00  0.00    +0.227 C 
ATOM     24  O   UNL     1       3.917  -4.583  -0.564  0.00  0.00    -0.274 OA
ATOM     25  N   UNL     1       5.505  -5.343   0.786  0.00  0.00    -0.312 N 
ATOM     26  H   UNL     1       6.060  -5.201   1.568  0.00  0.00    +0.149 HD
BRANCH  25  27
ATOM     27  C   UNL     1       5.637  -6.578   0.008  0.00  0.00    +0.067 C 
ATOM     28  C   UNL     1       6.593  -6.342  -1.164  0.00  0.00    +0.027 C 
ATOM     29  C   UNL     1       6.193  -7.687   0.903  0.00  0.00    +0.027 C 
ENDBRANCH  25  27
ENDBRANCH  22  23
ENDBRANCH   4  22
TORSDOF 6
