REMARK  Name = ZINC22442364
REMARK  4 active torsions:
REMARK  status: ('A' for Active; 'I' for Inactive)
REMARK    1  A    between atoms: C_1  and  C_2
REMARK    2  A    between atoms: C_2  and  C_30
REMARK    3  A    between atoms: C_6  and  N_20
REMARK    4  A    between atoms: N_20  and  C_21
REMARK                            x       y       z     vdW  Elec       q    Type
REMARK                         _______ _______ _______ _____ _____    ______ ____
ROOT
ATOM      1  C   UNL     1      -0.090   1.417   0.099  0.00  0.00    +0.011 C 
ATOM      2  C   UNL     1      -0.035  -0.109   0.015  0.00  0.00    -0.022 C 
ATOM      3  C   UNL     1       0.709  -0.523  -1.254  0.00  0.00    +0.063 C 
ATOM      4  C   UNL     1      -0.054  -0.120  -2.484  0.00  0.00    +0.059 A 
ATOM      5  C   UNL     1      -1.433   0.108  -2.449  0.00  0.00    +0.079 A 
ATOM      6  C   UNL     1      -2.096   0.471  -3.641  0.00  0.00    +0.139 A 
ATOM      7  N   UNL     1      -1.377   0.586  -4.754  0.00  0.00    -0.199 NA
ATOM      8  C   UNL     1      -0.071   0.364  -4.740  0.00  0.00    +0.220 A 
ATOM      9  N   UNL     1       0.581   0.019  -3.635  0.00  0.00    -0.218 NA
ATOM     10  N   UNL     1       0.637   0.497  -5.915  0.00  0.00    -0.295 N 
ATOM     11  C   UNL     1      -0.249   0.883  -7.024  0.00  0.00    +0.113 C 
ATOM     12  C   UNL     1       0.614   1.369  -8.189  0.00  0.00    +0.054 C 
ATOM     13  C   UNL     1       1.695   0.361  -8.483  0.00  0.00    -0.041 A 
ATOM     14  C   UNL     1       2.352   0.432  -9.703  0.00  0.00    +0.004 A 
ATOM     15  C   UNL     1       3.351  -0.470 -10.010  0.00  0.00    +0.000 A 
ATOM     16  C   UNL     1       3.700  -1.448  -9.098  0.00  0.00    +0.000 A 
ATOM     17  C   UNL     1       3.046  -1.520  -7.885  0.00  0.00    +0.005 A 
ATOM     18  C   UNL     1       2.040  -0.617  -7.575  0.00  0.00    -0.027 A 
ATOM     19  C   UNL     1       1.349  -0.742  -6.242  0.00  0.00    +0.143 C 
ATOM     20  C   UNL     1      -2.175  -0.026  -1.193  0.00  0.00    +0.169 C 
ATOM     21  O   UNL     1      -3.319   0.366  -1.094  0.00  0.00    -0.292 OA
ATOM     22  C   UNL     1      -1.462  -0.672  -0.022  0.00  0.00    +0.086 C 
ATOM     23  C   UNL     1       0.699  -0.661   1.239  0.00  0.00    +0.011 C 
ENDROOT
BRANCH   6  24
ATOM     24  N   UNL     1      -3.455   0.700  -3.652  0.00  0.00    -0.299 N 
ATOM     25  H   UNL     1      -4.044   0.556  -2.734  0.00  0.00    +0.154 HD
BRANCH  24  26
ATOM     26  C   UNL     1      -4.085   1.115  -4.829  0.00  0.00    +0.032 A 
ATOM     27  C   UNL     1      -5.138   2.019  -4.773  0.00  0.00    +0.023 A 
ATOM     28  C   UNL     1      -5.754   2.431  -5.938  0.00  0.00    +0.002 A 
ATOM     29  C   UNL     1      -5.332   1.936  -7.158  0.00  0.00    +0.000 A 
ATOM     30  C   UNL     1      -4.288   1.030  -7.217  0.00  0.00    +0.002 A 
ATOM     31  C   UNL     1      -3.664   0.619  -6.056  0.00  0.00    +0.023 A 
ENDBRANCH  24  26
ENDBRANCH   6  24
TORSDOF 2
