REMARK  Name = ZINC41353606
REMARK  6 active torsions:
REMARK  status: ('A' for Active; 'I' for Inactive)
REMARK    1  A    between atoms: C_1  and  C_2
REMARK    2  A    between atoms: C_4  and  O_15
REMARK    3  A    between atoms: C_11  and  C_12
REMARK    4  A    between atoms: C_11  and  C_13
REMARK    5  A    between atoms: O_15  and  C_16
REMARK    6  A    between atoms: C_16  and  C_18
REMARK                            x       y       z     vdW  Elec       q    Type
REMARK                         _______ _______ _______ _____ _____    ______ ____
ROOT
ATOM      1  C   UNL     1      -0.243   1.517  -0.030  0.00  0.00    +0.045 C 
ATOM      2  C   UNL     1      -0.114   0.015  -0.025  0.00  0.00    -0.033 A 
ATOM      3  C   UNL     1      -0.102  -0.675  -1.204  0.00  0.00    +0.050 A 
ATOM      4  C   UNL     1       0.018  -2.061  -1.201  0.00  0.00    +0.136 A 
ATOM      5  C   UNL     1       0.126  -2.757  -0.008  0.00  0.00    +0.093 A 
ATOM      6  C   UNL     1       0.116  -2.071   1.200  0.00  0.00    +0.143 A 
ATOM      7  C   UNL     1       0.001  -0.672   1.184  0.00  0.00    +0.071 A 
ATOM      8  C   UNL     1       0.028  -0.235   2.592  0.00  0.00    +0.232 C 
ATOM      9  O   UNL     1      -0.051   0.901   3.022  0.00  0.00    -0.283 OA
ATOM     10  C   UNL     1       0.171  -1.488   3.364  0.00  0.00    +0.174 C 
ATOM     11  C   UNL     1       0.241  -1.595   4.695  0.00  0.00    -0.030 C 
ATOM     12  C   UNL     1       0.173  -0.358   5.554  0.00  0.00    +0.042 C 
ATOM     13  C   UNL     1       0.387  -2.950   5.336  0.00  0.00    +0.042 C 
ATOM     14  O   UNL     1       0.205  -2.510   2.475  0.00  0.00    -0.451 OA
ENDROOT
BRANCH   4  15
ATOM     15  O   UNL     1       0.028  -2.738  -2.378  0.00  0.00    -0.420 OA
BRANCH  15  16
ATOM     16  C   UNL     1       1.101  -2.595  -3.182  0.00  0.00    +0.380 C 
ATOM     17  O   UNL     1       2.066  -1.961  -2.800  0.00  0.00    -0.241 OA
BRANCH  16  18
ATOM     18  C   UNL     1       1.104  -3.203  -4.518  0.00  0.00    +0.213 A 
ATOM     19  C   UNL     1       2.128  -3.130  -5.409  0.00  0.00    +0.065 A 
ATOM     20  C   UNL     1       1.692  -3.874  -6.589  0.00  0.00    +0.022 A 
ATOM     21  C   UNL     1       2.273  -4.165  -7.826  0.00  0.00    +0.027 A 
ATOM     22  C   UNL     1       1.581  -4.908  -8.741  0.00  0.00    +0.019 A 
ATOM     23  C   UNL     1       0.304  -5.373  -8.450  0.00  0.00    +0.019 A 
ATOM     24  C   UNL     1      -0.286  -5.096  -7.236  0.00  0.00    +0.048 A 
ATOM     25  C   UNL     1       0.399  -4.343  -6.288  0.00  0.00    +0.136 A 
ATOM     26  O   UNL     1       0.093  -3.926  -5.045  0.00  0.00    -0.448 OA
ATOM     27 BR   UNL     1       2.365  -5.304 -10.416  0.00  0.00    -0.050 Br
ENDBRANCH  16  18
ENDBRANCH  15  16
ENDBRANCH   4  15
TORSDOF 3
