REMARK  Name = ZINC54974424
REMARK  10 active torsions:
REMARK  status: ('A' for Active; 'I' for Inactive)
REMARK    1  A    between atoms: C_1  and  C_2
REMARK    2  A    between atoms: C_2  and  C_4
REMARK    3  A    between atoms: C_2  and  N_14
REMARK    4  A    between atoms: C_8  and  S_10
REMARK    5  A    between atoms: S_10  and  N_13
REMARK    6  A    between atoms: N_17  and  C_18
REMARK    7  A    between atoms: C_18  and  C_20
REMARK    8  A    between atoms: C_18  and  C_25
REMARK    9  A    between atoms: C_25  and  C_26
REMARK   10  A    between atoms: C_25  and  C_27
REMARK                            x       y       z     vdW  Elec       q    Type
REMARK                         _______ _______ _______ _____ _____    ______ ____
ROOT
ATOM      1  N   UNL     1       0.688  -0.476  -1.203  0.00  0.00    -0.293 N 
ATOM      2  C   UNL     1       0.006  -0.608  -2.358  0.00  0.00    +0.301 C 
ATOM      3  O   UNL     1      -1.178  -0.335  -2.400  0.00  0.00    -0.253 OA
ATOM      4  N   UNL     1       0.637  -1.043  -3.467  0.00  0.00    -0.292 N 
ATOM      5  H   UNL     1       1.632  -0.695  -1.170  0.00  0.00    +0.151 HD
ATOM      6  H   UNL     1       1.582  -1.261  -3.434  0.00  0.00    +0.151 HD
ENDROOT
BRANCH   1   8
ATOM      7  C   UNL     1      -0.019   1.526   0.010  0.00  0.00    +0.033 C 
ATOM      8  C   UNL     1       0.002  -0.004   0.002  0.00  0.00    +0.102 C 
BRANCH   8   9
ATOM      9  C   UNL     1       0.731  -0.503   1.223  0.00  0.00    -0.026 A 
ATOM     10  C   UNL     1       2.113  -0.514   1.247  0.00  0.00    +0.005 A 
ATOM     11  C   UNL     1       2.782  -0.972   2.366  0.00  0.00    +0.002 A 
ATOM     12  C   UNL     1       2.068  -1.419   3.463  0.00  0.00    +0.028 A 
ATOM     13  C   UNL     1       0.686  -1.407   3.439  0.00  0.00    +0.105 A 
ATOM     14  C   UNL     1       0.018  -0.945   2.321  0.00  0.00    +0.034 A 
BRANCH  13  15
ATOM     15  S   UNL     1      -0.223  -1.978   4.837  0.00  0.00    +0.056 S 
ATOM     16  O   UNL     1      -1.500  -2.374   4.356  0.00  0.00    -0.153 OA
ATOM     17  O   UNL     1       0.633  -2.864   5.545  0.00  0.00    -0.153 OA
BRANCH  15  18
ATOM     18  N   UNL     1      -0.474  -0.672   5.824  0.00  0.00    -0.204 NA
ATOM     19  H   UNL     1      -1.266  -0.631   6.382  0.00  0.00    +0.144 HD
ATOM     20  H   UNL     1       0.171   0.052   5.844  0.00  0.00    +0.144 HD
ENDBRANCH  15  18
ENDBRANCH  13  15
ENDBRANCH   8   9
ENDBRANCH   1   8
BRANCH   4  21
ATOM     21  C   UNL     1      -0.104  -1.186  -4.723  0.00  0.00    +0.114 C 
BRANCH  21  22
ATOM     22  C   UNL     1       0.850  -1.075  -5.885  0.00  0.00    +0.010 A 
ATOM     23  C   UNL     1       0.680  -0.443  -7.072  0.00  0.00    +0.013 A 
ATOM     24  C   UNL     1       1.704  -0.472  -7.999  0.00  0.00    +0.008 A 
ATOM     25  C   UNL     1       2.848  -1.133  -7.695  0.00  0.00    +0.045 A 
ATOM     26  S   UNL     1       2.500  -1.736  -6.051  0.00  0.00    -0.100 S 
ENDBRANCH  21  22
BRANCH  21  27
ATOM     27  C   UNL     1      -0.792  -2.552  -4.757  0.00  0.00    +0.008 C 
ATOM     28  C   UNL     1      -1.760  -2.664  -3.577  0.00  0.00    +0.009 C 
ATOM     29  C   UNL     1      -1.565  -2.701  -6.068  0.00  0.00    +0.009 C 
ENDBRANCH  21  27
ENDBRANCH   4  21
TORSDOF 7
