REMARK  Name = ZINC18198561
REMARK  12 active torsions:
REMARK  status: ('A' for Active; 'I' for Inactive)
REMARK    1  A    between atoms: C_1  and  C_2
REMARK    2  A    between atoms: C_2  and  O_3
REMARK    3  A    between atoms: O_3  and  C_4
REMARK    4  A    between atoms: C_7  and  C_10
REMARK    5  A    between atoms: C_17  and  O_18
REMARK    6  A    between atoms: C_25  and  C_28
REMARK    7  A    between atoms: C_30  and  O_38
REMARK    8  A    between atoms: C_31  and  O_36
REMARK    9  A    between atoms: C_32  and  O_34
REMARK   10  A    between atoms: O_34  and  C_35
REMARK   11  A    between atoms: O_36  and  C_37
REMARK   12  A    between atoms: O_38  and  C_39
REMARK                            x       y       z     vdW  Elec       q    Type
REMARK                         _______ _______ _______ _____ _____    ______ ____
ROOT
ATOM      1  C   UNL     1       1.527   0.036   6.140  0.00  0.00    +0.092 C 
ATOM      2  C   UNL     1       2.930   0.562   6.243  0.00  0.00    +0.067 A 
ATOM      3  C   UNL     1       4.028  -0.249   6.140  0.00  0.00    +0.126 A 
ATOM      4  N   UNL     1       5.123   0.523   6.271  0.00  0.00    -0.260 N 
ATOM      5  H   UNL     1       6.073   0.210   6.238  0.00  0.00    +0.190 HD
ATOM      6  N   UNL     1       4.695   1.844   6.463  0.00  0.00    -0.134 NA
ATOM      7  C   UNL     1       3.380   1.863   6.446  0.00  0.00    +0.237 A 
ATOM      8  N   UNL     1       3.901  -1.617   5.935  0.00  0.00    -0.303 N 
ATOM      9  C   UNL     1       2.674  -2.199   6.133  0.00  0.00    +0.017 C 
ATOM     10  C   UNL     1       1.540  -1.474   6.246  0.00  0.00    +0.024 C 
ATOM     11  C   UNL     1       0.302  -2.102   6.473  0.00  0.00    +0.162 C 
ATOM     12  O   UNL     1      -0.701  -1.421   6.567  0.00  0.00    -0.292 OA
ATOM     13  C   UNL     1       0.189  -3.595   6.603  0.00  0.00    +0.088 C 
ATOM     14  C   UNL     1       1.510  -4.147   7.149  0.00  0.00    +0.032 C 
ATOM     15  C   UNL     1       2.638  -3.708   6.214  0.00  0.00    +0.059 C 
ATOM     16  H   UNL     1       4.663  -2.150   5.659  0.00  0.00    +0.153 HD
ENDROOT
BRANCH   1  20
ATOM     17  C   UNL     1      -0.149   1.182   2.380  0.00  0.00    +0.121 A 
ATOM     18  C   UNL     1       0.991   0.392   2.421  0.00  0.00    +0.046 A 
ATOM     19  C   UNL     1       1.534   0.028   3.638  0.00  0.00    +0.008 A 
ATOM     20  C   UNL     1       0.936   0.440   4.814  0.00  0.00    -0.035 A 
ATOM     21  C   UNL     1      -0.203   1.223   4.776  0.00  0.00    +0.008 A 
ATOM     22  C   UNL     1      -0.747   1.595   3.561  0.00  0.00    +0.046 A 
BRANCH  17  23
ATOM     23  O   UNL     1      -0.682   1.547   1.184  0.00  0.00    -0.492 OA
BRANCH  23  25
ATOM     24  C   UNL     1      -0.753   1.593  -1.232  0.00  0.00    +0.048 C 
ATOM     25  C   UNL     1      -0.013   1.086   0.008  0.00  0.00    +0.225 C 
ENDBRANCH  23  25
ENDBRANCH  17  23
ENDBRANCH   1  20
BRANCH  14  26
ATOM     26  C   UNL     1       1.450  -5.652   7.199  0.00  0.00    -0.036 A 
ATOM     27  C   UNL     1       1.215  -6.372   6.043  0.00  0.00    +0.053 A 
ATOM     28  C   UNL     1       1.164  -7.757   6.084  0.00  0.00    +0.165 A 
ATOM     29  C   UNL     1       1.338  -8.421   7.292  0.00  0.00    +0.204 A 
ATOM     30  C   UNL     1       1.568  -7.694   8.454  0.00  0.00    +0.165 A 
ATOM     31  C   UNL     1       1.624  -6.309   8.403  0.00  0.00    +0.053 A 
BRANCH  30  32
ATOM     32  O   UNL     1       1.739  -8.339   9.639  0.00  0.00    -0.491 OA
ATOM     33  C   UNL     1       1.971  -7.527  10.792  0.00  0.00    +0.277 C 
ENDBRANCH  30  32
BRANCH  29  34
ATOM     34  O   UNL     1       1.283  -9.780   7.338  0.00  0.00    -0.488 OA
ATOM     35  C   UNL     1       0.002 -10.370   7.572  0.00  0.00    +0.277 C 
ENDBRANCH  29  34
BRANCH  28  36
ATOM     36  O   UNL     1       0.939  -8.465   4.944  0.00  0.00    -0.491 OA
ATOM     37  C   UNL     1       0.769  -7.716   3.739  0.00  0.00    +0.277 C 
ENDBRANCH  28  36
ENDBRANCH  14  26
BRANCH   7  38
ATOM     38  O   UNL     1       2.596   2.963   6.599  0.00  0.00    -0.491 OA
ATOM     39  H   UNL     1       3.175   3.769   6.730  0.00  0.00    +0.294 HD
ENDBRANCH   7  38
TORSDOF 8
