REMARK  Name = ZINC38752471
REMARK  9 active torsions:
REMARK  status: ('A' for Active; 'I' for Inactive)
REMARK    1  A    between atoms: C_1  and  O_2
REMARK    2  A    between atoms: O_2  and  C_3
REMARK    3  A    between atoms: C_6  and  C_9
REMARK    4  A    between atoms: C_11  and  C_15
REMARK    5  A    between atoms: C_19  and  S_23
REMARK    6  A    between atoms: N_21  and  N_22
REMARK    7  A    between atoms: S_23  and  C_24
REMARK    8  A    between atoms: C_24  and  C_25
REMARK    9  A    between atoms: C_25  and  C_27
REMARK                            x       y       z     vdW  Elec       q    Type
REMARK                         _______ _______ _______ _____ _____    ______ ____
ROOT
ATOM      1  C   UNL     1       2.486  -4.704  -6.883  0.00  0.00    +0.185 C 
ATOM      2  N   UNL     1       2.108  -6.054  -6.390  0.00  0.00    -0.234 NA
ATOM      3  N   UNL     1       1.841  -6.828  -7.606  0.00  0.00    -0.228 NA
ATOM      4  C   UNL     1       2.584  -6.173  -8.701  0.00  0.00    +0.214 C 
ATOM      5  N   UNL     1       3.277  -5.005  -8.106  0.00  0.00    -0.197 NA
ATOM      6  H   UNL     1       2.858  -6.467  -5.856  0.00  0.00    +0.143 HD
ATOM      7  H   UNL     1       2.131  -7.788  -7.495  0.00  0.00    +0.143 HD
ENDROOT
BRANCH   1  10
ATOM      8  C   UNL     1       2.496  -2.494  -4.366  0.00  0.00    +0.091 C 
ATOM      9  C   UNL     1       2.595  -3.827  -4.537  0.00  0.00    +0.034 C 
ATOM     10  C   UNL     1       3.343  -3.970  -5.850  0.00  0.00    +0.187 C 
ATOM     11  N   UNL     1       3.575  -2.575  -6.259  0.00  0.00    -0.176 NA
ATOM     12  N   UNL     1       3.080  -1.838  -5.403  0.00  0.00    -0.154 NA
BRANCH   8  16
ATOM     13  C   UNL     1       0.606  -0.607  -1.056  0.00  0.00    +0.120 A 
ATOM     14  C   UNL     1       1.173   0.164  -2.062  0.00  0.00    +0.046 A 
ATOM     15  C   UNL     1       1.786  -0.445  -3.136  0.00  0.00    +0.013 A 
ATOM     16  C   UNL     1       1.837  -1.836  -3.211  0.00  0.00    +0.002 A 
ATOM     17  C   UNL     1       1.267  -2.607  -2.199  0.00  0.00    +0.013 A 
ATOM     18  C   UNL     1       0.659  -1.993  -1.125  0.00  0.00    +0.046 A 
BRANCH  13  20
ATOM     19  C   UNL     1      -0.017   1.425   0.010  0.00  0.00    +0.277 C 
ATOM     20  O   UNL     1       0.002  -0.004   0.002  0.00  0.00    -0.495 OA
ENDBRANCH  13  20
ENDBRANCH   8  16
ENDBRANCH   1  10
BRANCH   5  21
ATOM     21  N   UNL     1       3.276  -3.873  -9.019  0.00  0.00    -0.264 NA
ATOM     22  H   UNL     1       3.813  -4.077  -9.848  0.00  0.00    +0.137 HD
ATOM     23  H   UNL     1       2.334  -3.600  -9.255  0.00  0.00    +0.137 HD
ENDBRANCH   5  21
BRANCH   4  24
ATOM     24  S   UNL     1       3.795  -7.326  -9.406  0.00  0.00    -0.116 S 
BRANCH  24  25
ATOM     25  C   UNL     1       4.848  -7.772  -7.998  0.00  0.00    +0.151 C 
BRANCH  25  26
ATOM     26  C   UNL     1       5.911  -8.739  -8.453  0.00  0.00    +0.173 C 
ATOM     27  O   UNL     1       5.954  -9.092  -9.612  0.00  0.00    -0.291 OA
BRANCH  26  28
ATOM     28  C   UNL     1       6.896  -9.254  -7.490  0.00  0.00    +0.018 A 
ATOM     29  C   UNL     1       6.846  -8.853  -6.151  0.00  0.00    +0.013 A 
ATOM     30  C   UNL     1       7.773  -9.340  -5.254  0.00  0.00    +0.020 A 
ATOM     31  C   UNL     1       8.752 -10.224  -5.676  0.00  0.00    +0.041 A 
ATOM     32  C   UNL     1       8.808 -10.626  -7.001  0.00  0.00    +0.020 A 
ATOM     33  C   UNL     1       7.885 -10.151  -7.908  0.00  0.00    +0.013 A 
ATOM     34 CL   UNL     1       9.916 -10.832  -4.540  0.00  0.00    -0.084 Cl
ENDBRANCH  26  28
ENDBRANCH  25  26
ENDBRANCH  24  25
ENDBRANCH   4  24
TORSDOF 8
