REMARK  Name = ZINC13608770
REMARK  6 active torsions:
REMARK  status: ('A' for Active; 'I' for Inactive)
REMARK    1  A    between atoms: C_4  and  C_7
REMARK    2  A    between atoms: C_9  and  C_19
REMARK    3  A    between atoms: C_9  and  N_23
REMARK    4  A    between atoms: N_12  and  C_13
REMARK    5  A    between atoms: C_13  and  C_14
REMARK    6  A    between atoms: C_24  and  C_26
REMARK                            x       y       z     vdW  Elec       q    Type
REMARK                         _______ _______ _______ _____ _____    ______ ____
ROOT
ATOM      1  C   UNL     1      -5.396  -1.062  -1.123  0.00  0.00    +0.133 C 
ATOM      2  N   UNL     1      -4.698  -0.546  -0.160  0.00  0.00    -0.225 NA
ATOM      3  C   UNL     1      -3.452  -1.322  -0.050  0.00  0.00    +0.302 C 
ATOM      4  C   UNL     1      -3.578  -2.376  -1.132  0.00  0.00    +0.276 C 
ATOM      5  O   UNL     1      -2.779  -3.245  -1.411  0.00  0.00    -0.270 OA
ATOM      6  N   UNL     1      -4.774  -2.135  -1.717  0.00  0.00    -0.245 N 
ENDROOT
BRANCH   1  10
ATOM      7  C   UNL     1      -9.202   0.405  -2.315  0.00  0.00    +0.000 A 
ATOM      8  C   UNL     1      -8.995  -0.958  -2.198  0.00  0.00    +0.001 A 
ATOM      9  C   UNL     1      -7.761  -1.440  -1.812  0.00  0.00    +0.011 A 
ATOM     10  C   UNL     1      -6.722  -0.551  -1.538  0.00  0.00    +0.015 A 
ATOM     11  C   UNL     1      -6.939   0.822  -1.651  0.00  0.00    +0.011 A 
ATOM     12  C   UNL     1      -8.175   1.292  -2.045  0.00  0.00    +0.001 A 
ENDBRANCH   1  10
BRANCH   3  13
ATOM     13  C   UNL     1      -3.348  -1.978   1.328  0.00  0.00    +0.440 C 
ATOM     14  F   UNL     1      -3.278  -0.986   2.312  0.00  0.00    -0.166 F 
ATOM     15  F   UNL     1      -4.474  -2.777   1.551  0.00  0.00    -0.166 F 
ATOM     16  F   UNL     1      -2.196  -2.770   1.382  0.00  0.00    -0.166 F 
ENDBRANCH   3  13
BRANCH   3  17
ATOM     17  N   UNL     1      -2.290  -0.466  -0.300  0.00  0.00    -0.272 N 
ATOM     18  C   UNL     1      -1.052  -0.998  -0.314  0.00  0.00    +0.253 C 
ATOM     19  O   UNL     1      -0.899  -2.189  -0.119  0.00  0.00    -0.270 OA
ATOM     20  H   UNL     1      -2.428   0.611  -0.475  0.00  0.00    +0.152 HD
BRANCH  18  21
ATOM     21  C   UNL     1       0.111  -0.141  -0.564  0.00  0.00    +0.074 A 
ATOM     22  C   UNL     1       1.453  -0.484  -0.620  0.00  0.00    +0.021 A 
ATOM     23  C   UNL     1       2.347   0.527  -0.872  0.00  0.00    +0.008 A 
ATOM     24  C   UNL     1       1.884   1.792  -1.052  0.00  0.00    +0.046 A 
ATOM     25  S   UNL     1       0.168   1.615  -0.874  0.00  0.00    -0.092 S 
ENDBRANCH  18  21
ENDBRANCH   3  17
BRANCH   6  26
ATOM     26  C   UNL     1      -5.329  -2.910  -2.829  0.00  0.00    +0.189 C 
BRANCH  26  27
ATOM     27  C   UNL     1      -4.788  -2.378  -4.132  0.00  0.00    +0.122 A 
ATOM     28  C   UNL     1      -3.666  -2.795  -4.747  0.00  0.00    +0.046 A 
ATOM     29  C   UNL     1      -3.540  -2.031  -5.929  0.00  0.00    +0.041 A 
ATOM     30  C   UNL     1      -4.591  -1.193  -5.967  0.00  0.00    +0.195 A 
ATOM     31  O   UNL     1      -5.347  -1.412  -4.878  0.00  0.00    -0.466 OA
ENDBRANCH  26  27
ENDBRANCH   6  26
TORSDOF 6
