REMARK  Name = ZINC09234602
REMARK  8 active torsions:
REMARK  status: ('A' for Active; 'I' for Inactive)
REMARK    1  A    between atoms: C_1  and  C_2
REMARK    2  A    between atoms: C_2  and  N_3
REMARK    3  A    between atoms: C_4  and  C_20
REMARK    4  A    between atoms: C_7  and  S_8
REMARK    5  A    between atoms: S_8  and  C_9
REMARK    6  A    between atoms: C_9  and  C_10
REMARK    7  A    between atoms: N_12  and  C_13
REMARK    8  A    between atoms: C_25  and  O_26
REMARK                            x       y       z     vdW  Elec       q    Type
REMARK                         _______ _______ _______ _____ _____    ______ ____
ROOT
ATOM      1  N   UNL     1       0.302  -0.605   0.932  0.00  0.00    -0.302 N 
ATOM      2  C   UNL     1       1.612  -1.028   0.917  0.00  0.00    +0.168 A 
ATOM      3  N   UNL     1       1.898  -1.438   2.131  0.00  0.00    -0.128 NA
ATOM      4  N   UNL     1       0.873  -1.302   2.894  0.00  0.00    -0.122 NA
ATOM      5  C   UNL     1      -0.130  -0.792   2.215  0.00  0.00    +0.192 A 
ENDROOT
BRANCH   2   6
ATOM      6  C   UNL     1       2.523  -1.023  -0.246  0.00  0.00    +0.062 A 
ATOM      7  C   UNL     1       2.094  -1.525  -1.475  0.00  0.00    +0.030 A 
ATOM      8  C   UNL     1       2.950  -1.518  -2.558  0.00  0.00    +0.019 A 
ATOM      9  C   UNL     1       4.233  -1.014  -2.429  0.00  0.00    +0.019 A 
ATOM     10  C   UNL     1       4.669  -0.515  -1.216  0.00  0.00    +0.047 A 
ATOM     11  C   UNL     1       3.820  -0.510  -0.122  0.00  0.00    +0.128 A 
ATOM     12 BR   UNL     1       2.367  -2.199  -4.223  0.00  0.00    -0.050 Br
BRANCH  11  13
ATOM     13  O   UNL     1       4.245  -0.014   1.069  0.00  0.00    -0.506 OA
ATOM     14  H   UNL     1       4.664  -0.671   1.642  0.00  0.00    +0.292 HD
ENDBRANCH  11  13
ENDBRANCH   2   6
BRANCH   1  16
ATOM     15  C   UNL     1      -0.385   1.466  -0.172  0.00  0.00    +0.027 C 
ATOM     16  C   UNL     1      -0.465  -0.062  -0.191  0.00  0.00    +0.122 C 
ENDBRANCH   1  16
BRANCH   5  17
ATOM     17  S   UNL     1      -1.735  -0.422   2.841  0.00  0.00    -0.077 S 
BRANCH  17  18
ATOM     18  C   UNL     1      -1.646  -0.900   4.588  0.00  0.00    +0.173 C 
BRANCH  18  19
ATOM     19  C   UNL     1      -2.973  -0.632   5.251  0.00  0.00    +0.228 C 
ATOM     20  O   UNL     1      -3.888  -0.164   4.608  0.00  0.00    -0.275 OA
ATOM     21  N   UNL     1      -3.142  -0.912   6.559  0.00  0.00    -0.284 N 
ATOM     22  H   UNL     1      -2.389  -1.215   7.091  0.00  0.00    +0.155 HD
BRANCH  21  23
ATOM     23  C   UNL     1      -4.402  -0.766   7.148  0.00  0.00    +0.047 A 
ATOM     24  C   UNL     1      -5.543  -0.742   6.356  0.00  0.00    +0.024 A 
ATOM     25  C   UNL     1      -6.785  -0.599   6.941  0.00  0.00    +0.002 A 
ATOM     26  C   UNL     1      -6.896  -0.478   8.314  0.00  0.00    +0.001 A 
ATOM     27  C   UNL     1      -5.763  -0.502   9.106  0.00  0.00    +0.017 A 
ATOM     28  C   UNL     1      -4.517  -0.651   8.528  0.00  0.00    +0.039 A 
ATOM     29 BR   UNL     1      -2.968  -0.691   9.613  0.00  0.00    -0.048 Br
ENDBRANCH  21  23
ENDBRANCH  18  19
ENDBRANCH  17  18
ENDBRANCH   5  17
TORSDOF 7
