REMARK  Name = ZINC40062501
REMARK  7 active torsions:
REMARK  status: ('A' for Active; 'I' for Inactive)
REMARK    1  A    between atoms: C_1  and  C_2
REMARK    2  A    between atoms: C_2  and  C_3
REMARK    3  A    between atoms: C_3  and  O_4
REMARK    4  A    between atoms: O_4  and  C_5
REMARK    5  A    between atoms: C_10  and  C_11
REMARK    6  A    between atoms: C_18  and  C_23
REMARK    7  A    between atoms: C_19  and  C_22
REMARK                            x       y       z     vdW  Elec       q    Type
REMARK                         _______ _______ _______ _____ _____    ______ ____
ROOT
ATOM      1  C   UNL     1       0.807  -4.752  -1.334  0.00  0.00    +0.061 C 
ATOM      2  C   UNL     1       0.774  -6.104  -1.459  0.00  0.00    +0.176 C 
ATOM      3  C   UNL     1       0.123  -7.046  -0.539  0.00  0.00    +0.231 C 
ATOM      4  O   UNL     1      -0.491  -6.788   0.482  0.00  0.00    -0.283 OA
ATOM      5  C   UNL     1       0.381  -8.375  -1.127  0.00  0.00    +0.068 A 
ATOM      6  C   UNL     1       0.037  -9.671  -0.745  0.00  0.00    +0.016 A 
ATOM      7  C   UNL     1       0.432 -10.739  -1.521  0.00  0.00    +0.004 A 
ATOM      8  C   UNL     1       1.169 -10.524  -2.676  0.00  0.00    -0.044 A 
ATOM      9  C   UNL     1       1.515  -9.247  -3.063  0.00  0.00    -0.005 A 
ATOM     10  C   UNL     1       1.126  -8.153  -2.294  0.00  0.00    +0.143 A 
ATOM     11  O   UNL     1       1.330  -6.828  -2.459  0.00  0.00    -0.451 OA
ATOM     12  C   UNL     1       2.316  -9.034  -4.321  0.00  0.00    +0.048 C 
ATOM     13  C   UNL     1       1.597 -11.699  -3.517  0.00  0.00    +0.044 C 
ENDROOT
BRANCH   1  19
ATOM     14  C   UNL     1       1.074  -2.551  -2.469  0.00  0.00    +0.128 A 
ATOM     15  C   UNL     1       1.602  -1.783  -3.494  0.00  0.00    +0.046 A 
ATOM     16  C   UNL     1       2.395  -2.368  -4.462  0.00  0.00    +0.004 A 
ATOM     17  C   UNL     1       2.670  -3.726  -4.418  0.00  0.00    +0.001 A 
ATOM     18  C   UNL     1       2.155  -4.508  -3.408  0.00  0.00    +0.011 A 
ATOM     19  C   UNL     1       1.354  -3.928  -2.417  0.00  0.00    +0.020 A 
BRANCH  14  20
ATOM     20  O   UNL     1       0.295  -1.978  -1.518  0.00  0.00    -0.491 OA
BRANCH  20  21
ATOM     21  C   UNL     1       0.053  -0.574  -1.637  0.00  0.00    +0.229 C 
BRANCH  21  23
ATOM     22  C   UNL     1      -1.097   1.392  -0.611  0.00  0.00    +0.007 C 
ATOM     23  C   UNL     1      -0.838  -0.110  -0.484  0.00  0.00    +0.038 C 
ENDBRANCH  21  23
ENDBRANCH  20  21
ENDBRANCH  14  20
ENDBRANCH   1  19
TORSDOF 4
