REMARK  Name = ZINC15675509
REMARK  7 active torsions:
REMARK  status: ('A' for Active; 'I' for Inactive)
REMARK    1  A    between atoms: C_1  and  C_2
REMARK    2  A    between atoms: C_2  and  C_19
REMARK    3  A    between atoms: N_14  and  C_15
REMARK    4  A    between atoms: C_15  and  C_16
REMARK    5  A    between atoms: C_16  and  O_17
REMARK    6  A    between atoms: O_17  and  C_18
REMARK    7  A    between atoms: N_21  and  C_22
REMARK                            x       y       z     vdW  Elec       q    Type
REMARK                         _______ _______ _______ _____ _____    ______ ____
ROOT
ATOM      1  C   UNL     1      -4.255   4.821  -0.914  0.00  0.00    +0.043 C 
ATOM      2  C   UNL     1      -3.043   3.888  -0.939  0.00  0.00    +0.129 C 
ATOM      3  C   UNL     1      -1.854   4.605  -0.300  0.00  0.00    +0.157 C 
ATOM      4  N   UNL     1      -0.781   3.635  -0.058  0.00  0.00    -0.331 N 
ATOM      5  C   UNL     1       0.568   3.813  -0.019  0.00  0.00    +0.088 A 
ATOM      6  C   UNL     1       1.634   4.736  -0.149  0.00  0.00    +0.067 A 
ATOM      7  C   UNL     1       2.776   4.059   0.062  0.00  0.00    +0.198 A 
ATOM      8  O   UNL     1       2.492   2.770   0.316  0.00  0.00    -0.461 OA
ATOM      9  C   UNL     1       1.156   2.582   0.273  0.00  0.00    +0.153 A 
ATOM     10  C   UNL     1       0.124   1.640   0.404  0.00  0.00    +0.079 A 
ATOM     11  C   UNL     1      -1.054   2.291   0.188  0.00  0.00    +0.109 A 
ATOM     12  C   UNL     1      -2.438   1.800   0.212  0.00  0.00    +0.264 C 
ATOM     13  O   UNL     1      -2.717   0.688   0.620  0.00  0.00    -0.268 OA
ATOM     14  N   UNL     1      -3.386   2.650  -0.248  0.00  0.00    -0.278 N 
ENDROOT
BRANCH   2  15
ATOM     15  C   UNL     1      -2.705   3.566  -2.372  0.00  0.00    +0.238 C 
ATOM     16  O   UNL     1      -3.013   4.337  -3.255  0.00  0.00    -0.273 OA
ATOM     17  N   UNL     1      -2.060   2.420  -2.671  0.00  0.00    -0.311 N 
ATOM     18  H   UNL     1      -1.879   1.769  -1.975  0.00  0.00    +0.149 HD
BRANCH  17  19
ATOM     19  C   UNL     1      -1.633   2.159  -4.048  0.00  0.00    +0.073 C 
ATOM     20  C   UNL     1      -2.792   1.540  -4.833  0.00  0.00    +0.022 C 
ATOM     21  C   UNL     1      -2.499   1.631  -6.331  0.00  0.00    +0.002 C 
ATOM     22  C   UNL     1      -1.952   3.022  -6.661  0.00  0.00    +0.000 C 
ATOM     23  C   UNL     1      -0.490   2.904  -7.097  0.00  0.00    +0.000 C 
ATOM     24  C   UNL     1       0.391   2.671  -5.868  0.00  0.00    +0.000 C 
ATOM     25  C   UNL     1       0.245   1.222  -5.402  0.00  0.00    +0.002 C 
ATOM     26  C   UNL     1      -0.449   1.190  -4.039  0.00  0.00    +0.022 C 
ENDBRANCH  17  19
ENDBRANCH   2  15
BRANCH  14  27
ATOM     27  C   UNL     1      -4.798   2.317  -0.045  0.00  0.00    +0.137 C 
BRANCH  27  28
ATOM     28  C   UNL     1      -5.344   1.626  -1.297  0.00  0.00    +0.178 C 
BRANCH  28  29
ATOM     29  O   UNL     1      -4.673   0.379  -1.483  0.00  0.00    -0.381 OA
ATOM     30  C   UNL     1      -5.111  -0.351  -2.631  0.00  0.00    +0.194 C 
ENDBRANCH  28  29
ENDBRANCH  27  28
ENDBRANCH  14  27
TORSDOF 5
