REMARK  Name = ZINC14650991
REMARK  9 active torsions:
REMARK  status: ('A' for Active; 'I' for Inactive)
REMARK    1  A    between atoms: C_1  and  C_2
REMARK    2  A    between atoms: C_2  and  C_3
REMARK    3  A    between atoms: C_2  and  C_4
REMARK    4  A    between atoms: C_4  and  C_5
REMARK    5  A    between atoms: C_5  and  O_6
REMARK    6  A    between atoms: O_6  and  C_7
REMARK    7  A    between atoms: C_12  and  C_13
REMARK    8  A    between atoms: N_15  and  C_16
REMARK    9  A    between atoms: C_16  and  N_18
REMARK                            x       y       z     vdW  Elec       q    Type
REMARK                         _______ _______ _______ _____ _____    ______ ____
ROOT
ATOM      1  C   UNL     1       1.180   1.785   0.000  0.00  0.00    +0.133 A 
ATOM      2  C   UNL     1      -0.013   1.076   0.008  0.00  0.00    +0.047 A 
ATOM      3  C   UNL     1      -1.218   1.749   0.017  0.00  0.00    +0.019 A 
ATOM      4  C   UNL     1      -1.247   3.135   0.030  0.00  0.00    +0.019 A 
ATOM      5  C   UNL     1      -0.072   3.855   0.022  0.00  0.00    +0.032 A 
ATOM      6  C   UNL     1       1.155   3.186   0.008  0.00  0.00    +0.080 A 
ATOM      7 BR   UNL     1      -2.907   4.041   0.049  0.00  0.00    -0.050 Br
ENDROOT
BRANCH   6   8
ATOM      8  C   UNL     1       2.416   3.950   0.000  0.00  0.00    +0.253 C 
ATOM      9  O   UNL     1       3.481   3.365  -0.012  0.00  0.00    -0.270 OA
ATOM     10  N   UNL     1       2.388   5.298   0.007  0.00  0.00    -0.264 N 
ATOM     11  H   UNL     1       1.538   5.765   0.017  0.00  0.00    +0.157 HD
BRANCH  10  12
ATOM     12  C   UNL     1       3.540   5.996   0.001  0.00  0.00    +0.139 C 
ATOM     13  S   UNL     1       5.041   5.171  -0.017  0.00  0.00    -0.018 S 
BRANCH  12  14
ATOM     14  N   UNL     1       3.512   7.343   0.007  0.00  0.00    -0.312 N 
ATOM     15  C   UNL     1       2.229   8.009   0.017  0.00  0.00    +0.107 C 
ATOM     16  C   UNL     1       1.746   8.240  -1.431  0.00  0.00    +0.019 C 
ATOM     17  C   UNL     1       2.557   9.282  -2.079  0.00  0.00    +0.002 C 
ATOM     18  C   UNL     1       4.035   8.930  -2.224  0.00  0.00    +0.002 C 
ATOM     19  C   UNL     1       4.761   9.289  -0.951  0.00  0.00    +0.019 C 
ATOM     20  C   UNL     1       4.792   8.078  -0.000  0.00  0.00    +0.107 C 
ENDBRANCH  12  14
ENDBRANCH  10  12
ENDBRANCH   6   8
BRANCH   1  21
ATOM     21  O   UNL     1       2.365   1.124  -0.015  0.00  0.00    -0.491 OA
BRANCH  21  22
ATOM     22  C   UNL     1       2.312  -0.304  -0.022  0.00  0.00    +0.229 C 
BRANCH  22  23
ATOM     23  C   UNL     1       3.734  -0.867  -0.038  0.00  0.00    +0.044 C 
BRANCH  23  25
ATOM     24  C   UNL     1       3.037  -2.876  -1.350  0.00  0.00    +0.007 C 
ATOM     25  C   UNL     1       3.677  -2.396  -0.046  0.00  0.00    -0.014 C 
ATOM     26  C   UNL     1       5.095  -2.959   0.063  0.00  0.00    +0.007 C 
ENDBRANCH  23  25
ENDBRANCH  22  23
ENDBRANCH  21  22
ENDBRANCH   1  21
TORSDOF 7
