REMARK  Name = ZINC49548856
REMARK  5 active torsions:
REMARK  status: ('A' for Active; 'I' for Inactive)
REMARK    1  A    between atoms: C_1  and  C_2
REMARK    2  A    between atoms: N_5  and  C_7
REMARK    3  A    between atoms: C_13  and  C_15
REMARK    4  A    between atoms: C_19  and  O_21
REMARK    5  A    between atoms: O_21  and  C_22
REMARK                            x       y       z     vdW  Elec       q    Type
REMARK                         _______ _______ _______ _____ _____    ______ ____
ROOT
ATOM      1  C   UNL     1      -0.343   1.222  -0.261  0.00  0.00    +0.068 C 
ATOM      2  C   UNL     1      -0.234  -0.274  -0.401  0.00  0.00    +0.066 A 
ATOM      3  C   UNL     1      -0.003  -0.973  -1.605  0.00  0.00    +0.032 A 
ATOM      4  C   UNL     1       0.027  -2.293  -1.316  0.00  0.00    +0.128 A 
ATOM      5  N   UNL     1      -0.178  -2.414   0.033  0.00  0.00    -0.253 N 
ATOM      6  N   UNL     1      -0.332  -1.137   0.570  0.00  0.00    -0.175 NA
ATOM      7  C   UNL     1      -0.222  -3.671   0.784  0.00  0.00    +0.174 C 
ATOM      8  N   UNL     1       0.210  -3.401  -2.108  0.00  0.00    -0.270 N 
ATOM      9  C   UNL     1       0.466  -3.597  -3.367  0.00  0.00    +0.228 C 
ATOM     10  O   UNL     1       0.663  -4.754  -3.673  0.00  0.00    -0.275 OA
ATOM     11  C   UNL     1       0.553  -2.635  -4.485  0.00  0.00    +0.166 C 
ATOM     12  S   UNL     1       1.325  -1.080  -4.015  0.00  0.00    -0.138 S 
ATOM     13  C   UNL     1       0.167  -0.266  -2.912  0.00  0.00    +0.112 C 
ATOM     14  H   UNL     1       0.131  -4.230  -1.611  0.00  0.00    +0.156 HD
ENDROOT
BRANCH  13  15
ATOM     15  C   UNL     1       0.656   1.134  -2.645  0.00  0.00    -0.026 A 
ATOM     16  C   UNL     1       1.859   1.333  -1.992  0.00  0.00    +0.005 A 
ATOM     17  C   UNL     1       2.311   2.615  -1.745  0.00  0.00    +0.004 A 
ATOM     18  C   UNL     1       1.562   3.703  -2.150  0.00  0.00    +0.045 A 
ATOM     19  C   UNL     1       0.355   3.507  -2.805  0.00  0.00    +0.121 A 
ATOM     20  C   UNL     1      -0.094   2.218  -3.057  0.00  0.00    +0.050 A 
BRANCH  19  21
ATOM     21  O   UNL     1      -0.384   4.575  -3.205  0.00  0.00    -0.489 OA
BRANCH  21  22
ATOM     22  C   UNL     1       0.196   5.869  -3.027  0.00  0.00    +0.173 C 
ATOM     23  C   UNL     1      -0.117   6.399  -1.613  0.00  0.00    +0.044 C 
ATOM     24  C   UNL     1      -0.346   7.917  -1.818  0.00  0.00    +0.004 C 
ATOM     25  C   UNL     1      -1.097   7.969  -3.172  0.00  0.00    +0.004 C 
ATOM     26  C   UNL     1      -0.427   6.867  -4.019  0.00  0.00    +0.044 C 
ENDBRANCH  21  22
ENDBRANCH  19  21
ENDBRANCH  13  15
TORSDOF 3
