REMARK  Name = ZINC39449868
REMARK  8 active torsions:
REMARK  status: ('A' for Active; 'I' for Inactive)
REMARK    1  A    between atoms: C_1  and  C_2
REMARK    2  A    between atoms: C_2  and  C_3
REMARK    3  A    between atoms: C_2  and  S_4
REMARK    4  A    between atoms: S_4  and  C_7
REMARK    5  A    between atoms: N_13  and  C_16
REMARK    6  A    between atoms: C_16  and  C_17
REMARK    7  A    between atoms: C_26  and  S_29
REMARK    8  A    between atoms: S_29  and  C_30
REMARK                            x       y       z     vdW  Elec       q    Type
REMARK                         _______ _______ _______ _____ _____    ______ ____
ROOT
ATOM      1  C   UNL     1      -1.705  -1.904  -0.921  0.00  0.00    +0.107 A 
ATOM      2  C   UNL     1      -1.583  -2.887  -1.888  0.00  0.00    +0.044 A 
ATOM      3  C   UNL     1      -1.413  -4.206  -1.462  0.00  0.00    +0.069 A 
ATOM      4  C   UNL     1      -1.373  -4.484  -0.079  0.00  0.00    +0.099 A 
ATOM      5  C   UNL     1      -1.193  -5.880   0.343  0.00  0.00    +0.082 A 
ATOM      6  C   UNL     1      -1.072  -6.875  -0.610  0.00  0.00    +0.111 A 
ATOM      7  N   UNL     1      -1.112  -6.574  -1.965  0.00  0.00    -0.299 N 
ATOM      8  C   UNL     1      -1.274  -5.316  -2.415  0.00  0.00    +0.261 A 
ATOM      9  O   UNL     1      -1.304  -5.098  -3.612  0.00  0.00    -0.267 OA
ATOM     10  C   UNL     1      -0.910  -8.220  -0.204  0.00  0.00    +0.184 C 
ATOM     11  O   UNL     1      -0.754  -9.086  -1.041  0.00  0.00    -0.290 OA
ATOM     12  C   UNL     1      -0.927  -8.589   1.256  0.00  0.00    +0.114 C 
ATOM     13  C   UNL     1      -0.402  -7.411   2.084  0.00  0.00    +0.136 C 
ATOM     14  N   UNL     1      -1.140  -6.202   1.685  0.00  0.00    -0.328 N 
ATOM     15  N   UNL     1      -1.496  -3.502   0.803  0.00  0.00    -0.251 NA
ATOM     16  C   UNL     1      -1.651  -2.252   0.421  0.00  0.00    +0.138 A 
ATOM     17  H   UNL     1      -1.578  -5.646   2.348  0.00  0.00    +0.147 HD
ENDROOT
BRANCH   1  18
ATOM     18  S   UNL     1      -1.921  -0.220  -1.392  0.00  0.00    +0.001 S 
ATOM     19  O   UNL     1      -2.596   0.380  -0.295  0.00  0.00    -0.169 OA
ATOM     20  O   UNL     1      -2.530  -0.278  -2.675  0.00  0.00    -0.169 OA
BRANCH  18  22
ATOM     21  C   UNL     1      -0.305   1.946  -1.816  0.00  0.00    +0.032 C 
ATOM     22  C   UNL     1      -0.238   0.444  -1.530  0.00  0.00    +0.130 C 
ATOM     23  C   UNL     1       0.512   0.208  -0.218  0.00  0.00    +0.032 C 
ENDBRANCH  18  22
ENDBRANCH   1  18
BRANCH  13  24
ATOM     24  S   UNL     1       1.369  -7.180   1.765  0.00  0.00    -0.142 S 
ATOM     25  C   UNL     1       1.546  -5.388   1.546  0.00  0.00    +0.086 C 
ENDBRANCH  13  24
BRANCH   7  26
ATOM     26  C   UNL     1      -0.974  -7.661  -2.936  0.00  0.00    +0.160 C 
BRANCH  26  27
ATOM     27  C   UNL     1      -2.338  -8.197  -3.288  0.00  0.00    -0.028 A 
ATOM     28  C   UNL     1      -2.829  -9.316  -2.642  0.00  0.00    +0.005 A 
ATOM     29  C   UNL     1      -4.080  -9.808  -2.965  0.00  0.00    +0.000 A 
ATOM     30  C   UNL     1      -4.840  -9.179  -3.933  0.00  0.00    +0.000 A 
ATOM     31  C   UNL     1      -4.350  -8.059  -4.578  0.00  0.00    +0.000 A 
ATOM     32  C   UNL     1      -3.101  -7.565  -4.252  0.00  0.00    +0.005 A 
ENDBRANCH  26  27
ENDBRANCH   7  26
TORSDOF 5
