REMARK  Name = ZINC50362188
REMARK  5 active torsions:
REMARK  status: ('A' for Active; 'I' for Inactive)
REMARK    1  A    between atoms: C_5  and  C_6
REMARK    2  A    between atoms: C_6  and  C_8
REMARK    3  A    between atoms: C_6  and  N_10
REMARK    4  A    between atoms: C_8  and  N_9
REMARK    5  A    between atoms: N_13  and  C_16
REMARK                            x       y       z     vdW  Elec       q    Type
REMARK                         _______ _______ _______ _____ _____    ______ ____
ROOT
ATOM      1  C   UNL     1      -1.208  -0.902   0.009  0.00  0.00    +0.105 C 
ENDROOT
BRANCH   1   6
ATOM      2  C   UNL     1      -0.027   1.345  -0.054  0.00  0.00    +0.062 A 
ATOM      3  C   UNL     1       1.319   1.781  -0.049  0.00  0.00    +0.070 A 
ATOM      4  C   UNL     1       2.086   0.675   0.004  0.00  0.00    +0.184 A 
ATOM      5  O   UNL     1       1.280  -0.400   0.030  0.00  0.00    -0.450 OA
ATOM      6  C   UNL     1      -0.002   0.002  -0.005  0.00  0.00    +0.123 A 
ATOM      7 BR   UNL     1       3.977   0.640   0.035  0.00  0.00    -0.007 Br
ATOM      8 BR   UNL     1       1.925   3.571  -0.105  0.00  0.00    -0.046 Br
ENDBRANCH   1   6
BRANCH   1   9
ATOM      9  N   UNL     1      -1.028  -1.975  -0.978  0.00  0.00    -0.298 NA
ATOM     10  C   UNL     1       0.107  -2.836  -0.618  0.00  0.00    +0.066 C 
ATOM     11  C   UNL     1       0.224  -3.973  -1.636  0.00  0.00    -0.063 C 
ATOM     12  N   UNL     1       0.421  -3.410  -2.978  0.00  0.00    +0.383 N 
ATOM     13  C   UNL     1      -0.733  -2.572  -3.334  0.00  0.00    -0.063 C 
ATOM     14  C   UNL     1      -0.857  -1.424  -2.330  0.00  0.00    +0.066 C 
ATOM     15  H   UNL     1       1.259  -2.849  -2.988  0.00  0.00    -0.081 HD
BRANCH  12  16
ATOM     16  C   UNL     1       0.551  -4.502  -3.953  0.00  0.00    -0.069 C 
ATOM     17  C   UNL     1       1.919  -4.706  -4.606  0.00  0.00    -0.017 C 
ATOM     18  C   UNL     1       0.763  -4.119  -5.418  0.00  0.00    -0.017 C 
ENDBRANCH  12  16
ENDBRANCH   1   9
BRANCH   1  19
ATOM     19  C   UNL     1      -1.373  -1.512   1.402  0.00  0.00    -0.059 C 
BRANCH  19  20
ATOM     20  N   UNL     1      -2.475  -2.483   1.384  0.00  0.00    +0.379 N 
ATOM     21  H   UNL     1      -3.329  -2.017   1.119  0.00  0.00    -0.090 HD
ATOM     22  H   UNL     1      -2.269  -3.213   0.719  0.00  0.00    -0.090 HD
ATOM     23  H   UNL     1      -2.583  -2.886   2.303  0.00  0.00    -0.090 HD
ENDBRANCH  19  20
ENDBRANCH   1  19
TORSDOF 5
