REMARK  Name = ZINC51711548
REMARK  13 active torsions:
REMARK  status: ('A' for Active; 'I' for Inactive)
REMARK    1  A    between atoms: C_1  and  C_2
REMARK    2  A    between atoms: C_2  and  S_3
REMARK    3  A    between atoms: S_3  and  N_6
REMARK    4  A    between atoms: N_6  and  C_7
REMARK    5  A    between atoms: C_7  and  C_8
REMARK    6  A    between atoms: C_8  and  C_9
REMARK    7  A    between atoms: C_9  and  N_10
REMARK    8  A    between atoms: N_13  and  C_14
REMARK    9  A    between atoms: C_14  and  C_15
REMARK   10  A    between atoms: C_15  and  N_23
REMARK   11  A    between atoms: C_19  and  C_22
REMARK   12  A    between atoms: N_23  and  C_24
REMARK   13  A    between atoms: N_23  and  C_25
REMARK                            x       y       z     vdW  Elec       q    Type
REMARK                         _______ _______ _______ _____ _____    ______ ____
ROOT
ATOM      1  N   UNL     1       1.276  -7.629  -1.824  0.00  0.00    -0.299 N 
ATOM      2  C   UNL     1       2.241  -8.445  -2.290  0.00  0.00    +0.300 C 
ATOM      3  O   UNL     1       2.806  -8.184  -3.334  0.00  0.00    -0.253 OA
ATOM      4  N   UNL     1       2.581  -9.551  -1.599  0.00  0.00    -0.301 N 
ATOM      5  H   UNL     1       0.825  -7.838  -0.991  0.00  0.00    +0.150 HD
ATOM      6  H   UNL     1       2.130  -9.760  -0.766  0.00  0.00    +0.150 HD
ENDROOT
BRANCH   1   7
ATOM      7  C   UNL     1       0.907  -6.427  -2.575  0.00  0.00    +0.107 C 
BRANCH   7   8
ATOM      8  C   UNL     1      -0.206  -5.683  -1.833  0.00  0.00    +0.035 C 
BRANCH   8   9
ATOM      9  C   UNL     1      -0.591  -4.427  -2.618  0.00  0.00    +0.107 C 
BRANCH   9  10
ATOM     10  N   UNL     1      -1.656  -3.715  -1.907  0.00  0.00    -0.194 NA
ATOM     11  H   UNL     1      -2.150  -4.160  -1.201  0.00  0.00    +0.148 HD
BRANCH  10  12
ATOM     12  S   UNL     1      -2.017  -2.150  -2.310  0.00  0.00    +0.029 S 
ATOM     13  O   UNL     1      -0.768  -1.472  -2.287  0.00  0.00    -0.158 OA
ATOM     14  O   UNL     1      -3.060  -1.778  -1.420  0.00  0.00    -0.158 OA
BRANCH  12  16
ATOM     15  C   UNL     1      -3.017  -0.835  -4.490  0.00  0.00    +0.029 C 
ATOM     16  C   UNL     1      -2.648  -2.239  -4.009  0.00  0.00    +0.181 C 
ENDBRANCH  12  16
ENDBRANCH  10  12
ENDBRANCH   9  10
ENDBRANCH   8   9
ENDBRANCH   7   8
ENDBRANCH   1   7
BRANCH   4  17
ATOM     17  C   UNL     1       3.631 -10.438  -2.106  0.00  0.00    +0.094 C 
BRANCH  17  18
ATOM     18  C   UNL     1       3.933 -11.518  -1.064  0.00  0.00    -0.050 C 
ATOM     19  C   UNL     1       2.632 -12.209  -0.653  0.00  0.00    -0.010 C 
ATOM     20  C   UNL     1       2.934 -13.288   0.388  0.00  0.00    -0.001 C 
ATOM     21  C   UNL     1       3.893 -14.320  -0.210  0.00  0.00    +0.003 C 
ATOM     22  C   UNL     1       5.195 -13.628  -0.621  0.00  0.00    -0.015 C 
ATOM     23  C   UNL     1       4.892 -12.549  -1.662  0.00  0.00    -0.007 C 
ATOM     24  C   UNL     1       6.154 -14.659  -1.219  0.00  0.00    +0.007 C 
BRANCH  18  25
ATOM     25  N   UNL     1       4.553 -10.899   0.116  0.00  0.00    +0.381 N 
ATOM     26  C   UNL     1       5.763 -10.172  -0.291  0.00  0.00    -0.096 C 
ATOM     27  C   UNL     1       3.604  -9.963   0.733  0.00  0.00    -0.096 C 
ATOM     28  H   UNL     1       4.799 -11.617   0.781  0.00  0.00    -0.082 HD
ENDBRANCH  18  25
ENDBRANCH  17  18
ENDBRANCH   4  17
TORSDOF 9
