REMARK  Name = ZINC26522362
REMARK  8 active torsions:
REMARK  status: ('A' for Active; 'I' for Inactive)
REMARK    1  A    between atoms: C_4  and  C_7
REMARK    2  A    between atoms: C_7  and  C_8
REMARK    3  A    between atoms: C_7  and  C_21
REMARK    4  A    between atoms: C_8  and  C_9
REMARK    5  A    between atoms: C_9  and  N_10
REMARK    6  A    between atoms: N_10  and  C_11
REMARK    7  A    between atoms: C_13  and  N_18
REMARK    8  A    between atoms: C_16  and  N_17
REMARK                            x       y       z     vdW  Elec       q    Type
REMARK                         _______ _______ _______ _____ _____    ______ ____
ROOT
ATOM      1  C   UNL     1      -1.742   0.951   1.807  0.00  0.00    +0.102 C 
ENDROOT
BRANCH   1   2
ATOM      2  N   UNL     1      -2.046   1.283   3.201  0.00  0.00    -0.342 N 
ATOM      3  H   UNL     1      -1.298   1.802   3.818  0.00  0.00    +0.146 HD
BRANCH   2   4
ATOM      4  C   UNL     1      -3.289   0.940   3.747  0.00  0.00    +0.050 A 
ATOM      5  C   UNL     1      -4.235   0.291   2.969  0.00  0.00    +0.057 A 
ATOM      6  C   UNL     1      -5.459  -0.052   3.512  0.00  0.00    +0.128 A 
ATOM      7  C   UNL     1      -5.748   0.260   4.827  0.00  0.00    +0.034 A 
ATOM      8  C   UNL     1      -4.813   0.912   5.609  0.00  0.00    +0.027 A 
ATOM      9  C   UNL     1      -3.580   1.255   5.074  0.00  0.00    +0.046 A 
BRANCH   9  10
ATOM     10  N   UNL     1      -2.631   1.915   5.864  0.00  0.00    -0.357 N 
ATOM     11  H   UNL     1      -2.863   2.163   6.910  0.00  0.00    +0.142 HD
ATOM     12  H   UNL     1      -1.654   2.186   5.438  0.00  0.00    +0.142 HD
ENDBRANCH   9  10
BRANCH   6  13
ATOM     13  N   UNL     1      -6.466  -0.750   2.681  0.00  0.00    +0.056 N 
ATOM     14  O   UNL     1      -7.547  -1.049   3.156  0.00  0.00    -0.126 OA
ATOM     15  O   UNL     1      -6.213  -1.026   1.522  0.00  0.00    -0.126 OA
ENDBRANCH   6  13
ENDBRANCH   2   4
ENDBRANCH   1   2
BRANCH   1  16
ATOM     16  C   UNL     1      -0.330   1.433   1.464  0.00  0.00    +0.031 C 
BRANCH  16  17
ATOM     17  C   UNL     1      -0.013   1.086   0.008  0.00  0.00    +0.050 C 
BRANCH  17  21
ATOM     18  C   UNL     1       4.044   2.114  -0.848  0.00  0.00    +0.000 A 
ATOM     19  C   UNL     1       3.197   3.052  -0.287  0.00  0.00    +0.000 A 
ATOM     20  C   UNL     1       1.884   2.719  -0.011  0.00  0.00    +0.004 A 
ATOM     21  C   UNL     1       1.418   1.449  -0.294  0.00  0.00    -0.040 A 
ATOM     22  C   UNL     1       2.267   0.509  -0.849  0.00  0.00    +0.004 A 
ATOM     23  C   UNL     1       3.579   0.844  -1.131  0.00  0.00    +0.000 A 
ENDBRANCH  17  21
BRANCH  17  24
ATOM     24  C   UNL     1      -0.930   1.859  -0.904  0.00  0.00    -0.040 A 
ATOM     25  C   UNL     1      -1.050   3.229  -0.765  0.00  0.00    +0.004 A 
ATOM     26  C   UNL     1      -1.887   3.938  -1.605  0.00  0.00    +0.000 A 
ATOM     27  C   UNL     1      -2.614   3.276  -2.578  0.00  0.00    +0.000 A 
ATOM     28  C   UNL     1      -2.498   1.905  -2.713  0.00  0.00    +0.000 A 
ATOM     29  C   UNL     1      -1.657   1.197  -1.876  0.00  0.00    +0.004 A 
ENDBRANCH  17  24
ENDBRANCH  16  17
ENDBRANCH   1  16
TORSDOF 8
