REMARK  Name = ZINC12565611
REMARK  8 active torsions:
REMARK  status: ('A' for Active; 'I' for Inactive)
REMARK    1  A    between atoms: C_4  and  C_7
REMARK    2  A    between atoms: C_10  and  C_36
REMARK    3  A    between atoms: C_15  and  C_17
REMARK    4  A    between atoms: C_17  and  O_18
REMARK    5  A    between atoms: O_18  and  C_19
REMARK    6  A    between atoms: C_24  and  C_25
REMARK    7  A    between atoms: C_26  and  C_27
REMARK    8  A    between atoms: C_27  and  C_29
REMARK                            x       y       z     vdW  Elec       q    Type
REMARK                         _______ _______ _______ _____ _____    ______ ____
ROOT
ATOM      1  C   UNL     1      -6.820  -4.986   0.501  0.00  0.00    +0.064 C 
ATOM      2  C   UNL     1      -5.386  -5.388   0.850  0.00  0.00    +0.043 C 
ATOM      3  C   UNL     1      -4.435  -4.710  -0.154  0.00  0.00    +0.132 C 
ATOM      4  N   UNL     1      -4.620  -3.257  -0.017  0.00  0.00    -0.183 N 
ATOM      5  N   UNL     1      -5.921  -2.751   0.097  0.00  0.00    -0.189 NA
ATOM      6  C   UNL     1      -6.920  -3.497   0.332  0.00  0.00    +0.111 C 
ATOM      7  C   UNL     1      -3.558  -2.428  -0.007  0.00  0.00    +0.273 C 
ATOM      8  O   UNL     1      -2.433  -2.882  -0.033  0.00  0.00    -0.270 OA
ENDROOT
BRANCH   1  12
ATOM      9  C   UNL     1      -9.430  -6.230   3.645  0.00  0.00    +0.000 A 
ATOM     10  C   UNL     1      -9.603  -6.726   2.366  0.00  0.00    +0.000 A 
ATOM     11  C   UNL     1      -8.759  -6.323   1.348  0.00  0.00    +0.004 A 
ATOM     12  C   UNL     1      -7.741  -5.425   1.610  0.00  0.00    -0.039 A 
ATOM     13  C   UNL     1      -7.565  -4.933   2.890  0.00  0.00    +0.004 A 
ATOM     14  C   UNL     1      -8.413  -5.332   3.906  0.00  0.00    +0.000 A 
ENDBRANCH   1  12
BRANCH   3  15
ATOM     15  C   UNL     1      -3.008  -5.076   0.164  0.00  0.00    -0.025 A 
ATOM     16  C   UNL     1      -2.196  -5.609  -0.819  0.00  0.00    +0.005 A 
ATOM     17  C   UNL     1      -0.885  -5.940  -0.529  0.00  0.00    +0.000 A 
ATOM     18  C   UNL     1      -0.390  -5.749   0.747  0.00  0.00    +0.000 A 
ATOM     19  C   UNL     1      -1.204  -5.221   1.732  0.00  0.00    +0.000 A 
ATOM     20  C   UNL     1      -2.513  -4.885   1.441  0.00  0.00    +0.005 A 
ENDBRANCH   3  15
BRANCH   7  21
ATOM     21  C   UNL     1      -3.767  -0.936   0.035  0.00  0.00    +0.326 C 
BRANCH  21  22
ATOM     22  O   UNL     1      -2.498  -0.277   0.038  0.00  0.00    -0.482 OA
BRANCH  22  23
ATOM     23  C   UNL     1      -2.509   1.079   0.075  0.00  0.00    +0.128 A 
ATOM     24  C   UNL     1      -3.712   1.765   0.113  0.00  0.00    +0.046 A 
ATOM     25  C   UNL     1      -3.722   3.146   0.144  0.00  0.00    +0.004 A 
ATOM     26  C   UNL     1      -2.532   3.857   0.144  0.00  0.00    +0.001 A 
ATOM     27  C   UNL     1      -1.325   3.193   0.113  0.00  0.00    +0.011 A 
ATOM     28  C   UNL     1      -1.300   1.794   0.080  0.00  0.00    +0.017 A 
BRANCH  28  29
ATOM     29  C   UNL     1      -0.018   1.079   0.046  0.00  0.00    +0.015 C 
ATOM     30  C   UNL     1       1.143   1.772   0.040  0.00  0.00    +0.052 C 
BRANCH  30  31
ATOM     31  C   UNL     1       2.381   1.082   0.001  0.00  0.00    +0.189 C 
ATOM     32  O   UNL     1       2.399  -0.135  -0.027  0.00  0.00    -0.287 OA
BRANCH  31  33
ATOM     33  C   UNL     1       3.650   1.840  -0.006  0.00  0.00    +0.057 A 
ATOM     34  C   UNL     1       3.634   3.236   0.026  0.00  0.00    +0.014 A 
ATOM     35  C   UNL     1       4.821   3.937   0.019  0.00  0.00    +0.001 A 
ATOM     36  C   UNL     1       6.029   3.261  -0.019  0.00  0.00    +0.003 A 
ATOM     37  C   UNL     1       6.056   1.879  -0.051  0.00  0.00    +0.039 A 
ATOM     38  C   UNL     1       4.873   1.162  -0.039  0.00  0.00    +0.134 A 
ATOM     39  F   UNL     1       4.899  -0.189  -0.064  0.00  0.00    -0.205 F 
ENDBRANCH  31  33
ENDBRANCH  30  31
ENDBRANCH  28  29
ENDBRANCH  22  23
ENDBRANCH  21  22
ENDBRANCH   7  21
TORSDOF 8
