REMARK  Name = ZINC40782644
REMARK  6 active torsions:
REMARK  status: ('A' for Active; 'I' for Inactive)
REMARK    1  A    between atoms: C_1  and  O_2
REMARK    2  A    between atoms: O_2  and  C_3
REMARK    3  A    between atoms: C_6  and  N_9
REMARK    4  A    between atoms: C_11  and  N_24
REMARK    5  A    between atoms: C_12  and  O_16
REMARK    6  A    between atoms: O_16  and  C_17
REMARK                            x       y       z     vdW  Elec       q    Type
REMARK                         _______ _______ _______ _____ _____    ______ ____
ROOT
ATOM      1  N   UNL     1      -4.885  -2.581   0.010  0.00  0.00    -0.298 N 
ATOM      2  C   UNL     1      -4.943  -3.965  -0.097  0.00  0.00    +0.151 A 
ATOM      3  C   UNL     1      -6.175  -4.620  -0.186  0.00  0.00    +0.128 A 
ATOM      4  C   UNL     1      -6.176  -6.010  -0.292  0.00  0.00    +0.246 A 
ATOM      5  N   UNL     1      -5.014  -6.656  -0.304  0.00  0.00    -0.199 NA
ATOM      6  C   UNL     1      -3.873  -6.002  -0.218  0.00  0.00    +0.227 A 
ATOM      7  N   UNL     1      -3.826  -4.689  -0.122  0.00  0.00    -0.218 NA
ATOM      8  H   UNL     1      -5.701  -2.068   0.117  0.00  0.00    +0.154 HD
ENDROOT
BRANCH   1  12
ATOM      9  C   UNL     1      -1.203  -0.631  -0.129  0.00  0.00    +0.120 A 
ATOM     10  C   UNL     1      -1.361  -1.860  -0.753  0.00  0.00    +0.047 A 
ATOM     11  C   UNL     1      -2.580  -2.506  -0.708  0.00  0.00    +0.027 A 
ATOM     12  C   UNL     1      -3.648  -1.927  -0.036  0.00  0.00    +0.033 A 
ATOM     13  C   UNL     1      -3.489  -0.697   0.589  0.00  0.00    +0.027 A 
ATOM     14  C   UNL     1      -2.268  -0.054   0.546  0.00  0.00    +0.047 A 
BRANCH   9  16
ATOM     15  C   UNL     1       1.051  -0.648  -0.887  0.00  0.00    +0.277 C 
ATOM     16  O   UNL     1      -0.002   0.004  -0.174  0.00  0.00    -0.495 OA
ENDBRANCH   9  16
ENDBRANCH   1  12
BRANCH   3  17
ATOM     17  N   UNL     1      -7.378  -3.897  -0.169  0.00  0.00    -0.351 N 
ATOM     18  H   UNL     1      -7.361  -2.930  -0.095  0.00  0.00    +0.143 HD
ATOM     19  H   UNL     1      -8.225  -4.364  -0.232  0.00  0.00    +0.143 HD
ENDBRANCH   3  17
BRANCH   4  20
ATOM     20  O   UNL     1      -7.345  -6.692  -0.381  0.00  0.00    -0.436 OA
BRANCH  20  21
ATOM     21  C   UNL     1      -7.292  -8.050  -0.375  0.00  0.00    +0.130 A 
ATOM     22  C   UNL     1      -6.861  -8.725   0.758  0.00  0.00    +0.047 A 
ATOM     23  C   UNL     1      -6.809 -10.105   0.761  0.00  0.00    +0.019 A 
ATOM     24  C   UNL     1      -7.187 -10.815  -0.364  0.00  0.00    +0.018 A 
ATOM     25  C   UNL     1      -7.617 -10.145  -1.496  0.00  0.00    +0.019 A 
ATOM     26  C   UNL     1      -7.676  -8.765  -1.501  0.00  0.00    +0.047 A 
ATOM     27 BR   UNL     1      -7.114 -12.705  -0.357  0.00  0.00    -0.050 Br
ENDBRANCH  20  21
ENDBRANCH   4  20
TORSDOF 5
