REMARK  Name = ZINC39383870
REMARK  6 active torsions:
REMARK  status: ('A' for Active; 'I' for Inactive)
REMARK    1  A    between atoms: C_1  and  C_2
REMARK    2  A    between atoms: C_5  and  C_9
REMARK    3  A    between atoms: C_12  and  C_14
REMARK    4  A    between atoms: C_14  and  C_24
REMARK    5  A    between atoms: N_15  and  N_16
REMARK    6  A    between atoms: N_16  and  C_17
REMARK                            x       y       z     vdW  Elec       q    Type
REMARK                         _______ _______ _______ _____ _____    ______ ____
ROOT
ATOM      1  C   UNL     1      -0.644  -4.187  -0.105  0.00  0.00    +0.080 A 
ATOM      2  C   UNL     1      -0.669  -4.856   1.091  0.00  0.00    +0.075 A 
ATOM      3  S   UNL     1      -0.519  -6.546   0.529  0.00  0.00    -0.073 S 
ATOM      4  C   UNL     1      -0.439  -6.193  -1.221  0.00  0.00    +0.139 A 
ATOM      5  N   UNL     1      -0.535  -4.872  -1.228  0.00  0.00    -0.237 NA
ENDROOT
BRANCH   1  10
ATOM      6  C   UNL     1      -1.031   1.559  -0.230  0.00  0.00    +0.044 C 
ATOM      7  C   UNL     1      -0.930   0.055  -0.198  0.00  0.00    -0.049 A 
ATOM      8  C   UNL     1      -0.047  -0.557   0.674  0.00  0.00    +0.004 A 
ATOM      9  C   UNL     1       0.050  -1.934   0.709  0.00  0.00    +0.012 A 
ATOM     10  C   UNL     1      -0.744  -2.707  -0.137  0.00  0.00    +0.019 A 
ATOM     11  C   UNL     1      -1.632  -2.085  -1.014  0.00  0.00    +0.050 A 
ATOM     12  C   UNL     1      -1.724  -0.706  -1.035  0.00  0.00    +0.024 A 
ATOM     13 CL   UNL     1      -2.624  -3.040  -2.070  0.00  0.00    -0.083 Cl
ENDBRANCH   1  10
BRANCH   4  14
ATOM     14  C   UNL     1      -0.306  -7.125  -2.357  0.00  0.00    +0.190 C 
ATOM     15  N   UNL     1      -0.125  -6.660  -3.571  0.00  0.00    -0.169 NA
BRANCH  15  16
ATOM     16  N   UNL     1       0.043  -5.284  -3.776  0.00  0.00    -0.237 N 
ATOM     17  H   UNL     1       0.102  -4.684  -3.016  0.00  0.00    +0.174 HD
BRANCH  16  18
ATOM     18  C   UNL     1       0.125  -4.776  -5.073  0.00  0.00    +0.048 A 
ATOM     19  C   UNL     1       0.035  -5.634  -6.163  0.00  0.00    +0.026 A 
ATOM     20  C   UNL     1       0.117  -5.129  -7.446  0.00  0.00    +0.017 A 
ATOM     21  C   UNL     1       0.288  -3.770  -7.646  0.00  0.00    +0.018 A 
ATOM     22  C   UNL     1       0.378  -2.914  -6.563  0.00  0.00    +0.017 A 
ATOM     23  C   UNL     1       0.292  -3.412  -5.278  0.00  0.00    +0.026 A 
ATOM     24 BR   UNL     1       0.399  -3.082  -9.404  0.00  0.00    -0.050 Br
ENDBRANCH  16  18
ENDBRANCH  15  16
BRANCH  14  25
ATOM     25  C   UNL     1      -0.376  -8.538  -2.135  0.00  0.00    +0.123 C 
ATOM     26  N   UNL     1      -0.431  -9.659  -1.959  0.00  0.00    -0.189 NA
ENDBRANCH  14  25
ENDBRANCH   4  14
TORSDOF 5
