REMARK  Name = ZINC01329569
REMARK  6 active torsions:
REMARK  status: ('A' for Active; 'I' for Inactive)
REMARK    1  A    between atoms: C_1  and  C_2
REMARK    2  A    between atoms: C_5  and  C_30
REMARK    3  A    between atoms: C_10  and  C_12
REMARK    4  A    between atoms: C_12  and  S_13
REMARK    5  A    between atoms: S_13  and  C_14
REMARK    6  A    between atoms: C_15  and  C_20
REMARK                            x       y       z     vdW  Elec       q    Type
REMARK                         _______ _______ _______ _____ _____    ______ ____
ROOT
ATOM      1  C   UNL     1       5.374   3.900  -0.033  0.00  0.00    +0.108 A 
ATOM      2  C   UNL     1       4.719   2.657  -0.028  0.00  0.00    +0.049 A 
ATOM      3  C   UNL     1       5.488   1.491  -0.042  0.00  0.00    +0.015 A 
ATOM      4  C   UNL     1       6.868   1.612  -0.054  0.00  0.00    +0.020 A 
ATOM      5  C   UNL     1       7.441   2.870  -0.053  0.00  0.00    +0.112 A 
ATOM      6  N   UNL     1       6.697   3.959  -0.040  0.00  0.00    -0.248 NA
ENDROOT
BRANCH   2   7
ATOM      7  C   UNL     1       3.244   2.585  -0.014  0.00  0.00    +0.142 A 
ATOM      8  N   UNL     1       2.512   1.428  -0.013  0.00  0.00    -0.338 N 
ATOM      9  H   UNL     1       2.874   0.496  -0.022  0.00  0.00    +0.167 HD
ATOM     10  C   UNL     1       1.178   1.789   0.000  0.00  0.00    +0.066 A 
ATOM     11  C   UNL     1      -0.013   1.076   0.008  0.00  0.00    +0.028 A 
ATOM     12  C   UNL     1      -1.214   1.752   0.017  0.00  0.00    +0.002 A 
ATOM     13  C   UNL     1      -1.241   3.139   0.029  0.00  0.00    +0.002 A 
ATOM     14  C   UNL     1      -0.080   3.859   0.023  0.00  0.00    +0.030 A 
ATOM     15  C   UNL     1       1.151   3.195   0.008  0.00  0.00    +0.089 A 
ATOM     16  N   UNL     1       2.438   3.620  -0.001  0.00  0.00    -0.228 NA
ENDBRANCH   2   7
BRANCH   1  17
ATOM     17  S   UNL     1       4.431   5.388  -0.022  0.00  0.00    -0.096 S 
BRANCH  17  18
ATOM     18  C   UNL     1       5.768   6.608  -0.034  0.00  0.00    +0.171 C 
BRANCH  18  26
ATOM     19  C   UNL     1       7.542   9.105  -2.538  0.00  0.00    +0.009 C 
ATOM     20  C   UNL     1       8.030   9.707  -1.219  0.00  0.00    +0.004 C 
ATOM     21  C   UNL     1       7.563  11.161  -1.117  0.00  0.00    +0.009 C 
ATOM     22  C   UNL     1       6.036  11.215  -1.199  0.00  0.00    +0.004 C 
ATOM     23  C   UNL     1       5.437  10.431  -0.027  0.00  0.00    +0.111 C 
ATOM     24  N   UNL     1       5.994   9.072  -0.034  0.00  0.00    -0.300 N 
ATOM     25  C   UNL     1       7.454   8.906  -0.041  0.00  0.00    +0.111 C 
ATOM     26  C   UNL     1       5.181   7.997  -0.027  0.00  0.00    +0.226 C 
ATOM     27  O   UNL     1       3.978   8.146  -0.016  0.00  0.00    -0.275 OA
ATOM     28  C   UNL     1       5.572  12.671  -1.130  0.00  0.00    +0.009 C 
ENDBRANCH  18  26
ENDBRANCH  17  18
ENDBRANCH   1  17
TORSDOF 4
