REMARK  Name = ZINC00443545
REMARK  5 active torsions:
REMARK  status: ('A' for Active; 'I' for Inactive)
REMARK    1  A    between atoms: C_4  and  C_7
REMARK    2  A    between atoms: C_7  and  C_25
REMARK    3  A    between atoms: C_8  and  C_9
REMARK    4  A    between atoms: C_12  and  S_14
REMARK    5  A    between atoms: S_14  and  C_15
REMARK                            x       y       z     vdW  Elec       q    Type
REMARK                         _______ _______ _______ _____ _____    ______ ____
ROOT
ATOM      1  C   UNL     1       5.295  -2.152   1.022  0.00  0.00    +0.131 A 
ATOM      2  C   UNL     1       5.785  -2.972   2.026  0.00  0.00    +0.050 A 
ATOM      3  C   UNL     1       7.028  -3.437   1.591  0.00  0.00    +0.057 A 
ATOM      4  C   UNL     1       7.254  -2.897   0.359  0.00  0.00    +0.169 A 
ATOM      5  O   UNL     1       6.204  -2.130   0.022  0.00  0.00    -0.449 OA
ENDROOT
BRANCH   1   7
ATOM      6  C   UNL     1       3.697  -0.685  -0.038  0.00  0.00    +0.062 C 
ATOM      7  C   UNL     1       4.066  -1.469   1.038  0.00  0.00    +0.065 C 
BRANCH   6  11
ATOM      8  C   UNL     1      -0.017   1.379   0.010  0.00  0.00    +0.000 A 
ATOM      9  C   UNL     1       1.169   2.094   0.002  0.00  0.00    +0.001 A 
ATOM     10  C   UNL     1       2.377   1.429  -0.013  0.00  0.00    +0.009 A 
ATOM     11  C   UNL     1       2.403   0.034  -0.021  0.00  0.00    -0.008 A 
ATOM     12  C   UNL     1       1.204  -0.680  -0.013  0.00  0.00    +0.009 A 
ATOM     13  C   UNL     1       0.002  -0.004   0.002  0.00  0.00    +0.001 A 
ENDBRANCH   6  11
BRANCH   6  14
ATOM     14  C   UNL     1       4.565  -0.569  -1.171  0.00  0.00    +0.100 C 
ATOM     15  N   UNL     1       5.255  -0.477  -2.069  0.00  0.00    -0.191 NA
ENDBRANCH   6  14
ENDBRANCH   1   7
BRANCH   4  16
ATOM     16  S   UNL     1       8.686  -3.167  -0.632  0.00  0.00    -0.014 S 
BRANCH  16  17
ATOM     17  C   UNL     1       8.387  -2.212  -2.083  0.00  0.00    +0.175 A 
ATOM     18  N   UNL     1       9.235  -2.119  -3.150  0.00  0.00    -0.333 N 
ATOM     19  H   UNL     1      10.094  -2.559  -3.242  0.00  0.00    +0.168 HD
ATOM     20  C   UNL     1       8.638  -1.280  -4.076  0.00  0.00    +0.067 A 
ATOM     21  C   UNL     1       9.007  -0.813  -5.328  0.00  0.00    +0.028 A 
ATOM     22  C   UNL     1       8.169   0.038  -6.018  0.00  0.00    +0.002 A 
ATOM     23  C   UNL     1       6.958   0.431  -5.468  0.00  0.00    +0.002 A 
ATOM     24  C   UNL     1       6.575  -0.023  -4.225  0.00  0.00    +0.030 A 
ATOM     25  C   UNL     1       7.412  -0.885  -3.513  0.00  0.00    +0.090 A 
ATOM     26  N   UNL     1       7.315  -1.491  -2.301  0.00  0.00    -0.222 NA
ENDBRANCH  16  17
ENDBRANCH   4  16
TORSDOF 5
