REMARK  Name = ZINC23244543
REMARK  12 active torsions:
REMARK  status: ('A' for Active; 'I' for Inactive)
REMARK    1  A    between atoms: C_1  and  C_2
REMARK    2  A    between atoms: C_2  and  O_3
REMARK    3  A    between atoms: O_3  and  C_4
REMARK    4  A    between atoms: C_7  and  C_10
REMARK    5  A    between atoms: N_15  and  C_17
REMARK    6  A    between atoms: C_17  and  C_18
REMARK    7  A    between atoms: C_18  and  N_19
REMARK    8  A    between atoms: N_22  and  S_25
REMARK    9  A    between atoms: S_25  and  C_28
REMARK   10  A    between atoms: C_30  and  C_36
REMARK   11  A    between atoms: C_31  and  C_35
REMARK   12  A    between atoms: C_33  and  C_34
REMARK                            x       y       z     vdW  Elec       q    Type
REMARK                         _______ _______ _______ _____ _____    ______ ____
ROOT
ATOM      1  N   UNL     1       0.580   6.517   1.658  0.00  0.00    +0.383 N 
ATOM      2  C   UNL     1       1.917   6.975   1.258  0.00  0.00    -0.061 C 
ATOM      3  C   UNL     1       1.842   8.443   0.823  0.00  0.00    +0.091 C 
ATOM      4  N   UNL     1       1.216   9.219   1.905  0.00  0.00    -0.180 NA
ATOM      5  C   UNL     1      -0.063   8.743   2.453  0.00  0.00    +0.091 C 
ATOM      6  C   UNL     1       0.087   7.263   2.824  0.00  0.00    -0.061 C 
ATOM      7  H   UNL     1      -0.106   6.715   0.821  0.00  0.00    -0.082 HD
ENDROOT
BRANCH   4   8
ATOM      8  S   UNL     1       1.933  10.592   2.490  0.00  0.00    +0.061 S 
ATOM      9  O   UNL     1       2.687  11.144   1.419  0.00  0.00    -0.153 OA
ATOM     10  O   UNL     1       0.919  11.325   3.164  0.00  0.00    -0.153 OA
BRANCH   8  11
ATOM     11  C   UNL     1       3.094  10.092   3.717  0.00  0.00    +0.109 A 
ATOM     12  C   UNL     1       4.448  10.264   3.499  0.00  0.00    +0.032 A 
ATOM     13  C   UNL     1       5.358   9.871   4.463  0.00  0.00    -0.046 A 
ATOM     14  C   UNL     1       4.914   9.307   5.644  0.00  0.00    -0.047 A 
ATOM     15  C   UNL     1       3.560   9.137   5.863  0.00  0.00    +0.009 A 
ATOM     16  C   UNL     1       2.650   9.533   4.901  0.00  0.00    -0.024 A 
ATOM     17  C   UNL     1       1.173   9.352   5.141  0.00  0.00    +0.046 C 
ATOM     18  C   UNL     1       5.907   8.879   6.694  0.00  0.00    +0.044 C 
ATOM     19  C   UNL     1       6.835  10.058   4.224  0.00  0.00    +0.044 C 
ENDBRANCH   8  11
ENDBRANCH   4   8
BRANCH   1  20
ATOM     20  C   UNL     1       0.574   5.072   1.918  0.00  0.00    -0.055 C 
BRANCH  20  21
ATOM     21  C   UNL     1       0.850   4.318   0.615  0.00  0.00    +0.129 C 
BRANCH  21  27
ATOM     22  C   UNL     1       2.010   1.008   1.443  0.00  0.00    +0.092 A 
ATOM     23  C   UNL     1       0.848   0.205   1.356  0.00  0.00    +0.035 A 
ATOM     24  C   UNL     1      -0.326   0.804   1.008  0.00  0.00    +0.074 A 
ATOM     25  C   UNL     1      -0.312   2.196   0.766  0.00  0.00    +0.267 A 
ATOM     26  O   UNL     1      -1.340   2.777   0.456  0.00  0.00    -0.266 OA
ATOM     27  N   UNL     1       0.845   2.876   0.874  0.00  0.00    -0.231 N 
ATOM     28  N   UNL     1       1.943   2.296   1.198  0.00  0.00    -0.168 NA
BRANCH  22  32
ATOM     29  C   UNL     1       5.731  -0.756   2.504  0.00  0.00    +0.121 A 
ATOM     30  C   UNL     1       5.660   0.606   2.244  0.00  0.00    +0.046 A 
ATOM     31  C   UNL     1       4.455   1.181   1.900  0.00  0.00    +0.013 A 
ATOM     32  C   UNL     1       3.308   0.393   1.813  0.00  0.00    +0.002 A 
ATOM     33  C   UNL     1       3.382  -0.973   2.080  0.00  0.00    +0.013 A 
ATOM     34  C   UNL     1       4.591  -1.543   2.419  0.00  0.00    +0.046 A 
BRANCH  29  35
ATOM     35  O   UNL     1       6.920  -1.320   2.843  0.00  0.00    -0.492 OA
BRANCH  35  37
ATOM     36  C   UNL     1       8.339  -3.176   3.461  0.00  0.00    +0.048 C 
ATOM     37  C   UNL     1       6.923  -2.726   3.097  0.00  0.00    +0.225 C 
ENDBRANCH  35  37
ENDBRANCH  29  35
ENDBRANCH  22  32
ENDBRANCH  21  27
ENDBRANCH  20  21
ENDBRANCH   1  20
TORSDOF 8
