REMARK  Name = ZINC39622951
REMARK  7 active torsions:
REMARK  status: ('A' for Active; 'I' for Inactive)
REMARK    1  A    between atoms: C_1  and  C_2
REMARK    2  A    between atoms: C_2  and  S_3
REMARK    3  A    between atoms: S_3  and  C_4
REMARK    4  A    between atoms: C_5  and  C_10
REMARK    5  A    between atoms: C_14  and  C_23
REMARK    6  A    between atoms: N_25  and  C_26
REMARK    7  A    between atoms: C_26  and  C_27
REMARK                            x       y       z     vdW  Elec       q    Type
REMARK                         _______ _______ _______ _____ _____    ______ ____
ROOT
ATOM      1  C   UNL     1      -4.216  -2.427   0.116  0.00  0.00    +0.249 C 
ATOM      2  O   UNL     1      -4.460  -1.242   0.239  0.00  0.00    -0.270 OA
ATOM      3  N   UNL     1      -5.223  -3.311  -0.022  0.00  0.00    -0.296 N 
ATOM      4  C   UNL     1      -5.133  -4.790  -0.076  0.00  0.00    +0.121 C 
ATOM      5  C   UNL     1      -6.352  -5.285   0.734  0.00  0.00    +0.100 C 
ATOM      6  C   UNL     1      -7.359  -4.124   0.678  0.00  0.00    -0.004 C 
ATOM      7  C   UNL     1      -6.673  -3.026  -0.147  0.00  0.00    +0.115 C 
ATOM      8  C   UNL     1      -7.654  -3.612   2.084  0.00  0.00    -0.010 C 
ATOM      9  C   UNL     1      -8.700  -2.496   2.008  0.00  0.00    -0.082 C 
ATOM     10  N   UNL     1      -9.925  -3.014   1.387  0.00  0.00    +0.379 N 
ATOM     11  C   UNL     1      -9.653  -3.418   0.002  0.00  0.00    -0.082 C 
ATOM     12  C   UNL     1      -8.647  -4.573  -0.006  0.00  0.00    -0.010 C 
ATOM     13  H   UNL     1     -10.255  -3.811   1.910  0.00  0.00    -0.086 HD
ATOM     14  H   UNL     1     -10.633  -2.295   1.393  0.00  0.00    -0.086 HD
ENDROOT
BRANCH   1  16
ATOM     15  C   UNL     1      -1.855  -2.272   0.931  0.00  0.00    +0.109 A 
ATOM     16  C   UNL     1      -2.819  -2.896   0.118  0.00  0.00    +0.069 A 
ATOM     17  C   UNL     1      -2.426  -3.970  -0.688  0.00  0.00    +0.017 A 
ATOM     18  C   UNL     1      -1.103  -4.373  -0.649  0.00  0.00    +0.020 A 
ATOM     19  C   UNL     1      -0.212  -3.709   0.177  0.00  0.00    +0.112 A 
ATOM     20  N   UNL     1      -0.600  -2.696   0.926  0.00  0.00    -0.248 NA
BRANCH  15  21
ATOM     21  S   UNL     1      -2.318  -0.917   1.957  0.00  0.00    -0.105 S 
BRANCH  21  23
ATOM     22  C   UNL     1      -1.040   0.732   3.726  0.00  0.00    +0.015 C 
ATOM     23  C   UNL     1      -0.777  -0.451   2.792  0.00  0.00    +0.072 C 
ENDBRANCH  21  23
ENDBRANCH  15  21
ENDBRANCH   1  16
BRANCH   5  24
ATOM     24  C   UNL     1      -5.954  -5.569   2.159  0.00  0.00    +0.218 C 
ATOM     25  O   UNL     1      -5.054  -4.941   2.674  0.00  0.00    -0.275 OA
ATOM     26  N   UNL     1      -6.599  -6.522   2.862  0.00  0.00    -0.311 N 
ATOM     27  H   UNL     1      -7.319  -7.024   2.450  0.00  0.00    +0.149 HD
BRANCH  26  28
ATOM     28  C   UNL     1      -6.212  -6.798   4.247  0.00  0.00    +0.139 C 
BRANCH  28  29
ATOM     29  C   UNL     1      -7.081  -7.898   4.802  0.00  0.00    -0.029 A 
ATOM     30  C   UNL     1      -8.271  -7.586   5.434  0.00  0.00    +0.008 A 
ATOM     31  C   UNL     1      -9.069  -8.593   5.942  0.00  0.00    +0.040 A 
ATOM     32  C   UNL     1      -8.678  -9.915   5.819  0.00  0.00    +0.142 A 
ATOM     33  C   UNL     1      -7.485 -10.227   5.186  0.00  0.00    +0.076 A 
ATOM     34  C   UNL     1      -6.691  -9.217   4.673  0.00  0.00    +0.028 A 
ATOM     35 CL   UNL     1      -6.992 -11.884   5.030  0.00  0.00    -0.081 Cl
ATOM     36  F   UNL     1      -9.457 -10.900   6.316  0.00  0.00    -0.204 F 
ENDBRANCH  28  29
ENDBRANCH  26  28
ENDBRANCH   5  24
TORSDOF 6
