REMARK  Name = ZINC20687969
REMARK  12 active torsions:
REMARK  status: ('A' for Active; 'I' for Inactive)
REMARK    1  A    between atoms: C_1  and  C_2
REMARK    2  A    between atoms: C_2  and  C_3
REMARK    3  A    between atoms: C_3  and  C_4
REMARK    4  A    between atoms: C_4  and  N_5
REMARK    5  A    between atoms: C_9  and  S_30
REMARK    6  A    between atoms: C_13  and  C_14
REMARK    7  A    between atoms: C_14  and  N_15
REMARK    8  A    between atoms: N_18  and  C_21
REMARK    9  A    between atoms: C_21  and  C_22
REMARK   10  A    between atoms: C_22  and  O_23
REMARK   11  A    between atoms: O_23  and  C_24
REMARK   12  A    between atoms: S_30  and  N_33
REMARK                            x       y       z     vdW  Elec       q    Type
REMARK                         _______ _______ _______ _____ _____    ______ ____
ROOT
ATOM      1  N   UNL     1      -1.233   4.522  -0.796  0.00  0.00    -0.326 N 
ATOM      2  C   UNL     1      -0.842   5.837  -0.952  0.00  0.00    +0.069 A 
ATOM      3  C   UNL     1      -1.391   7.059  -0.589  0.00  0.00    +0.030 A 
ATOM      4  C   UNL     1      -0.731   8.226  -0.910  0.00  0.00    +0.030 A 
ATOM      5  C   UNL     1       0.476   8.187  -1.592  0.00  0.00    +0.107 A 
ATOM      6  C   UNL     1       1.032   6.994  -1.957  0.00  0.00    +0.058 A 
ATOM      7  C   UNL     1       0.381   5.798  -1.643  0.00  0.00    +0.091 A 
ATOM      8  N   UNL     1       0.669   4.489  -1.863  0.00  0.00    -0.231 NA
ATOM      9  C   UNL     1      -0.274   3.744  -1.364  0.00  0.00    +0.125 A 
ENDROOT
BRANCH   5  10
ATOM     10  S   UNL     1       1.302   9.692  -1.992  0.00  0.00    +0.056 S 
ATOM     11  O   UNL     1       2.136   9.413  -3.108  0.00  0.00    -0.153 OA
ATOM     12  O   UNL     1       0.307  10.706  -2.019  0.00  0.00    -0.153 OA
BRANCH  10  13
ATOM     13  N   UNL     1       2.308  10.050  -0.726  0.00  0.00    -0.204 NA
ATOM     14  H   UNL     1       2.844  10.987  -0.938  0.00  0.00    +0.144 HD
ATOM     15  H   UNL     1       3.034   9.234  -0.593  0.00  0.00    +0.144 HD
ENDBRANCH  10  13
ENDBRANCH   5  10
BRANCH   1  16
ATOM     16  C   UNL     1      -2.454   4.053  -0.137  0.00  0.00    +0.123 C 
BRANCH  16  17
ATOM     17  C   UNL     1      -2.179   3.834   1.352  0.00  0.00    +0.021 C 
BRANCH  17  19
ATOM     18  C   UNL     1      -3.178   3.125   3.530  0.00  0.00    +0.004 C 
ATOM     19  C   UNL     1      -3.454   3.344   2.041  0.00  0.00    -0.002 C 
ENDBRANCH  17  19
ENDBRANCH  16  17
ENDBRANCH   1  16
BRANCH   9  20
ATOM     20  C   UNL     1      -0.301   2.238  -1.415  0.00  0.00    +0.158 C 
BRANCH  20  21
ATOM     21  N   UNL     1       0.369   1.696  -0.225  0.00  0.00    -0.299 NA
ATOM     22  C   UNL     1       1.803   2.016  -0.236  0.00  0.00    +0.066 C 
ATOM     23  C   UNL     1       2.447   1.505   1.054  0.00  0.00    -0.063 C 
ATOM     24  N   UNL     1       2.236   0.054   1.163  0.00  0.00    +0.384 N 
ATOM     25  C   UNL     1       0.801  -0.266   1.174  0.00  0.00    -0.063 C 
ATOM     26  C   UNL     1       0.157   0.246  -0.117  0.00  0.00    +0.066 C 
ATOM     27  H   UNL     1       2.683  -0.422   0.278  0.00  0.00    -0.082 HD
BRANCH  24  28
ATOM     28  C   UNL     1       2.905  -0.488   2.352  0.00  0.00    -0.037 C 
BRANCH  28  29
ATOM     29  C   UNL     1       3.088  -1.998   2.191  0.00  0.00    +0.210 C 
BRANCH  29  30
ATOM     30  O   UNL     1       3.973  -2.257   1.099  0.00  0.00    -0.494 OA
BRANCH  30  31
ATOM     31  C   UNL     1       4.244  -3.559   0.819  0.00  0.00    +0.120 A 
ATOM     32  C   UNL     1       3.674  -4.567   1.583  0.00  0.00    +0.045 A 
ATOM     33  C   UNL     1       3.946  -5.890   1.293  0.00  0.00    +0.004 A 
ATOM     34  C   UNL     1       4.794  -6.209   0.249  0.00  0.00    +0.000 A 
ATOM     35  C   UNL     1       5.368  -5.206  -0.510  0.00  0.00    +0.004 A 
ATOM     36  C   UNL     1       5.095  -3.882  -0.228  0.00  0.00    +0.045 A 
ENDBRANCH  30  31
ENDBRANCH  29  30
ENDBRANCH  28  29
ENDBRANCH  24  28
ENDBRANCH  20  21
ENDBRANCH   9  20
TORSDOF 11
