REMARK  Name = ZINC50817109
REMARK  6 active torsions:
REMARK  status: ('A' for Active; 'I' for Inactive)
REMARK    1  A    between atoms: C_1  and  N_2
REMARK    2  A    between atoms: N_2  and  C_3
REMARK    3  A    between atoms: N_2  and  C_10
REMARK    4  A    between atoms: C_3  and  C_4
REMARK    5  A    between atoms: C_10  and  C_11
REMARK    6  A    between atoms: C_20  and  N_21
REMARK                            x       y       z     vdW  Elec       q    Type
REMARK                         _______ _______ _______ _____ _____    ______ ____
ROOT
ATOM      1  C   UNL     1      -0.005  -0.152   2.360  0.00  0.00    -0.024 A 
ATOM      2  C   UNL     1       0.272   0.977   3.070  0.00  0.00    +0.015 A 
ATOM      3  C   UNL     1      -0.326   1.133   4.337  0.00  0.00    +0.001 A 
ATOM      4  C   UNL     1      -0.086   2.272   5.121  0.00  0.00    +0.010 A 
ATOM      5  C   UNL     1      -0.681   2.389   6.341  0.00  0.00    +0.001 A 
ATOM      6  C   UNL     1      -1.526   1.391   6.821  0.00  0.00    +0.002 A 
ATOM      7  C   UNL     1      -1.781   0.274   6.087  0.00  0.00    +0.028 A 
ATOM      8  C   UNL     1      -1.186   0.118   4.824  0.00  0.00    +0.073 A 
ATOM      9  N   UNL     1      -1.420  -0.970   4.081  0.00  0.00    -0.232 NA
ATOM     10  C   UNL     1      -0.869  -1.119   2.894  0.00  0.00    +0.118 A 
ENDROOT
BRANCH  10  11
ATOM     11  N   UNL     1      -1.145  -2.261   2.158  0.00  0.00    -0.343 N 
ATOM     12  H   UNL     1      -0.729  -2.392   1.291  0.00  0.00    +0.144 HD
ATOM     13  H   UNL     1      -1.754  -2.929   2.509  0.00  0.00    +0.144 HD
ENDBRANCH  10  11
BRANCH   1  14
ATOM     14  C   UNL     1       0.612  -0.359   1.001  0.00  0.00    -0.039 C 
BRANCH  14  16
ATOM     15  C   UNL     1      -0.765   1.318  -0.020  0.00  0.00    -0.095 C 
ATOM     16  N   UNL     1      -0.394  -0.103  -0.038  0.00  0.00    +0.383 N 
ATOM     17  H   UNL     1      -1.212  -0.667   0.140  0.00  0.00    -0.081 HD
BRANCH  16  18
ATOM     18  C   UNL     1       0.161  -0.448  -1.353  0.00  0.00    -0.042 C 
BRANCH  18  19
ATOM     19  C   UNL     1      -0.909  -0.302  -2.404  0.00  0.00    -0.056 A 
ATOM     20  C   UNL     1      -1.727  -1.370  -2.725  0.00  0.00    +0.024 A 
ATOM     21  C   UNL     1      -2.680  -1.205  -3.676  0.00  0.00    +0.055 A 
ATOM     22  S   UNL     1      -2.438   0.500  -4.149  0.00  0.00    -0.090 S 
ATOM     23  C   UNL     1      -1.088   0.879  -3.045  0.00  0.00    +0.048 A 
ATOM     24 BR   UNL     1      -3.938  -2.455  -4.331  0.00  0.00    -0.043 Br
ENDBRANCH  18  19
ENDBRANCH  16  18
ENDBRANCH  14  16
ENDBRANCH   1  14
TORSDOF 5
