REMARK  Name = ZINC34793208
REMARK  8 active torsions:
REMARK  status: ('A' for Active; 'I' for Inactive)
REMARK    1  A    between atoms: C_1  and  C_2
REMARK    2  A    between atoms: C_2  and  C_4
REMARK    3  A    between atoms: C_2  and  N_13
REMARK    4  A    between atoms: N_6  and  C_7
REMARK    5  A    between atoms: C_19  and  C_26
REMARK    6  A    between atoms: N_24  and  C_25
REMARK    7  A    between atoms: C_31  and  O_32
REMARK    8  A    between atoms: O_32  and  C_33
REMARK                            x       y       z     vdW  Elec       q    Type
REMARK                         _______ _______ _______ _____ _____    ______ ____
ROOT
ATOM      1  N   UNL     1       0.711  -0.489   1.189  0.00  0.00    -0.281 N 
ATOM      2  C   UNL     1       1.926  -1.317   1.202  0.00  0.00    +0.160 C 
ATOM      3  C   UNL     1       2.236  -1.530   2.666  0.00  0.00    +0.042 C 
ATOM      4  C   UNL     1       1.277  -0.879   3.356  0.00  0.00    +0.058 C 
ATOM      5  C   UNL     1       0.374  -0.256   2.470  0.00  0.00    +0.247 C 
ATOM      6  O   UNL     1      -0.587   0.404   2.820  0.00  0.00    -0.270 OA
ATOM      7  C   UNL     1       1.342  -0.926   4.869  0.00  0.00    +0.145 C 
ATOM      8  N   UNL     1       2.455  -1.685   5.465  0.00  0.00    -0.288 N 
ATOM      9  C   UNL     1       3.337  -2.284   4.641  0.00  0.00    +0.307 C 
ATOM     10  O   UNL     1       4.259  -2.914   5.124  0.00  0.00    -0.252 OA
ATOM     11  N   UNL     1       3.232  -2.210   3.308  0.00  0.00    -0.260 N 
ATOM     12  C   UNL     1       4.239  -2.895   2.494  0.00  0.00    +0.139 C 
ATOM     13  H   UNL     1       2.550  -1.752   6.428  0.00  0.00    +0.151 HD
ENDROOT
BRANCH   7  14
ATOM     14  C   UNL     1       0.052  -1.522   5.371  0.00  0.00    +0.019 A 
ATOM     15  C   UNL     1       0.005  -2.850   5.748  0.00  0.00    +0.009 A 
ATOM     16  C   UNL     1      -1.178  -3.398   6.209  0.00  0.00    +0.001 A 
ATOM     17  C   UNL     1      -2.317  -2.618   6.293  0.00  0.00    +0.004 A 
ATOM     18  C   UNL     1      -2.274  -1.289   5.918  0.00  0.00    +0.046 A 
ATOM     19  C   UNL     1      -1.087  -0.736   5.460  0.00  0.00    +0.125 A 
BRANCH  19  20
ATOM     20  O   UNL     1      -1.042   0.572   5.095  0.00  0.00    -0.495 OA
ATOM     21  C   UNL     1      -2.253   1.321   5.214  0.00  0.00    +0.277 C 
ENDBRANCH  19  20
ENDBRANCH   7  14
BRANCH   1  23
ATOM     22  C   UNL     1      -0.019   1.526   0.010  0.00  0.00    +0.038 C 
ATOM     23  C   UNL     1       0.002  -0.004   0.002  0.00  0.00    +0.159 C 
BRANCH  23  24
ATOM     24  C   UNL     1      -1.412  -0.526   0.013  0.00  0.00    +0.234 C 
ATOM     25  O   UNL     1      -1.790  -1.233   0.922  0.00  0.00    -0.274 OA
ATOM     26  N   UNL     1      -2.256  -0.206  -0.988  0.00  0.00    -0.311 N 
ATOM     27  H   UNL     1      -1.953   0.360  -1.716  0.00  0.00    +0.149 HD
BRANCH  26  28
ATOM     28  C   UNL     1      -3.630  -0.713  -0.978  0.00  0.00    +0.073 C 
ATOM     29  C   UNL     1      -3.662  -2.113  -1.595  0.00  0.00    +0.022 C 
ATOM     30  C   UNL     1      -5.097  -2.642  -1.584  0.00  0.00    +0.002 C 
ATOM     31  C   UNL     1      -5.992  -1.706  -2.398  0.00  0.00    +0.000 C 
ATOM     32  C   UNL     1      -5.961  -0.306  -1.781  0.00  0.00    +0.002 C 
ATOM     33  C   UNL     1      -4.525   0.223  -1.792  0.00  0.00    +0.022 C 
ENDBRANCH  26  28
ENDBRANCH  23  24
ENDBRANCH   1  23
TORSDOF 5
