REMARK  Name = ZINC14237857
REMARK  8 active torsions:
REMARK  status: ('A' for Active; 'I' for Inactive)
REMARK    1  A    between atoms: C_3  and  C_6
REMARK    2  A    between atoms: C_6  and  C_8
REMARK    3  A    between atoms: C_6  and  N_15
REMARK    4  A    between atoms: N_15  and  C_16
REMARK    5  A    between atoms: C_16  and  C_17
REMARK    6  A    between atoms: N_22  and  C_25
REMARK    7  A    between atoms: C_25  and  C_26
REMARK    8  A    between atoms: N_28  and  C_29
REMARK                            x       y       z     vdW  Elec       q    Type
REMARK                         _______ _______ _______ _____ _____    ______ ____
ROOT
ATOM      1  C   UNL     1       4.972   0.297   3.141  0.00  0.00    +0.199 C 
ATOM      2  O   UNL     1       5.863  -0.376   2.667  0.00  0.00    -0.278 OA
ATOM      3  N   UNL     1       4.741   0.272   4.468  0.00  0.00    -0.301 N 
ATOM      4  C   UNL     1       3.663   1.076   5.063  0.00  0.00    +0.123 C 
ATOM      5  C   UNL     1       2.803   0.163   5.943  0.00  0.00    +0.104 C 
ATOM      6  N   UNL     1       3.663  -0.533   6.909  0.00  0.00    -0.291 NA
ATOM      7  C   UNL     1       4.626  -1.410   6.230  0.00  0.00    +0.104 C 
ATOM      8  C   UNL     1       5.557  -0.566   5.361  0.00  0.00    +0.123 C 
ENDROOT
BRANCH   1   9
ATOM      9  C   UNL     1       4.124   1.163   2.245  0.00  0.00    +0.016 C 
BRANCH   9  10
ATOM     10  N   UNL     1       4.572   1.015   0.854  0.00  0.00    +0.392 N 
ATOM     11  H   UNL     1       4.483   0.050   0.572  0.00  0.00    -0.084 HD
ATOM     12  H   UNL     1       5.538   1.299   0.780  0.00  0.00    -0.084 HD
BRANCH  10  13
ATOM     13  C   UNL     1       3.746   1.859  -0.019  0.00  0.00    -0.003 C 
BRANCH  13  14
ATOM     14  C   UNL     1       4.282   1.803  -1.427  0.00  0.00    -0.056 A 
ATOM     15  C   UNL     1       4.730   0.603  -1.948  0.00  0.00    +0.005 A 
ATOM     16  C   UNL     1       5.222   0.550  -3.238  0.00  0.00    +0.038 A 
ATOM     17  C   UNL     1       5.266   1.699  -4.009  0.00  0.00    +0.123 A 
ATOM     18  C   UNL     1       4.817   2.900  -3.486  0.00  0.00    +0.038 A 
ATOM     19  C   UNL     1       4.321   2.950  -2.197  0.00  0.00    +0.005 A 
ATOM     20  F   UNL     1       5.747   1.649  -5.271  0.00  0.00    -0.205 F 
ENDBRANCH  13  14
BRANCH  13  23
ATOM     21  C   UNL     1      -0.034   1.387   0.029  0.00  0.00    +0.008 A 
ATOM     22  C   UNL     1       1.170   2.067   0.018  0.00  0.00    +0.010 A 
ATOM     23  C   UNL     1       2.325   1.358  -0.003  0.00  0.00    -0.020 A 
ATOM     24  S   UNL     1       1.726  -0.324  -0.007  0.00  0.00    -0.103 S 
ATOM     25  C   UNL     1      -0.024   0.032   0.019  0.00  0.00    +0.045 A 
ENDBRANCH  13  23
ENDBRANCH  10  13
ENDBRANCH   9  10
ENDBRANCH   1   9
BRANCH   6  26
ATOM     26  C   UNL     1       2.861  -1.286   7.882  0.00  0.00    +0.180 C 
BRANCH  26  27
ATOM     27  C   UNL     1       3.752  -1.780   8.992  0.00  0.00    +0.231 C 
ATOM     28  O   UNL     1       4.938  -1.530   8.975  0.00  0.00    -0.274 OA
ATOM     29  N   UNL     1       3.230  -2.500  10.005  0.00  0.00    -0.284 N 
ATOM     30  H   UNL     1       2.272  -2.643  10.055  0.00  0.00    +0.155 HD
BRANCH  29  31
ATOM     31  C   UNL     1       4.071  -3.042  10.985  0.00  0.00    +0.034 A 
ATOM     32  C   UNL     1       3.777  -4.277  11.548  0.00  0.00    +0.026 A 
ATOM     33  C   UNL     1       4.607  -4.809  12.514  0.00  0.00    +0.040 A 
ATOM     34  C   UNL     1       5.732  -4.112  12.923  0.00  0.00    +0.124 A 
ATOM     35  C   UNL     1       6.027  -2.881  12.363  0.00  0.00    +0.040 A 
ATOM     36  C   UNL     1       5.202  -2.347  11.391  0.00  0.00    +0.026 A 
ATOM     37  F   UNL     1       6.543  -4.634  13.869  0.00  0.00    -0.205 F 
ENDBRANCH  29  31
ENDBRANCH  26  27
ENDBRANCH   6  26
TORSDOF 8
