REMARK  Name = ZINC12100315
REMARK  5 active torsions:
REMARK  status: ('A' for Active; 'I' for Inactive)
REMARK    1  A    between atoms: C_4  and  C_7
REMARK    2  A    between atoms: N_9  and  C_10
REMARK    3  A    between atoms: C_19  and  O_21
REMARK    4  A    between atoms: C_26  and  C_27
REMARK    5  A    between atoms: C_26  and  N_62
REMARK                            x       y       z     vdW  Elec       q    Type
REMARK                         _______ _______ _______ _____ _____    ______ ____
ROOT
ATOM      1  C   UNL     1       2.422   1.186  -0.015  0.00  0.00    +0.133 C 
ATOM      2  C   UNL     1       2.851   0.845   1.397  0.00  0.00    -0.021 A 
ATOM      3  C   UNL     1       2.122   0.335   2.458  0.00  0.00    +0.006 A 
ATOM      4  C   UNL     1       2.733   0.100   3.673  0.00  0.00    +0.000 A 
ATOM      5  C   UNL     1       4.079   0.375   3.833  0.00  0.00    +0.000 A 
ATOM      6  C   UNL     1       4.808   0.883   2.776  0.00  0.00    +0.004 A 
ATOM      7  C   UNL     1       4.198   1.120   1.556  0.00  0.00    -0.034 A 
ATOM      8  C   UNL     1       4.759   1.662   0.264  0.00  0.00    +0.021 C 
ATOM      9  C   UNL     1       3.539   2.098  -0.568  0.00  0.00    +0.149 C 
ATOM     10  C   UNL     1       5.534   0.575  -0.477  0.00  0.00    -0.005 C 
ATOM     11  C   UNL     1       6.114   1.159  -1.769  0.00  0.00    -0.077 C 
ATOM     12  C   UNL     1       6.238   3.373  -0.788  0.00  0.00    -0.077 C 
ATOM     13  C   UNL     1       5.661   2.863   0.536  0.00  0.00    -0.005 C 
ATOM     14  N   UNL     1       7.010   2.285  -1.425  0.00  0.00    +0.383 N 
ATOM     15  H   UNL     1       7.723   1.952  -0.765  0.00  0.00    -0.081 HD
ENDROOT
BRANCH   1  18
ATOM     16  C   UNL     1      -0.014   1.211   0.009  0.00  0.00    +0.245 C 
ATOM     17  O   UNL     1       0.002  -0.004   0.002  0.00  0.00    -0.270 OA
ATOM     18  N   UNL     1       1.143   1.901   0.001  0.00  0.00    -0.302 N 
ATOM     19  H   UNL     1       1.130   2.871   0.007  0.00  0.00    +0.150 HD
BRANCH  16  23
ATOM     20  C   UNL     1      -3.721   3.285   0.038  0.00  0.00    +0.000 A 
ATOM     21  C   UNL     1      -3.706   1.901   0.030  0.00  0.00    +0.001 A 
ATOM     22  C   UNL     1      -2.506   1.222   0.021  0.00  0.00    +0.013 A 
ATOM     23  C   UNL     1      -1.305   1.933   0.019  0.00  0.00    +0.037 A 
ATOM     24  C   UNL     1      -1.327   3.329   0.032  0.00  0.00    +0.013 A 
ATOM     25  C   UNL     1      -2.534   3.996   0.037  0.00  0.00    +0.001 A 
ENDBRANCH  16  23
ENDBRANCH   1  18
BRANCH   9  26
ATOM     26  O   UNL     1       3.756   1.849  -1.958  0.00  0.00    -0.389 OA
ATOM     27  H   UNL     1       2.985   2.024  -2.515  0.00  0.00    +0.210 HD
ENDBRANCH   9  26
BRANCH  14  28
ATOM     28  C   UNL     1       7.679   2.787  -2.642  0.00  0.00    -0.036 C 
BRANCH  28  29
ATOM     29  C   UNL     1       8.230   1.619  -3.420  0.00  0.00    -0.026 A 
ATOM     30  C   UNL     1       7.632   0.911  -4.388  0.00  0.00    +0.017 A 
ATOM     31  C   UNL     1       8.352  -0.186  -5.018  0.00  0.00    -0.011 A 
ATOM     32  C   UNL     1       7.921  -1.052  -6.050  0.00  0.00    +0.009 A 
ATOM     33  C   UNL     1       8.735  -2.037  -6.516  0.00  0.00    +0.001 A 
ATOM     34  C   UNL     1      10.010  -2.229  -6.002  0.00  0.00    +0.001 A 
ATOM     35  C   UNL     1      10.468  -1.405  -4.993  0.00  0.00    +0.015 A 
ATOM     36  C   UNL     1       9.652  -0.403  -4.512  0.00  0.00    +0.020 A 
ATOM     37  S   UNL     1       9.829   0.846  -3.265  0.00  0.00    -0.095 S 
ENDBRANCH  28  29
ENDBRANCH  14  28
TORSDOF 5
