REMARK  Name = ZINC35231738
REMARK  8 active torsions:
REMARK  status: ('A' for Active; 'I' for Inactive)
REMARK    1  A    between atoms: C_1  and  C_2
REMARK    2  A    between atoms: C_2  and  C_3
REMARK    3  A    between atoms: C_2  and  C_4
REMARK    4  A    between atoms: C_7  and  N_10
REMARK    5  A    between atoms: N_13  and  C_14
REMARK    6  A    between atoms: N_13  and  C_37
REMARK    7  A    between atoms: C_14  and  C_15
REMARK    8  A    between atoms: C_29  and  C_31
REMARK                            x       y       z     vdW  Elec       q    Type
REMARK                         _______ _______ _______ _____ _____    ______ ____
ROOT
ATOM      1  C   UNL     1       5.295  -5.150  -5.629  0.00  0.00    +0.238 C 
ATOM      2  O   UNL     1       4.171  -5.446  -5.978  0.00  0.00    -0.273 OA
ATOM      3  N   UNL     1       6.218  -6.114  -5.444  0.00  0.00    -0.255 N 
ATOM      4  C   UNL     1       5.871  -7.460  -5.626  0.00  0.00    +0.061 A 
ATOM      5  C   UNL     1       4.574  -7.890  -5.398  0.00  0.00    +0.025 A 
ATOM      6  C   UNL     1       4.243  -9.218  -5.591  0.00  0.00    +0.002 A 
ATOM      7  C   UNL     1       5.199 -10.124  -6.013  0.00  0.00    +0.002 A 
ATOM      8  C   UNL     1       6.499  -9.706  -6.239  0.00  0.00    +0.028 A 
ATOM      9  C   UNL     1       6.837  -8.382  -6.043  0.00  0.00    +0.068 A 
ATOM     10  N   UNL     1       8.146  -7.917  -6.234  0.00  0.00    -0.316 N 
ATOM     11  C   UNL     1       9.205  -8.509  -6.837  0.00  0.00    +0.092 A 
ATOM     12  C   UNL     1      10.254  -7.659  -6.777  0.00  0.00    +0.020 A 
ATOM     13  C   UNL     1       9.821  -6.494  -6.105  0.00  0.00    +0.025 A 
ATOM     14  C   UNL     1       8.536  -6.674  -5.782  0.00  0.00    +0.049 A 
ATOM     15  C   UNL     1       7.592  -5.752  -5.057  0.00  0.00    +0.159 C 
ENDROOT
BRANCH  15  16
ATOM     16  C   UNL     1       7.764  -5.918  -3.569  0.00  0.00    -0.021 A 
ATOM     17  C   UNL     1       7.199  -7.003  -2.925  0.00  0.00    +0.006 A 
ATOM     18  C   UNL     1       7.357  -7.156  -1.561  0.00  0.00    +0.000 A 
ATOM     19  C   UNL     1       8.080  -6.224  -0.840  0.00  0.00    +0.000 A 
ATOM     20  C   UNL     1       8.646  -5.140  -1.484  0.00  0.00    +0.000 A 
ATOM     21  C   UNL     1       8.492  -4.989  -2.850  0.00  0.00    +0.006 A 
ENDBRANCH  15  16
BRANCH   1  22
ATOM     22  C   UNL     1       5.658  -3.705  -5.403  0.00  0.00    +0.205 C 
BRANCH  22  26
ATOM     23  N   UNL     1       2.533  -1.925  -4.645  0.00  0.00    -0.269 N 
ATOM     24  C   UNL     1       3.684  -2.609  -4.488  0.00  0.00    +0.307 C 
ATOM     25  O   UNL     1       4.019  -2.988  -3.382  0.00  0.00    -0.252 OA
ATOM     26  N   UNL     1       4.463  -2.872  -5.556  0.00  0.00    -0.274 N 
ATOM     27  H   UNL     1       2.208  -1.720  -5.536  0.00  0.00    +0.156 HD
BRANCH  23  31
ATOM     28  C   UNL     1       0.369  -0.691  -1.306  0.00  0.00    -0.045 A 
ATOM     29  C   UNL     1       0.228  -0.020  -2.506  0.00  0.00    +0.006 A 
ATOM     30  C   UNL     1       0.944  -0.426  -3.615  0.00  0.00    +0.023 A 
ATOM     31  C   UNL     1       1.806  -1.510  -3.524  0.00  0.00    +0.035 A 
ATOM     32  C   UNL     1       1.946  -2.183  -2.317  0.00  0.00    +0.023 A 
ATOM     33  C   UNL     1       1.231  -1.768  -1.210  0.00  0.00    +0.006 A 
BRANCH  28  35
ATOM     34  C   UNL     1      -0.053   1.203   0.237  0.00  0.00    +0.012 C 
ATOM     35  C   UNL     1      -0.414  -0.245  -0.098  0.00  0.00    +0.013 C 
ATOM     36  C   UNL     1      -1.912  -0.342  -0.397  0.00  0.00    +0.012 C 
ENDBRANCH  28  35
ENDBRANCH  23  31
BRANCH  26  37
ATOM     37  C   UNL     1       4.115  -2.324  -6.869  0.00  0.00    +0.078 C 
ATOM     38  C   UNL     1       4.997  -2.717  -8.055  0.00  0.00    +0.024 C 
ATOM     39  C   UNL     1       5.072  -1.300  -7.484  0.00  0.00    +0.024 C 
ENDBRANCH  26  37
ENDBRANCH  22  26
ENDBRANCH   1  22
TORSDOF 6
