REMARK  Name = ZINC51055659
REMARK  10 active torsions:
REMARK  status: ('A' for Active; 'I' for Inactive)
REMARK    1  A    between atoms: C_1  and  C_2
REMARK    2  A    between atoms: C_2  and  C_3
REMARK    3  A    between atoms: C_3  and  C_4
REMARK    4  A    between atoms: C_4  and  C_6
REMARK    5  A    between atoms: C_4  and  N_7
REMARK    6  A    between atoms: C_8  and  C_10
REMARK    7  A    between atoms: N_15  and  C_17
REMARK    8  A    between atoms: C_17  and  C_18
REMARK    9  A    between atoms: N_20  and  C_21
REMARK   10  A    between atoms: C_24  and  C_28
REMARK                            x       y       z     vdW  Elec       q    Type
REMARK                         _______ _______ _______ _____ _____    ______ ____
ROOT
ATOM      1  C   UNL     1       2.109  -4.207  -1.619  0.00  0.00    +0.058 C 
ATOM      2  C   UNL     1       3.589  -4.243  -1.227  0.00  0.00    +0.009 C 
ATOM      3  C   UNL     1       4.402  -4.816  -2.391  0.00  0.00    -0.018 C 
ATOM      4  C   UNL     1       3.863  -6.202  -2.750  0.00  0.00    -0.078 C 
ATOM      5  N   UNL     1       2.453  -6.096  -3.142  0.00  0.00    +0.386 N 
ATOM      6  C   UNL     1       1.654  -5.615  -2.007  0.00  0.00    -0.065 C 
ATOM      7  H   UNL     1       2.366  -5.449  -3.910  0.00  0.00    -0.081 HD
ENDROOT
BRANCH   1   9
ATOM      8  N   UNL     1       1.519  -2.493   0.064  0.00  0.00    -0.313 N 
ATOM      9  C   UNL     1       1.291  -3.717  -0.453  0.00  0.00    +0.215 C 
ATOM     10  O   UNL     1       0.427  -4.424   0.021  0.00  0.00    -0.276 OA
ATOM     11  H   UNL     1       2.209  -1.928  -0.315  0.00  0.00    +0.149 HD
BRANCH   8  12
ATOM     12  C   UNL     1       0.723  -2.017   1.198  0.00  0.00    +0.070 C 
ATOM     13  C   UNL     1       1.342  -2.522   2.503  0.00  0.00    +0.028 C 
BRANCH  12  14
ATOM     14  C   UNL     1       0.704  -0.487   1.201  0.00  0.00    +0.022 C 
BRANCH  14  16
ATOM     15  C   UNL     1      -0.045   1.546  -0.042  0.00  0.00    +0.004 C 
ATOM     16  C   UNL     1      -0.026   0.016  -0.045  0.00  0.00    -0.002 C 
ENDBRANCH  14  16
ENDBRANCH  12  14
ENDBRANCH   8  12
ENDBRANCH   1   9
BRANCH   5  17
ATOM     17  C   UNL     1       1.962  -7.416  -3.559  0.00  0.00    +0.019 C 
BRANCH  17  18
ATOM     18  C   UNL     1       2.690  -7.853  -4.804  0.00  0.00    +0.201 C 
ATOM     19  O   UNL     1       3.535  -7.134  -5.295  0.00  0.00    -0.278 OA
ATOM     20  N   UNL     1       2.403  -9.041  -5.372  0.00  0.00    -0.286 N 
ATOM     21  H   UNL     1       1.786  -9.650  -4.936  0.00  0.00    +0.155 HD
BRANCH  20  22
ATOM     22  C   UNL     1       2.994  -9.396  -6.590  0.00  0.00    +0.052 A 
ATOM     23  C   UNL     1       3.438  -8.410  -7.461  0.00  0.00    +0.025 A 
ATOM     24  C   UNL     1       4.021  -8.763  -8.662  0.00  0.00    +0.005 A 
ATOM     25  C   UNL     1       4.163 -10.097  -8.998  0.00  0.00    -0.049 A 
ATOM     26  C   UNL     1       3.723 -11.082  -8.133  0.00  0.00    +0.025 A 
ATOM     27  C   UNL     1       3.143 -10.735  -6.927  0.00  0.00    +0.062 A 
ATOM     28 CL   UNL     1       2.596 -11.972  -5.838  0.00  0.00    -0.082 Cl
ATOM     29  C   UNL     1       4.799 -10.478 -10.310  0.00  0.00    +0.044 C 
ENDBRANCH  20  22
ENDBRANCH  17  18
ENDBRANCH   5  17
TORSDOF 7
