REMARK  Name = ZINC00622454
REMARK  8 active torsions:
REMARK  status: ('A' for Active; 'I' for Inactive)
REMARK    1  A    between atoms: C_1  and  C_2
REMARK    2  A    between atoms: C_4  and  N_10
REMARK    3  A    between atoms: C_7  and  C_8
REMARK    4  A    between atoms: C_11  and  C_13
REMARK    5  A    between atoms: C_13  and  S_14
REMARK    6  A    between atoms: S_14  and  C_15
REMARK    7  A    between atoms: C_17  and  C_22
REMARK    8  A    between atoms: C_19  and  C_21
REMARK                            x       y       z     vdW  Elec       q    Type
REMARK                         _______ _______ _______ _____ _____    ______ ____
ROOT
ATOM      1  N   UNL     1      -0.016   1.344   0.009  0.00  0.00    -0.284 N 
ATOM      2  C   UNL     1       0.088   0.000  -0.009  0.00  0.00    +0.228 C 
ATOM      3  O   UNL     1      -0.907  -0.687   0.083  0.00  0.00    -0.275 OA
ATOM      4  H   UNL     1       0.784   1.892   0.014  0.00  0.00    +0.155 HD
ENDROOT
BRANCH   1   8
ATOM      5  C   UNL     1      -4.812   1.136  -1.053  0.00  0.00    +0.044 C 
ATOM      6  C   UNL     1      -3.621   1.869  -0.492  0.00  0.00    -0.046 A 
ATOM      7  C   UNL     1      -2.376   1.271  -0.501  0.00  0.00    +0.028 A 
ATOM      8  C   UNL     1      -1.279   1.947   0.016  0.00  0.00    +0.048 A 
ATOM      9  C   UNL     1      -1.438   3.223   0.544  0.00  0.00    +0.039 A 
ATOM     10  C   UNL     1      -2.685   3.818   0.543  0.00  0.00    +0.020 A 
ATOM     11  C   UNL     1      -3.776   3.141   0.029  0.00  0.00    -0.046 A 
ATOM     12  C   UNL     1      -5.136   3.790   0.035  0.00  0.00    +0.044 C 
ATOM     13 BR   UNL     1       0.051   4.146   1.255  0.00  0.00    -0.048 Br
ENDBRANCH   1   8
BRANCH   2  14
ATOM     14  C   UNL     1       1.442  -0.649  -0.144  0.00  0.00    +0.173 C 
BRANCH  14  15
ATOM     15  S   UNL     1       1.252  -2.449  -0.137  0.00  0.00    -0.077 S 
BRANCH  15  16
ATOM     16  C   UNL     1       2.937  -2.935  -0.303  0.00  0.00    +0.189 A 
ATOM     17  N   UNL     1       3.874  -2.002  -0.393  0.00  0.00    -0.227 NA
ATOM     18  C   UNL     1       5.149  -2.333  -0.513  0.00  0.00    +0.043 A 
ATOM     19  C   UNL     1       5.498  -3.674  -0.556  0.00  0.00    +0.046 A 
ATOM     20  C   UNL     1       4.492  -4.624  -0.464  0.00  0.00    +0.043 A 
ATOM     21  N   UNL     1       3.237  -4.226  -0.341  0.00  0.00    -0.227 NA
ATOM     22  C   UNL     1       4.825  -6.093  -0.505  0.00  0.00    +0.066 C 
ATOM     23  C   UNL     1       6.208  -1.266  -0.609  0.00  0.00    +0.066 C 
ENDBRANCH  15  16
ENDBRANCH  14  15
ENDBRANCH   2  14
TORSDOF 4
