REMARK  Name = ZINC33936927
REMARK  9 active torsions:
REMARK  status: ('A' for Active; 'I' for Inactive)
REMARK    1  A    between atoms: C_1  and  C_2
REMARK    2  A    between atoms: C_2  and  C_3
REMARK    3  A    between atoms: C_10  and  C_15
REMARK    4  A    between atoms: C_15  and  C_17
REMARK    5  A    between atoms: C_15  and  N_30
REMARK    6  A    between atoms: N_21  and  C_22
REMARK    7  A    between atoms: C_22  and  C_23
REMARK    8  A    between atoms: C_23  and  C_24
REMARK    9  A    between atoms: C_34  and  C_37
REMARK                            x       y       z     vdW  Elec       q    Type
REMARK                         _______ _______ _______ _____ _____    ______ ____
ROOT
ATOM      1  C   UNL     1       6.221  -2.083  -3.550  0.00  0.00    +0.039 C 
ENDROOT
BRANCH   1   9
ATOM      2  C   UNL     1       0.707  -0.490  -1.238  0.00  0.00    -0.047 A 
ATOM      3  C   UNL     1      -0.020  -0.718  -2.399  0.00  0.00    +0.005 A 
ATOM      4  C   UNL     1       0.605  -1.162  -3.544  0.00  0.00    +0.026 A 
ATOM      5  C   UNL     1       1.978  -1.385  -3.539  0.00  0.00    +0.049 A 
ATOM      6  C   UNL     1       2.712  -1.153  -2.361  0.00  0.00    -0.001 A 
ATOM      7  C   UNL     1       2.057  -0.698  -1.211  0.00  0.00    +0.013 A 
ATOM      8  C   UNL     1       4.156  -1.391  -2.366  0.00  0.00    +0.017 A 
ATOM      9  C   UNL     1       4.737  -1.828  -3.511  0.00  0.00    +0.011 A 
ATOM     10  C   UNL     1       3.955  -2.045  -4.666  0.00  0.00    +0.251 A 
ATOM     11  O   UNL     1       4.497  -2.438  -5.684  0.00  0.00    -0.268 OA
ATOM     12  N   UNL     1       2.628  -1.829  -4.671  0.00  0.00    -0.322 N 
ATOM     13  H   UNL     1       2.121  -1.989  -5.482  0.00  0.00    +0.169 HD
BRANCH   2  15
ATOM     14  C   UNL     1      -0.019   1.526   0.010  0.00  0.00    +0.009 C 
ATOM     15  C   UNL     1       0.002  -0.004   0.002  0.00  0.00    +0.032 C 
ENDBRANCH   2  15
ENDBRANCH   1   9
BRANCH   1  16
ATOM     16  N   UNL     1       6.471  -3.458  -4.003  0.00  0.00    +0.389 N 
ATOM     17  C   UNL     1       5.829  -4.400  -3.079  0.00  0.00    -0.077 C 
ATOM     18  C   UNL     1       6.016  -5.830  -3.591  0.00  0.00    -0.018 C 
ATOM     19  C   UNL     1       7.513  -6.142  -3.682  0.00  0.00    -0.001 C 
ATOM     20  C   UNL     1       8.185  -5.107  -4.590  0.00  0.00    -0.031 C 
ATOM     21  C   UNL     1       7.917  -3.704  -4.041  0.00  0.00    -0.074 C 
ATOM     22  C   UNL     1       9.693  -5.363  -4.626  0.00  0.00    +0.005 C 
ATOM     23  H   UNL     1       6.085  -3.581  -4.928  0.00  0.00    -0.080 HD
ENDBRANCH   1  16
BRANCH   1  24
ATOM     24  C   UNL     1       6.872  -1.114  -4.503  0.00  0.00    +0.142 A 
ATOM     25  N   UNL     1       6.830  -1.156  -5.812  0.00  0.00    -0.115 NA
ATOM     26  N   UNL     1       7.506  -0.157  -6.265  0.00  0.00    -0.023 NA
ATOM     27  N   UNL     1       7.979   0.521  -5.278  0.00  0.00    -0.044 NA
ATOM     28  N   UNL     1       7.606  -0.034  -4.175  0.00  0.00    -0.230 N 
BRANCH  28  29
ATOM     29  C   UNL     1       7.923   0.423  -2.820  0.00  0.00    +0.152 C 
BRANCH  29  30
ATOM     30  C   UNL     1       9.228  -0.226  -2.355  0.00  0.00    +0.058 C 
BRANCH  30  31
ATOM     31  C   UNL     1       9.555   0.244  -0.961  0.00  0.00    -0.046 A 
ATOM     32  C   UNL     1      10.319   1.381  -0.776  0.00  0.00    +0.004 A 
ATOM     33  C   UNL     1      10.619   1.812   0.502  0.00  0.00    +0.000 A 
ATOM     34  C   UNL     1      10.154   1.107   1.596  0.00  0.00    +0.000 A 
ATOM     35  C   UNL     1       9.389  -0.030   1.412  0.00  0.00    +0.000 A 
ATOM     36  C   UNL     1       9.086  -0.459   0.133  0.00  0.00    +0.004 A 
ENDBRANCH  30  31
ENDBRANCH  29  30
ENDBRANCH  28  29
ENDBRANCH   1  24
TORSDOF 7
