REMARK  Name = ZINC23596188
REMARK  7 active torsions:
REMARK  status: ('A' for Active; 'I' for Inactive)
REMARK    1  A    between atoms: C_1  and  C_2
REMARK    2  A    between atoms: C_3  and  C_7
REMARK    3  A    between atoms: C_10  and  S_13
REMARK    4  A    between atoms: N_11  and  C_12
REMARK    5  A    between atoms: S_13  and  C_14
REMARK    6  A    between atoms: C_14  and  C_15
REMARK    7  A    between atoms: N_17  and  C_18
REMARK                            x       y       z     vdW  Elec       q    Type
REMARK                         _______ _______ _______ _____ _____    ______ ____
ROOT
ATOM      1  C   UNL     1       3.604   6.110   0.664  0.00  0.00    +0.228 C 
ATOM      2  O   UNL     1       4.649   5.562   0.383  0.00  0.00    -0.275 OA
ATOM      3  N   UNL     1       2.443   5.430   0.585  0.00  0.00    -0.284 N 
ATOM      4  H   UNL     1       1.490   5.946   0.773  0.00  0.00    +0.155 HD
ENDROOT
BRANCH   3   5
ATOM      5  C   UNL     1       2.451   4.076   0.267  0.00  0.00    +0.045 A 
ATOM      6  C   UNL     1       3.393   3.571  -0.629  0.00  0.00    +0.024 A 
ATOM      7  C   UNL     1       3.403   2.230  -0.947  0.00  0.00    +0.003 A 
ATOM      8  C   UNL     1       2.480   1.363  -0.382  0.00  0.00    +0.012 A 
ATOM      9  C   UNL     1       1.533   1.843   0.513  0.00  0.00    +0.035 A 
ATOM     10  C   UNL     1       1.515   3.213   0.844  0.00  0.00    +0.054 A 
ATOM     11  C   UNL     1       0.508   3.723   1.794  0.00  0.00    +0.196 C 
ATOM     12  O   UNL     1       0.626   4.831   2.279  0.00  0.00    -0.287 OA
ATOM     13  C   UNL     1      -0.648   2.869   2.149  0.00  0.00    +0.033 A 
ATOM     14  C   UNL     1      -1.750   3.408   2.804  0.00  0.00    +0.012 A 
ATOM     15  C   UNL     1      -2.833   2.595   3.111  0.00  0.00    +0.001 A 
ATOM     16  C   UNL     1      -2.815   1.250   2.787  0.00  0.00    +0.001 A 
ATOM     17  C   UNL     1      -1.722   0.699   2.141  0.00  0.00    +0.012 A 
ATOM     18  C   UNL     1      -0.634   1.501   1.815  0.00  0.00    +0.033 A 
ATOM     19  C   UNL     1       0.542   0.930   1.123  0.00  0.00    +0.195 C 
ATOM     20  O   UNL     1       0.690  -0.274   1.053  0.00  0.00    -0.287 OA
ENDBRANCH   3   5
BRANCH   1  21
ATOM     21  C   UNL     1       3.604   7.552   1.101  0.00  0.00    +0.173 C 
BRANCH  21  22
ATOM     22  S   UNL     1       5.301   8.181   1.105  0.00  0.00    -0.077 S 
BRANCH  22  26
ATOM     23  C   UNL     1       5.272  11.920   2.242  0.00  0.00    +0.168 A 
ATOM     24  N   UNL     1       4.001  11.595   2.283  0.00  0.00    -0.128 NA
ATOM     25  N   UNL     1       3.849  10.369   1.929  0.00  0.00    -0.122 NA
ATOM     26  C   UNL     1       5.013   9.836   1.639  0.00  0.00    +0.192 A 
ATOM     27  N   UNL     1       5.961  10.802   1.833  0.00  0.00    -0.305 N 
ATOM     28  C   UNL     1       7.408  10.674   1.643  0.00  0.00    +0.153 C 
BRANCH  23  31
ATOM     29  C   UNL     1       4.682  13.611   4.815  0.00  0.00    +0.087 C 
ATOM     30  C   UNL     1       5.609  13.985   3.687  0.00  0.00    +0.112 A 
ATOM     31  C   UNL     1       5.854  13.238   2.577  0.00  0.00    +0.060 A 
ATOM     32  C   UNL     1       6.810  14.014   1.777  0.00  0.00    +0.053 A 
ATOM     33  C   UNL     1       7.051  15.136   2.475  0.00  0.00    +0.196 A 
ATOM     34  O   UNL     1       6.336  15.109   3.610  0.00  0.00    -0.467 OA
ENDBRANCH  23  31
ENDBRANCH  22  26
ENDBRANCH  21  22
ENDBRANCH   1  21
TORSDOF 5
