REMARK  Name = ZINC14740628
REMARK  9 active torsions:
REMARK  status: ('A' for Active; 'I' for Inactive)
REMARK    1  A    between atoms: C_1  and  N_2
REMARK    2  A    between atoms: C_5  and  C_7
REMARK    3  A    between atoms: N_9  and  C_10
REMARK    4  A    between atoms: N_9  and  C_11
REMARK    5  A    between atoms: C_11  and  C_12
REMARK    6  A    between atoms: C_19  and  N_63
REMARK    7  A    between atoms: C_23  and  C_24
REMARK    8  A    between atoms: C_23  and  N_63
REMARK    9  A    between atoms: C_24  and  C_25
REMARK                            x       y       z     vdW  Elec       q    Type
REMARK                         _______ _______ _______ _____ _____    ______ ____
ROOT
ATOM      1  C   UNL     1       5.003   7.906   7.108  0.00  0.00    +0.172 C 
ATOM      2  N   UNL     1       4.248   8.214   5.890  0.00  0.00    -0.270 N 
ATOM      3  C   UNL     1       4.230   7.454   4.783  0.00  0.00    +0.043 A 
ATOM      4  C   UNL     1       3.421   8.071   3.886  0.00  0.00    +0.004 A 
ATOM      5  C   UNL     1       2.962   9.238   4.520  0.00  0.00    +0.151 A 
ATOM      6  N   UNL     1       3.505   9.253   5.725  0.00  0.00    -0.166 NA
ATOM      7  C   UNL     1       3.119   7.550   2.508  0.00  0.00    +0.023 C 
ATOM      8  C   UNL     1       3.525   6.071   2.453  0.00  0.00    -0.067 C 
ATOM      9  C   UNL     1       4.946   5.909   2.999  0.00  0.00    -0.009 C 
ATOM     10  C   UNL     1       4.947   6.156   4.513  0.00  0.00    +0.054 C 
ENDROOT
BRANCH   5  11
ATOM     11  C   UNL     1       2.050  10.251   3.950  0.00  0.00    +0.267 C 
ATOM     12  O   UNL     1       1.693  10.163   2.791  0.00  0.00    -0.268 OA
ATOM     13  N   UNL     1       1.615  11.272   4.714  0.00  0.00    -0.295 N 
ATOM     14  C   UNL     1       2.094  11.412   6.091  0.00  0.00    +0.132 C 
BRANCH  13  15
ATOM     15  C   UNL     1       0.662  12.242   4.168  0.00  0.00    +0.142 C 
BRANCH  15  16
ATOM     16  C   UNL     1      -0.744  11.771   4.437  0.00  0.00    -0.030 A 
ATOM     17  C   UNL     1      -1.393  10.971   3.516  0.00  0.00    +0.005 A 
ATOM     18  C   UNL     1      -2.681  10.535   3.766  0.00  0.00    +0.000 A 
ATOM     19  C   UNL     1      -3.324  10.909   4.931  0.00  0.00    +0.000 A 
ATOM     20  C   UNL     1      -2.676  11.714   5.850  0.00  0.00    +0.000 A 
ATOM     21  C   UNL     1      -1.386  12.145   5.603  0.00  0.00    +0.005 A 
ENDBRANCH  15  16
ENDBRANCH  13  15
ENDBRANCH   5  11
BRANCH   8  22
ATOM     22  N   UNL     1       3.480   5.609   1.053  0.00  0.00    +0.381 N 
ATOM     23  H   UNL     1       4.368   5.840   0.592  0.00  0.00    -0.086 HD
ATOM     24  H   UNL     1       2.709   6.079   0.565  0.00  0.00    -0.086 HD
BRANCH  22  25
ATOM     25  C   UNL     1       3.270   4.150   1.001  0.00  0.00    -0.077 C 
BRANCH  25  26
ATOM     26  C   UNL     1       3.229   3.700  -0.461  0.00  0.00    +0.018 C 
BRANCH  26  27
ATOM     27  C   UNL     1       3.014   2.210  -0.522  0.00  0.00    -0.024 A 
ATOM     28  C   UNL     1       3.967   1.270  -0.632  0.00  0.00    +0.087 A 
ATOM     29  N   UNL     1       3.395   0.027  -0.658  0.00  0.00    -0.360 N 
ATOM     30  H   UNL     1       3.881  -0.808  -0.733  0.00  0.00    +0.165 HD
ATOM     31  C   UNL     1       2.026   0.140  -0.563  0.00  0.00    +0.047 A 
ATOM     32  C   UNL     1       1.727   1.512  -0.474  0.00  0.00    +0.003 A 
ATOM     33  C   UNL     1       0.400   1.930  -0.361  0.00  0.00    +0.010 A 
ATOM     34  C   UNL     1      -0.604   1.003  -0.346  0.00  0.00    +0.001 A 
ATOM     35  C   UNL     1      -0.315  -0.351  -0.434  0.00  0.00    +0.002 A 
ATOM     36  C   UNL     1       0.988  -0.786  -0.542  0.00  0.00    +0.026 A 
ENDBRANCH  26  27
ENDBRANCH  25  26
ENDBRANCH  22  25
ENDBRANCH   8  22
TORSDOF 7
