REMARK  Name = ZINC36270010
REMARK  7 active torsions:
REMARK  status: ('A' for Active; 'I' for Inactive)
REMARK    1  A    between atoms: C_1  and  C_2
REMARK    2  A    between atoms: C_2  and  C_3
REMARK    3  A    between atoms: C_2  and  C_4
REMARK    4  A    between atoms: C_2  and  O_5
REMARK    5  A    between atoms: O_5  and  C_6
REMARK    6  A    between atoms: N_8  and  N_9
REMARK    7  A    between atoms: C_18  and  O_19
REMARK                            x       y       z     vdW  Elec       q    Type
REMARK                         _______ _______ _______ _____ _____    ______ ____
ROOT
ATOM      1  N   UNL     1       2.072  -1.232  -3.309  0.00  0.00    -0.172 NA
ATOM      2  C   UNL     1       2.742  -1.622  -4.367  0.00  0.00    +0.152 C 
ATOM      3  C   UNL     1       2.266  -2.468  -5.486  0.00  0.00    +0.035 A 
ATOM      4  C   UNL     1       1.060  -3.088  -5.778  0.00  0.00    +0.032 A 
ATOM      5  C   UNL     1       0.934  -3.831  -6.938  0.00  0.00    +0.043 A 
ATOM      6  C   UNL     1       2.009  -3.957  -7.805  0.00  0.00    +0.042 A 
ATOM      7  C   UNL     1       3.214  -3.348  -7.528  0.00  0.00    +0.068 A 
ATOM      8  C   UNL     1       3.364  -2.590  -6.360  0.00  0.00    +0.095 A 
ATOM      9  N   UNL     1       4.419  -1.899  -5.854  0.00  0.00    -0.210 NA
ATOM     10  C   UNL     1       4.142  -1.311  -4.720  0.00  0.00    +0.241 C 
ATOM     11 CL   UNL     1       4.546  -3.519  -8.628  0.00  0.00    -0.081 Cl
ATOM     12 CL   UNL     1      -0.573  -4.609  -7.308  0.00  0.00    -0.083 Cl
ENDROOT
BRANCH   1  15
ATOM     13  C   UNL     1       1.952  -0.085  -1.337  0.00  0.00    +0.420 C 
ATOM     14  O   UNL     1       2.487   0.619  -0.504  0.00  0.00    -0.225 OA
ATOM     15  N   UNL     1       2.640  -0.485  -2.424  0.00  0.00    -0.171 N 
ATOM     16  H   UNL     1       3.564  -0.211  -2.541  0.00  0.00    +0.181 HD
BRANCH  13  17
ATOM     17  O   UNL     1       0.671  -0.465  -1.174  0.00  0.00    -0.444 OA
BRANCH  17  19
ATOM     18  C   UNL     1      -0.019   1.526   0.010  0.00  0.00    +0.055 C 
ATOM     19  C   UNL     1       0.002  -0.004   0.002  0.00  0.00    +0.107 C 
ATOM     20  C   UNL     1       0.742  -0.511   1.242  0.00  0.00    +0.055 C 
ATOM     21  C   UNL     1      -1.433  -0.534   0.013  0.00  0.00    +0.055 C 
ENDBRANCH  17  19
ENDBRANCH  13  17
ENDBRANCH   1  15
BRANCH  10  22
ATOM     22  O   UNL     1       4.994  -0.551  -3.991  0.00  0.00    -0.491 OA
ATOM     23  H   UNL     1       5.873  -0.460  -4.383  0.00  0.00    +0.294 HD
ENDBRANCH  10  22
TORSDOF 4
