REMARK  Name = ZINC09409618
REMARK  7 active torsions:
REMARK  status: ('A' for Active; 'I' for Inactive)
REMARK    1  A    between atoms: C_1  and  C_2
REMARK    2  A    between atoms: C_3  and  C_24
REMARK    3  A    between atoms: C_4  and  C_8
REMARK    4  A    between atoms: C_11  and  O_15
REMARK    5  A    between atoms: C_13  and  O_14
REMARK    6  A    between atoms: O_15  and  C_16
REMARK    7  A    between atoms: C_16  and  C_17
REMARK                            x       y       z     vdW  Elec       q    Type
REMARK                         _______ _______ _______ _____ _____    ______ ____
ROOT
ATOM      1  C   UNL     1      -0.241   1.490   0.004  0.00  0.00    +0.065 C 
ATOM      2  C   UNL     1      -0.093  -0.009  -0.001  0.00  0.00    +0.041 A 
ATOM      3  C   UNL     1       0.060  -0.797  -1.102  0.00  0.00    +0.030 A 
ATOM      4  C   UNL     1       0.161  -2.139  -0.655  0.00  0.00    +0.104 A 
ATOM      5  N   UNL     1       0.070  -2.134   0.657  0.00  0.00    -0.173 NA
ATOM      6  N   UNL     1      -0.084  -0.810   1.085  0.00  0.00    -0.281 N 
ATOM      7  H   UNL     1      -0.171  -0.519   2.006  0.00  0.00    +0.189 HD
ENDROOT
BRANCH   3   8
ATOM      8  C   UNL     1       0.112  -0.335  -2.511  0.00  0.00    -0.010 A 
ATOM      9  C   UNL     1      -0.911  -0.673  -3.394  0.00  0.00    +0.012 A 
ATOM     10  C   UNL     1      -0.861  -0.243  -4.705  0.00  0.00    +0.050 A 
ATOM     11  C   UNL     1       0.206   0.526  -5.147  0.00  0.00    +0.162 A 
ATOM     12  C   UNL     1       1.228   0.869  -4.269  0.00  0.00    +0.163 A 
ATOM     13  C   UNL     1       1.180   0.443  -2.952  0.00  0.00    +0.058 A 
ATOM     14  O   UNL     1       2.278   1.629  -4.685  0.00  0.00    -0.485 OA
ATOM     15  C   UNL     1       2.480   1.730  -6.099  0.00  0.00    +0.270 C 
ATOM     16  C   UNL     1       1.124   2.016  -6.758  0.00  0.00    +0.270 C 
ATOM     17  O   UNL     1       0.237   0.936  -6.445  0.00  0.00    -0.485 OA
ENDBRANCH   3   8
BRANCH   4  18
ATOM     18  C   UNL     1       0.337  -3.334  -1.514  0.00  0.00    +0.044 A 
ATOM     19  C   UNL     1       1.301  -3.335  -2.521  0.00  0.00    +0.017 A 
ATOM     20  C   UNL     1       1.463  -4.449  -3.319  0.00  0.00    +0.046 A 
ATOM     21  C   UNL     1       0.668  -5.570  -3.122  0.00  0.00    +0.124 A 
ATOM     22  C   UNL     1      -0.293  -5.577  -2.122  0.00  0.00    +0.091 A 
ATOM     23  C   UNL     1      -0.459  -4.466  -1.313  0.00  0.00    +0.130 A 
BRANCH  23  24
ATOM     24  O   UNL     1      -1.397  -4.473  -0.330  0.00  0.00    -0.506 OA
ATOM     25  H   UNL     1      -2.265  -4.156  -0.612  0.00  0.00    +0.292 HD
ENDBRANCH  23  24
BRANCH  21  26
ATOM     26  O   UNL     1       0.832  -6.664  -3.911  0.00  0.00    -0.487 OA
BRANCH  26  27
ATOM     27  C   UNL     1       1.839  -6.589  -4.922  0.00  0.00    +0.264 C 
BRANCH  27  28
ATOM     28  C   UNL     1       1.876  -7.885  -5.691  0.00  0.00    -0.010 A 
ATOM     29  C   UNL     1       2.694  -8.916  -5.270  0.00  0.00    +0.008 A 
ATOM     30  C   UNL     1       2.728 -10.104  -5.975  0.00  0.00    +0.015 A 
ATOM     31  C   UNL     1       1.942 -10.261  -7.103  0.00  0.00    +0.018 A 
ATOM     32  C   UNL     1       1.123  -9.229  -7.524  0.00  0.00    +0.015 A 
ATOM     33  C   UNL     1       1.087  -8.043  -6.816  0.00  0.00    +0.008 A 
ATOM     34 BR   UNL     1       1.988 -11.886  -8.069  0.00  0.00    -0.050 Br
ENDBRANCH  27  28
ENDBRANCH  26  27
ENDBRANCH  21  26
ENDBRANCH   4  18
TORSDOF 6
