REMARK  Name = ZINC29365921
REMARK  9 active torsions:
REMARK  status: ('A' for Active; 'I' for Inactive)
REMARK    1  A    between atoms: C_1  and  C_2
REMARK    2  A    between atoms: C_2  and  C_3
REMARK    3  A    between atoms: C_3  and  C_4
REMARK    4  A    between atoms: C_3  and  C_5
REMARK    5  A    between atoms: C_3  and  N_6
REMARK    6  A    between atoms: C_7  and  C_9
REMARK    7  A    between atoms: C_9  and  N_10
REMARK    8  A    between atoms: C_13  and  C_17
REMARK    9  A    between atoms: C_17  and  C_18
REMARK                            x       y       z     vdW  Elec       q    Type
REMARK                         _______ _______ _______ _____ _____    ______ ____
ROOT
ATOM      1  N   UNL     1      -3.925  -4.702   0.014  0.00  0.00    -0.216 N 
ATOM      2  C   UNL     1      -4.627  -4.965   1.135  0.00  0.00    +0.244 C 
ATOM      3  O   UNL     1      -4.254  -4.832   2.280  0.00  0.00    -0.273 OA
ATOM      4  C   UNL     1      -5.979  -5.461   0.664  0.00  0.00    +0.165 C 
ATOM      5  N   UNL     1      -5.873  -5.416  -0.805  0.00  0.00    -0.287 N 
ATOM      6  C   UNL     1      -4.641  -4.956  -1.087  0.00  0.00    +0.310 C 
ATOM      7  O   UNL     1      -4.224  -4.792  -2.217  0.00  0.00    -0.252 OA
ATOM      8  H   UNL     1      -6.559  -5.667  -1.443  0.00  0.00    +0.151 HD
ENDROOT
BRANCH   1   9
ATOM      9  C   UNL     1      -2.551  -4.195   0.004  0.00  0.00    +0.213 C 
BRANCH   9  11
ATOM     10  N   UNL     1      -1.413  -1.998   0.005  0.00  0.00    -0.309 N 
ATOM     11  C   UNL     1      -2.571  -2.688   0.012  0.00  0.00    +0.231 C 
ATOM     12  O   UNL     1      -3.630  -2.096   0.025  0.00  0.00    -0.274 OA
ATOM     13  H   UNL     1      -0.567  -2.472  -0.006  0.00  0.00    +0.149 HD
BRANCH  10  14
ATOM     14  C   UNL     1      -1.433  -0.534   0.013  0.00  0.00    +0.029 C 
ATOM     15  C   UNL     1      -2.149  -0.040   1.272  0.00  0.00    +0.031 C 
ATOM     16  C   UNL     1      -2.173  -0.027  -1.227  0.00  0.00    +0.031 C 
BRANCH  14  18
ATOM     17  C   UNL     1      -0.019   1.526   0.010  0.00  0.00    +0.006 C 
ATOM     18  C   UNL     1       0.002  -0.004   0.002  0.00  0.00    +0.022 C 
ENDBRANCH  14  18
ENDBRANCH  10  14
ENDBRANCH   9  11
ENDBRANCH   1   9
BRANCH   4  19
ATOM     19  C   UNL     1      -6.223  -6.894   1.142  0.00  0.00    +0.069 C 
BRANCH  19  20
ATOM     20  C   UNL     1      -7.620  -7.318   0.767  0.00  0.00    -0.020 A 
ATOM     21  C   UNL     1      -8.712  -7.246   1.544  0.00  0.00    +0.087 A 
ATOM     22  N   UNL     1      -9.800  -7.722   0.865  0.00  0.00    -0.360 N 
ATOM     23  H   UNL     1     -10.702  -7.770   1.220  0.00  0.00    +0.165 HD
ATOM     24  C   UNL     1      -9.426  -8.122  -0.398  0.00  0.00    +0.047 A 
ATOM     25  C   UNL     1      -8.045  -7.881  -0.517  0.00  0.00    +0.003 A 
ATOM     26  C   UNL     1      -7.384  -8.189  -1.707  0.00  0.00    +0.010 A 
ATOM     27  C   UNL     1      -8.084  -8.720  -2.754  0.00  0.00    +0.001 A 
ATOM     28  C   UNL     1      -9.447  -8.956  -2.643  0.00  0.00    +0.002 A 
ATOM     29  C   UNL     1     -10.117  -8.669  -1.474  0.00  0.00    +0.026 A 
ENDBRANCH  19  20
ENDBRANCH   4  19
TORSDOF 6
