REMARK  Name = ZINC51149048
REMARK  6 active torsions:
REMARK  status: ('A' for Active; 'I' for Inactive)
REMARK    1  A    between atoms: C_4  and  O_8
REMARK    2  A    between atoms: O_8  and  C_9
REMARK    3  A    between atoms: C_9  and  C_10
REMARK    4  A    between atoms: C_13  and  N_19
REMARK    5  A    between atoms: C_14  and  N_16
REMARK    6  A    between atoms: N_19  and  N_20
REMARK                            x       y       z     vdW  Elec       q    Type
REMARK                         _______ _______ _______ _____ _____    ______ ____
ROOT
ATOM      1  C   UNL     1       5.475  -1.802   1.262  0.00  0.00    -0.008 A 
ATOM      2  C   UNL     1       5.527  -3.134   0.895  0.00  0.00    +0.009 A 
ATOM      3  C   UNL     1       6.713  -3.684   0.450  0.00  0.00    +0.027 A 
ATOM      4  C   UNL     1       7.855  -2.896   0.370  0.00  0.00    +0.071 A 
ATOM      5  C   UNL     1       7.799  -1.558   0.739  0.00  0.00    +0.148 A 
ATOM      6  C   UNL     1       6.608  -1.014   1.179  0.00  0.00    +0.041 A 
ENDROOT
BRANCH   5   7
ATOM      7  N   UNL     1       9.013  -0.716   0.656  0.00  0.00    +0.058 N 
ATOM      8  O   UNL     1      10.093  -1.182   0.935  0.00  0.00    -0.126 OA
ATOM      9  O   UNL     1       8.925   0.439   0.309  0.00  0.00    -0.126 OA
ENDBRANCH   5   7
BRANCH   4  10
ATOM     10  N   UNL     1       9.056  -3.449  -0.080  0.00  0.00    -0.281 N 
ATOM     11  H   UNL     1       9.832  -2.882  -0.211  0.00  0.00    +0.166 HD
BRANCH  10  12
ATOM     12  N   UNL     1       9.139  -4.788  -0.335  0.00  0.00    -0.256 NA
ATOM     13  H   UNL     1      10.063  -5.040  -0.651  0.00  0.00    +0.140 HD
ATOM     14  H   UNL     1       8.874  -5.328   0.476  0.00  0.00    +0.140 HD
ENDBRANCH  10  12
ENDBRANCH   4  10
BRANCH   1  15
ATOM     15  C   UNL     1       4.179  -1.206   1.747  0.00  0.00    +0.264 C 
BRANCH  15  16
ATOM     16  O   UNL     1       3.447  -0.687   0.634  0.00  0.00    -0.485 OA
BRANCH  16  20
ATOM     17  C   UNL     1      -0.202   1.064   1.442  0.00  0.00    +0.002 A 
ATOM     18  C   UNL     1       0.948   1.831   1.446  0.00  0.00    +0.019 A 
ATOM     19  C   UNL     1       2.172   1.248   1.176  0.00  0.00    +0.061 A 
ATOM     20  C   UNL     1       2.245  -0.111   0.901  0.00  0.00    +0.149 A 
ATOM     21  C   UNL     1       1.089  -0.879   0.898  0.00  0.00    +0.061 A 
ATOM     22  C   UNL     1      -0.131  -0.289   1.168  0.00  0.00    +0.019 A 
ATOM     23 BR   UNL     1       1.184  -2.730   0.523  0.00  0.00    -0.046 Br
ATOM     24 BR   UNL     1       3.744   2.299   1.181  0.00  0.00    -0.046 Br
ENDBRANCH  16  20
ENDBRANCH  15  16
ENDBRANCH   1  15
TORSDOF 6
