REMARK  Name = ZINC01657196
REMARK  6 active torsions:
REMARK  status: ('A' for Active; 'I' for Inactive)
REMARK    1  A    between atoms: C_3  and  C_9
REMARK    2  A    between atoms: C_4  and  O_8
REMARK    3  A    between atoms: C_6  and  O_7
REMARK    4  A    between atoms: N_10  and  N_11
REMARK    5  A    between atoms: N_11  and  S_12
REMARK    6  A    between atoms: S_12  and  C_15
REMARK                            x       y       z     vdW  Elec       q    Type
REMARK                         _______ _______ _______ _____ _____    ______ ____
ROOT
ATOM      1  N   UNL     1       0.609  -3.175   1.371  0.00  0.00    -0.137 N 
ATOM      2  H   UNL     1       1.098  -3.851   1.866  0.00  0.00    +0.197 HD
ENDROOT
BRANCH   1   3
ATOM      3  S   UNL     1       1.199  -2.613  -0.070  0.00  0.00    +0.088 S 
ATOM      4  O   UNL     1       0.144  -2.732  -1.015  0.00  0.00    -0.149 OA
ATOM      5  O   UNL     1       2.465  -3.231  -0.260  0.00  0.00    -0.149 OA
BRANCH   3   6
ATOM      6  C   UNL     1       1.506  -0.889   0.128  0.00  0.00    +0.130 A 
ATOM      7  C   UNL     1       2.804  -0.426   0.233  0.00  0.00    +0.051 A 
ATOM      8  C   UNL     1       3.045   0.927   0.388  0.00  0.00    +0.061 A 
ATOM      9  C   UNL     1       1.986   1.818   0.438  0.00  0.00    +0.061 A 
ATOM     10  C   UNL     1       0.687   1.354   0.333  0.00  0.00    +0.043 A 
ATOM     11  C   UNL     1       0.447  -0.000   0.178  0.00  0.00    +0.069 A 
ATOM     12 CL   UNL     1      -1.183  -0.583   0.046  0.00  0.00    -0.081 Cl
ATOM     13 CL   UNL     1       2.288   3.516   0.632  0.00  0.00    -0.082 Cl
ATOM     14 CL   UNL     1       4.675   1.509   0.519  0.00  0.00    -0.082 Cl
ENDBRANCH   3   6
ENDBRANCH   1   3
BRANCH   1  16
ATOM     15  C   UNL     1      -0.980  -2.990   3.076  0.00  0.00    +0.143 C 
ATOM     16  N   UNL     1      -0.598  -2.673   1.877  0.00  0.00    -0.174 NA
BRANCH  15  19
ATOM     17  C   UNL     1      -3.962  -2.503   5.300  0.00  0.00    +0.046 A 
ATOM     18  C   UNL     1      -2.701  -2.854   4.867  0.00  0.00    +0.016 A 
ATOM     19  C   UNL     1      -2.327  -2.616   3.543  0.00  0.00    +0.036 A 
ATOM     20  C   UNL     1      -3.236  -2.015   2.661  0.00  0.00    +0.129 A 
ATOM     21  C   UNL     1      -4.500  -1.672   3.105  0.00  0.00    +0.091 A 
ATOM     22  C   UNL     1      -4.863  -1.913   4.423  0.00  0.00    +0.120 A 
BRANCH  22  23
ATOM     23  O   UNL     1      -6.104  -1.569   4.857  0.00  0.00    -0.507 OA
ATOM     24  H   UNL     1      -6.162  -0.671   5.211  0.00  0.00    +0.292 HD
ENDBRANCH  22  23
BRANCH  20  25
ATOM     25  O   UNL     1      -2.878  -1.775   1.373  0.00  0.00    -0.506 OA
ATOM     26  H   UNL     1      -3.145  -2.468   0.754  0.00  0.00    +0.292 HD
ENDBRANCH  20  25
ENDBRANCH  15  19
ENDBRANCH   1  16
TORSDOF 6
