REMARK  Name = ZINC02450888
REMARK  5 active torsions:
REMARK  status: ('A' for Active; 'I' for Inactive)
REMARK    1  A    between atoms: C_1  and  C_2
REMARK    2  A    between atoms: N_5  and  C_7
REMARK    3  A    between atoms: C_12  and  C_14
REMARK    4  A    between atoms: C_12  and  C_15
REMARK    5  A    between atoms: C_21  and  C_23
REMARK                            x       y       z     vdW  Elec       q    Type
REMARK                         _______ _______ _______ _____ _____    ______ ____
ROOT
ATOM      1  C   UNL     1       0.492   1.756  -0.289  0.00  0.00    +0.068 C 
ATOM      2  C   UNL     1       0.554   0.256  -0.152  0.00  0.00    +0.066 A 
ATOM      3  C   UNL     1       0.230  -0.676  -1.161  0.00  0.00    +0.032 A 
ATOM      4  C   UNL     1       0.414  -1.914  -0.652  0.00  0.00    +0.128 A 
ATOM      5  N   UNL     1       0.839  -1.759   0.640  0.00  0.00    -0.247 N 
ATOM      6  N   UNL     1       0.922  -0.394   0.914  0.00  0.00    -0.174 NA
ATOM      7  N   UNL     1       0.252  -3.164  -1.200  0.00  0.00    -0.270 N 
ATOM      8  C   UNL     1      -0.168  -3.617  -2.343  0.00  0.00    +0.228 C 
ATOM      9  O   UNL     1      -0.263  -4.824  -2.409  0.00  0.00    -0.275 OA
ATOM     10  C   UNL     1      -0.550  -2.896  -3.575  0.00  0.00    +0.166 C 
ATOM     11  S   UNL     1      -1.431  -1.363  -3.247  0.00  0.00    -0.138 S 
ATOM     12  C   UNL     1      -0.229  -0.247  -2.519  0.00  0.00    +0.112 C 
ATOM     13  H   UNL     1       0.513  -3.873  -0.592  0.00  0.00    +0.156 HD
ENDROOT
BRANCH   5  14
ATOM     14  C   UNL     1       1.159  -2.842   1.574  0.00  0.00    +0.114 C 
ATOM     15  C   UNL     1       0.250  -2.744   2.803  0.00  0.00    +0.055 C 
ATOM     16  C   UNL     1       0.644  -3.831   3.806  0.00  0.00    +0.162 C 
ATOM     17  O   UNL     1       2.021  -3.677   4.157  0.00  0.00    -0.374 OA
ATOM     18  C   UNL     1       2.921  -3.806   3.055  0.00  0.00    +0.066 C 
ATOM     19  C   UNL     1       2.620  -2.720   2.019  0.00  0.00    +0.061 C 
ATOM     20  C   UNL     1       4.360  -3.652   3.551  0.00  0.00    +0.041 C 
ATOM     21  C   UNL     1       2.748  -5.184   2.412  0.00  0.00    +0.041 C 
ENDBRANCH   5  14
BRANCH  12  22
ATOM     22  C   UNL     1      -0.846   1.124  -2.411  0.00  0.00    -0.030 A 
ATOM     23  C   UNL     1      -2.048   1.291  -1.750  0.00  0.00    +0.005 A 
ATOM     24  C   UNL     1      -2.614   2.548  -1.650  0.00  0.00    +0.000 A 
ATOM     25  C   UNL     1      -1.977   3.639  -2.212  0.00  0.00    +0.000 A 
ATOM     26  C   UNL     1      -0.774   3.473  -2.872  0.00  0.00    +0.000 A 
ATOM     27  C   UNL     1      -0.206   2.216  -2.967  0.00  0.00    +0.005 A 
ENDBRANCH  12  22
TORSDOF 2
