REMARK  Name = ZINC06149441
REMARK  13 active torsions:
REMARK  status: ('A' for Active; 'I' for Inactive)
REMARK    1  A    between atoms: C_1  and  C_2
REMARK    2  A    between atoms: C_2  and  C_3
REMARK    3  A    between atoms: C_3  and  C_4
REMARK    4  A    between atoms: C_3  and  C_5
REMARK    5  A    between atoms: C_3  and  N_6
REMARK    6  A    between atoms: C_7  and  C_11
REMARK    7  A    between atoms: C_11  and  C_13
REMARK    8  A    between atoms: C_11  and  N_69
REMARK    9  A    between atoms: C_17  and  C_25
REMARK   10  A    between atoms: C_26  and  C_27
REMARK   11  A    between atoms: C_26  and  N_69
REMARK   12  A    between atoms: C_34  and  C_35
REMARK   13  A    between atoms: C_34  and  N_69
REMARK                            x       y       z     vdW  Elec       q    Type
REMARK                         _______ _______ _______ _____ _____    ______ ____
ROOT
ATOM      1  C   UNL     1       3.858  -0.695  -0.582  0.00  0.00    +0.040 C 
ENDROOT
BRANCH   1   2
ATOM      2  C   UNL     1       4.011  -1.354  -1.928  0.00  0.00    +0.011 A 
ATOM      3  C   UNL     1       4.615  -0.688  -2.942  0.00  0.00    +0.017 A 
ATOM      4  C   UNL     1       4.752  -1.358  -4.236  0.00  0.00    -0.001 A 
ATOM      5  C   UNL     1       5.371  -0.722  -5.319  0.00  0.00    +0.013 A 
ATOM      6  C   UNL     1       5.477  -1.373  -6.515  0.00  0.00    -0.050 A 
ATOM      7  C   UNL     1       4.977  -2.659  -6.667  0.00  0.00    +0.005 A 
ATOM      8  C   UNL     1       4.365  -3.305  -5.614  0.00  0.00    +0.026 A 
ATOM      9  C   UNL     1       4.245  -2.662  -4.386  0.00  0.00    +0.049 A 
ATOM     10  N   UNL     1       3.635  -3.283  -3.317  0.00  0.00    -0.322 N 
ATOM     11  H   UNL     1       3.275  -4.210  -3.425  0.00  0.00    +0.169 HD
ATOM     12  C   UNL     1       3.519  -2.662  -2.131  0.00  0.00    +0.251 A 
ATOM     13  O   UNL     1       2.974  -3.241  -1.207  0.00  0.00    -0.268 OA
ATOM     14  C   UNL     1       6.143  -0.688  -7.680  0.00  0.00    +0.044 C 
ENDBRANCH   1   2
BRANCH   1  16
ATOM     15  N   UNL     1       1.720   0.680  -0.374  0.00  0.00    -0.225 N 
ATOM     16  C   UNL     1       2.395  -0.481  -0.290  0.00  0.00    +0.143 A 
ATOM     17  N   UNL     1       1.532  -1.391   0.094  0.00  0.00    -0.115 NA
ATOM     18  N   UNL     1       0.387  -0.818   0.238  0.00  0.00    -0.023 NA
ATOM     19  N   UNL     1       0.497   0.434  -0.044  0.00  0.00    -0.043 NA
BRANCH  15  20
ATOM     20  C   UNL     1       2.270   1.980  -0.767  0.00  0.00    +0.061 C 
ATOM     21  C   UNL     1       3.374   2.384   0.211  0.00  0.00    +0.036 C 
ATOM     22  C   UNL     1       2.851   1.881  -2.179  0.00  0.00    +0.036 C 
BRANCH  20  24
ATOM     23  C   UNL     1       1.733   4.389  -1.156  0.00  0.00    +0.006 C 
ATOM     24  C   UNL     1       1.159   3.031  -0.745  0.00  0.00    +0.026 C 
ENDBRANCH  20  24
ENDBRANCH  15  20
ENDBRANCH   1  16
BRANCH   1  25
ATOM     25  N   UNL     1       4.427  -1.580   0.456  0.00  0.00    +0.397 N 
ATOM     26  H   UNL     1       3.866  -2.438   0.507  0.00  0.00    -0.079 HD
BRANCH  25  27
ATOM     27  C   UNL     1       4.392  -0.905   1.771  0.00  0.00    -0.039 C 
BRANCH  27  28
ATOM     28  C   UNL     1       3.019  -1.081   2.366  0.00  0.00    -0.046 A 
ATOM     29  C   UNL     1       2.254   0.027   2.679  0.00  0.00    +0.003 A 
ATOM     30  C   UNL     1       0.993  -0.135   3.221  0.00  0.00    +0.000 A 
ATOM     31  C   UNL     1       0.499  -1.404   3.459  0.00  0.00    +0.001 A 
ATOM     32  C   UNL     1       1.265  -2.512   3.151  0.00  0.00    +0.020 A 
ATOM     33  C   UNL     1       2.526  -2.352   2.604  0.00  0.00    +0.042 A 
ATOM     34 CL   UNL     1       3.489  -3.743   2.218  0.00  0.00    -0.083 Cl
ENDBRANCH  27  28
ENDBRANCH  25  27
BRANCH  25  35
ATOM     35  C   UNL     1       5.819  -1.936   0.108  0.00  0.00    -0.001 C 
BRANCH  35  36
ATOM     36  C   UNL     1       6.252  -3.094   0.970  0.00  0.00    +0.089 A 
ATOM     37  C   UNL     1       6.111  -4.397   0.667  0.00  0.00    +0.042 A 
ATOM     38  C   UNL     1       6.650  -5.130   1.749  0.00  0.00    +0.041 A 
ATOM     39  C   UNL     1       7.089  -4.231   2.649  0.00  0.00    +0.195 A 
ATOM     40  O   UNL     1       6.851  -2.999   2.169  0.00  0.00    -0.470 OA
ENDBRANCH  35  36
ENDBRANCH  25  35
ENDBRANCH   1  25
TORSDOF 9
