REMARK  Name = ZINC62211041
REMARK  6 active torsions:
REMARK  status: ('A' for Active; 'I' for Inactive)
REMARK    1  A    between atoms: C_1  and  C_2
REMARK    2  A    between atoms: C_2  and  O_3
REMARK    3  A    between atoms: O_3  and  C_4
REMARK    4  A    between atoms: C_7  and  C_10
REMARK    5  A    between atoms: C_12  and  N_24
REMARK    6  A    between atoms: N_17  and  C_18
REMARK                            x       y       z     vdW  Elec       q    Type
REMARK                         _______ _______ _______ _____ _____    ______ ____
ROOT
ATOM      1  C   UNL     1       1.109  -6.040  -1.847  0.00  0.00    +0.093 C 
ATOM      2  C   UNL     1       2.523  -6.517  -1.449  0.00  0.00    -0.041 C 
ATOM      3  C   UNL     1       3.258  -6.495  -2.809  0.00  0.00    +0.082 C 
ATOM      4  C   UNL     1       2.153  -6.648  -3.830  0.00  0.00    +0.215 C 
ATOM      5  O   UNL     1       2.318  -6.957  -4.992  0.00  0.00    -0.276 OA
ATOM      6  N   UNL     1       0.959  -6.394  -3.264  0.00  0.00    -0.293 N 
ENDROOT
BRANCH   1  10
ATOM      7  C   UNL     1       0.777  -1.810  -1.336  0.00  0.00    +0.121 A 
ATOM      8  C   UNL     1       0.243  -2.669  -0.386  0.00  0.00    +0.046 A 
ATOM      9  C   UNL     1       0.351  -4.036  -0.554  0.00  0.00    +0.009 A 
ATOM     10  C   UNL     1       0.992  -4.548  -1.667  0.00  0.00    -0.028 A 
ATOM     11  C   UNL     1       1.525  -3.694  -2.615  0.00  0.00    +0.009 A 
ATOM     12  C   UNL     1       1.414  -2.327  -2.455  0.00  0.00    +0.046 A 
BRANCH   7  13
ATOM     13  O   UNL     1       0.671  -0.465  -1.174  0.00  0.00    -0.492 OA
BRANCH  13  15
ATOM     14  C   UNL     1      -0.019   1.526   0.010  0.00  0.00    +0.048 C 
ATOM     15  C   UNL     1       0.002  -0.004   0.002  0.00  0.00    +0.225 C 
ENDBRANCH  13  15
ENDBRANCH   7  13
ENDBRANCH   1  10
BRANCH   6  16
ATOM     16  C   UNL     1      -0.324  -6.461  -3.967  0.00  0.00    +0.077 C 
ATOM     17  C   UNL     1      -0.537  -7.877  -4.506  0.00  0.00    +0.022 C 
ATOM     18  C   UNL     1      -1.877  -7.947  -5.241  0.00  0.00    +0.002 C 
ATOM     19  C   UNL     1      -1.873  -6.954  -6.405  0.00  0.00    +0.000 C 
ATOM     20  C   UNL     1      -1.660  -5.538  -5.866  0.00  0.00    +0.002 C 
ATOM     21  C   UNL     1      -0.320  -5.468  -5.131  0.00  0.00    +0.022 C 
ENDBRANCH   6  16
BRANCH   2  22
ATOM     22  N   UNL     1       3.145  -5.584  -0.499  0.00  0.00    +0.382 N 
ATOM     23  H   UNL     1       2.577  -5.523   0.333  0.00  0.00    -0.090 HD
ATOM     24  H   UNL     1       4.066  -5.916  -0.255  0.00  0.00    -0.090 HD
ATOM     25  H   UNL     1       3.218  -4.671  -0.924  0.00  0.00    -0.090 HD
ENDBRANCH   2  22
TORSDOF 5
