REMARK  Name = ZINC64990935
REMARK  8 active torsions:
REMARK  status: ('A' for Active; 'I' for Inactive)
REMARK    1  A    between atoms: C_1  and  C_2
REMARK    2  A    between atoms: C_6  and  C_8
REMARK    3  A    between atoms: C_16  and  C_19
REMARK    4  A    between atoms: C_19  and  N_20
REMARK    5  A    between atoms: N_23  and  C_24
REMARK    6  A    between atoms: C_24  and  C_25
REMARK    7  A    between atoms: C_25  and  C_26
REMARK    8  A    between atoms: C_25  and  C_27
REMARK                            x       y       z     vdW  Elec       q    Type
REMARK                         _______ _______ _______ _____ _____    ______ ____
ROOT
ATOM      1  C   UNL     1       0.052  -2.845   2.457  0.00  0.00    +0.251 C 
ATOM      2  O   UNL     1       0.149  -2.250   3.513  0.00  0.00    -0.270 OA
ATOM      3  N   UNL     1      -0.032  -4.191   2.447  0.00  0.00    -0.267 N 
ATOM      4  C   UNL     1      -0.031  -5.023   1.242  0.00  0.00    +0.118 C 
ATOM      5  C   UNL     1      -0.144  -6.470   1.750  0.00  0.00    +0.056 C 
ATOM      6  C   UNL     1      -0.202  -6.340   3.256  0.00  0.00    -0.024 A 
ATOM      7  C   UNL     1      -0.126  -4.996   3.586  0.00  0.00    +0.040 A 
ATOM      8  C   UNL     1      -0.155  -4.625   4.932  0.00  0.00    +0.029 A 
ATOM      9  C   UNL     1      -0.254  -5.587   5.915  0.00  0.00    -0.029 A 
ATOM     10  C   UNL     1      -0.324  -6.925   5.576  0.00  0.00    +0.005 A 
ATOM     11  C   UNL     1      -0.306  -7.299   4.244  0.00  0.00    +0.006 A 
ENDROOT
BRANCH   1  17
ATOM     12  C   UNL     1      -0.169   1.499   0.013  0.00  0.00    +0.044 C 
ATOM     13  C   UNL     1      -0.080  -0.005   0.004  0.00  0.00    -0.050 A 
ATOM     14  C   UNL     1      -0.023  -0.686  -1.200  0.00  0.00    +0.003 A 
ATOM     15  C   UNL     1       0.059  -2.067  -1.217  0.00  0.00    +0.001 A 
ATOM     16  C   UNL     1       0.084  -2.775  -0.033  0.00  0.00    +0.013 A 
ATOM     17  C   UNL     1       0.026  -2.094   1.185  0.00  0.00    +0.037 A 
ATOM     18  C   UNL     1      -0.050  -0.700   1.195  0.00  0.00    +0.016 A 
ENDBRANCH   1  17
BRANCH   9  19
ATOM     19  C   UNL     1      -0.284  -5.177   7.365  0.00  0.00    +0.141 C 
BRANCH  19  20
ATOM     20  N   UNL     1      -1.671  -4.958   7.782  0.00  0.00    -0.295 N 
ATOM     21  C   UNL     1      -1.943  -4.583   9.047  0.00  0.00    +0.300 C 
ATOM     22  O   UNL     1      -1.037  -4.426   9.843  0.00  0.00    -0.253 OA
ATOM     23  N   UNL     1      -3.220  -4.381   9.431  0.00  0.00    -0.299 N 
ATOM     24  H   UNL     1      -2.394  -5.083   7.147  0.00  0.00    +0.151 HD
ATOM     25  H   UNL     1      -3.942  -4.506   8.796  0.00  0.00    +0.150 HD
BRANCH  23  26
ATOM     26  C   UNL     1      -3.515  -3.973  10.806  0.00  0.00    +0.108 C 
BRANCH  26  27
ATOM     27  C   UNL     1      -5.027  -3.814  10.977  0.00  0.00    -0.000 C 
ATOM     28  C   UNL     1      -5.706  -5.174  10.803  0.00  0.00    +0.009 C 
ATOM     29  C   UNL     1      -5.328  -3.268  12.374  0.00  0.00    +0.009 C 
ENDBRANCH  26  27
ENDBRANCH  23  26
ENDBRANCH  19  20
ENDBRANCH   9  19
TORSDOF 5
