REMARK  Name = ZINC13759886
REMARK  5 active torsions:
REMARK  status: ('A' for Active; 'I' for Inactive)
REMARK    1  A    between atoms: C_1  and  O_2
REMARK    2  A    between atoms: O_2  and  C_3
REMARK    3  A    between atoms: C_9  and  C_13
REMARK    4  A    between atoms: C_13  and  C_14
REMARK    5  A    between atoms: C_14  and  N_15
REMARK                            x       y       z     vdW  Elec       q    Type
REMARK                         _______ _______ _______ _____ _____    ______ ____
ROOT
ATOM      1  C   UNL     1       6.032   2.938  -1.407  0.00  0.00    +0.119 C 
ENDROOT
BRANCH   1   2
ATOM      2  N   UNL     1       7.208   2.087  -1.206  0.00  0.00    -0.367 N 
ATOM      3  C   UNL     1       7.201   0.855  -1.631  0.00  0.00    +0.144 C 
ATOM      4  N   UNL     1       8.307   0.054  -1.442  0.00  0.00    -0.280 N 
ATOM      5  C   UNL     1       8.162  -1.330  -1.375  0.00  0.00    +0.124 A 
ATOM      6  C   UNL     1       6.891  -1.886  -1.286  0.00  0.00    +0.045 A 
ATOM      7  C   UNL     1       6.761  -3.261  -1.221  0.00  0.00    +0.020 A 
ATOM      8  C   UNL     1       7.913  -4.038  -1.246  0.00  0.00    +0.036 A 
ATOM      9  C   UNL     1       9.144  -3.418  -1.336  0.00  0.00    +0.128 A 
ATOM     10  N   UNL     1       9.236  -2.103  -1.402  0.00  0.00    -0.239 NA
ATOM     11 BR   UNL     1       7.797  -5.923  -1.159  0.00  0.00    -0.049 Br
ATOM     12  S   UNL     1       5.777   0.211  -2.446  0.00  0.00    -0.016 SA
ATOM     13  H   UNL     1       9.304   0.509  -1.344  0.00  0.00    +0.155 HD
ATOM     14  H   UNL     1       8.097   2.489  -0.697  0.00  0.00    +0.161 HD
ENDBRANCH   1   2
BRANCH   1  15
ATOM     15  C   UNL     1       5.428   3.302  -0.049  0.00  0.00    +0.058 C 
BRANCH  15  22
ATOM     16  C   UNL     1       0.903   2.380  -0.924  0.00  0.00    +0.121 A 
ATOM     17  C   UNL     1       0.134   3.535  -1.041  0.00  0.00    +0.047 A 
ATOM     18  C   UNL     1       0.710   4.778  -0.902  0.00  0.00    +0.030 A 
ATOM     19  C   UNL     1       2.072   4.888  -0.643  0.00  0.00    +0.047 A 
ATOM     20  C   UNL     1       2.851   3.724  -0.524  0.00  0.00    +0.006 A 
ATOM     21  C   UNL     1       2.257   2.468  -0.667  0.00  0.00    +0.056 A 
ATOM     22  C   UNL     1       4.218   4.177  -0.256  0.00  0.00    -0.021 A 
ATOM     23  C   UNL     1       4.189   5.519  -0.229  0.00  0.00    +0.087 A 
ATOM     24  N   UNL     1       2.916   5.963  -0.458  0.00  0.00    -0.360 N 
ATOM     25  H   UNL     1       2.521   6.988  -0.507  0.00  0.00    +0.165 HD
BRANCH  16  27
ATOM     26  C   UNL     1      -1.085   1.140  -1.330  0.00  0.00    +0.277 C 
ATOM     27  O   UNL     1       0.319   1.160  -1.064  0.00  0.00    -0.495 OA
ENDBRANCH  16  27
ENDBRANCH  15  22
ENDBRANCH   1  15
TORSDOF 4
