REMARK  Name = ZINC12199430
REMARK  4 active torsions:
REMARK  status: ('A' for Active; 'I' for Inactive)
REMARK    1  A    between atoms: C_1  and  C_2
REMARK    2  A    between atoms: N_11  and  N_12
REMARK    3  A    between atoms: C_13  and  C_14
REMARK    4  A    between atoms: C_17  and  O_20
REMARK                            x       y       z     vdW  Elec       q    Type
REMARK                         _______ _______ _______ _____ _____    ______ ____
ROOT
ATOM      1  C   UNL     1      -0.759   1.596  -1.227  0.00  0.00    +0.008 C 
ATOM      2  C   UNL     1      -0.013   1.086   0.008  0.00  0.00    -0.009 C 
ATOM      3  C   UNL     1       1.423   1.619  -0.003  0.00  0.00    +0.010 C 
ATOM      4  C   UNL     1       2.250   0.924   1.080  0.00  0.00    +0.056 C 
ATOM      5  C   UNL     1       1.518   1.048   2.411  0.00  0.00    +0.054 A 
ATOM      6  C   UNL     1       0.194   1.346   2.439  0.00  0.00    +0.015 A 
ATOM      7  S   UNL     1      -0.163   1.375   4.175  0.00  0.00    -0.056 S 
ATOM      8  C   UNL     1       1.440   0.996   4.728  0.00  0.00    +0.178 A 
ATOM      9  N   UNL     1       2.103   0.880   3.595  0.00  0.00    -0.228 NA
ATOM     10  N   UNL     1       1.903   0.853   6.026  0.00  0.00    -0.215 N 
ATOM     11  C   UNL     1      -0.715   1.585   1.281  0.00  0.00    +0.047 C 
ATOM     12  H   UNL     1       1.294   0.967   6.773  0.00  0.00    +0.176 HD
ENDROOT
BRANCH  10  13
ATOM     13  N   UNL     1       3.248   0.542   6.260  0.00  0.00    -0.188 NA
ATOM     14  C   UNL     1       3.682   0.407   7.476  0.00  0.00    +0.138 C 
BRANCH  14  15
ATOM     15  C   UNL     1       5.098   0.080   7.723  0.00  0.00    -0.005 A 
ATOM     16  C   UNL     1       5.975  -0.091   6.648  0.00  0.00    +0.013 A 
ATOM     17  C   UNL     1       7.299  -0.391   6.883  0.00  0.00    +0.046 A 
ATOM     18  C   UNL     1       7.760  -0.535   8.185  0.00  0.00    +0.117 A 
ATOM     19  C   UNL     1       6.891  -0.372   9.256  0.00  0.00    +0.046 A 
ATOM     20  C   UNL     1       5.566  -0.066   9.031  0.00  0.00    +0.013 A 
BRANCH  18  21
ATOM     21  O   UNL     1       9.066  -0.837   8.412  0.00  0.00    -0.507 OA
ATOM     22  H   UNL     1       9.249  -1.785   8.451  0.00  0.00    +0.292 HD
ENDBRANCH  18  21
ENDBRANCH  14  15
ENDBRANCH  10  13
TORSDOF 3
