REMARK  Name = ZINC43677198
REMARK  7 active torsions:
REMARK  status: ('A' for Active; 'I' for Inactive)
REMARK    1  A    between atoms: C_1  and  C_2
REMARK    2  A    between atoms: C_2  and  C_4
REMARK    3  A    between atoms: C_2  and  N_22
REMARK    4  A    between atoms: C_4  and  C_5
REMARK    5  A    between atoms: C_10  and  O_11
REMARK    6  A    between atoms: O_11  and  C_12
REMARK    7  A    between atoms: C_12  and  C_13
REMARK                            x       y       z     vdW  Elec       q    Type
REMARK                         _______ _______ _______ _____ _____    ______ ____
ROOT
ATOM      1  C   UNL     1       0.870  -2.011   1.172  0.00  0.00    -0.004 A 
ATOM      2  C   UNL     1      -0.064  -2.813   1.800  0.00  0.00    +0.056 A 
ATOM      3  C   UNL     1       0.050  -4.192   1.738  0.00  0.00    +0.167 A 
ATOM      4  C   UNL     1       1.109  -4.771   1.041  0.00  0.00    +0.170 A 
ATOM      5  C   UNL     1       2.043  -3.965   0.412  0.00  0.00    +0.095 A 
ATOM      6  C   UNL     1       1.921  -2.584   0.473  0.00  0.00    +0.128 A 
ATOM      7  O   UNL     1       0.998  -6.128   1.128  0.00  0.00    -0.452 OA
ATOM      8  C   UNL     1       0.097  -6.372   2.224  0.00  0.00    +0.466 C 
ATOM      9  O   UNL     1      -0.723  -5.189   2.262  0.00  0.00    -0.453 OA
ENDROOT
BRANCH   1  10
ATOM     10  C   UNL     1       0.742  -0.511   1.242  0.00  0.00    +0.022 C 
BRANCH  10  12
ATOM     11  C   UNL     1      -0.019   1.526   0.010  0.00  0.00    -0.014 C 
ATOM     12  C   UNL     1       0.002  -0.004   0.002  0.00  0.00    -0.074 C 
BRANCH  12  13
ATOM     13  N   UNL     1      -1.376  -0.512   0.012  0.00  0.00    +0.380 N 
ATOM     14  H   UNL     1      -1.362  -1.521   0.007  0.00  0.00    -0.090 HD
ATOM     15  H   UNL     1      -1.848  -0.187   0.843  0.00  0.00    -0.090 HD
ATOM     16  H   UNL     1      -1.864  -0.178  -0.805  0.00  0.00    -0.090 HD
ENDBRANCH  12  13
ENDBRANCH  10  12
ENDBRANCH   1  10
BRANCH   6  17
ATOM     17  O   UNL     1       2.836  -1.793  -0.149  0.00  0.00    -0.486 OA
BRANCH  17  18
ATOM     18  C   UNL     1       3.892  -2.451  -0.851  0.00  0.00    +0.272 C 
BRANCH  18  19
ATOM     19  C   UNL     1       4.801  -1.422  -1.472  0.00  0.00    +0.041 A 
ATOM     20  C   UNL     1       5.905  -0.833  -0.951  0.00  0.00    +0.031 A 
ATOM     21  C   UNL     1       6.591   0.096  -1.711  0.00  0.00    +0.023 A 
ATOM     22  C   UNL     1       6.139   0.390  -2.955  0.00  0.00    +0.046 A 
ATOM     23  S   UNL     1       4.706  -0.666  -3.086  0.00  0.00    -0.097 S 
ATOM     24 BR   UNL     1       6.498  -1.275   0.790  0.00  0.00    -0.049 Br
ENDBRANCH  18  19
ENDBRANCH  17  18
ENDBRANCH   6  17
TORSDOF 6
