REMARK  Name = ZINC59023434
REMARK  12 active torsions:
REMARK  status: ('A' for Active; 'I' for Inactive)
REMARK    1  A    between atoms: C_1  and  C_2
REMARK    2  A    between atoms: C_2  and  C_3
REMARK    3  A    between atoms: C_3  and  S_4
REMARK    4  A    between atoms: S_4  and  C_5
REMARK    5  A    between atoms: C_10  and  N_14
REMARK    6  A    between atoms: C_15  and  C_17
REMARK    7  A    between atoms: C_17  and  S_18
REMARK    8  A    between atoms: S_18  and  C_19
REMARK    9  A    between atoms: N_24  and  N_25
REMARK   10  A    between atoms: C_26  and  C_27
REMARK   11  A    between atoms: C_26  and  C_28
REMARK   12  A    between atoms: C_29  and  C_30
REMARK                            x       y       z     vdW  Elec       q    Type
REMARK                         _______ _______ _______ _____ _____    ______ ____
ROOT
ATOM      1  S   UNL     1     -12.954  -3.204   0.419  0.00  0.00    -0.075 S 
ENDROOT
BRANCH   1   2
ATOM      2  C   UNL     1     -14.425  -4.164   0.556  0.00  0.00    +0.211 A 
ATOM      3  N   UNL     1     -15.664  -3.675   0.676  0.00  0.00    -0.186 NA
ATOM      4  C   UNL     1     -16.526  -4.667   0.754  0.00  0.00    +0.232 A 
ATOM      5  N   UNL     1     -15.836  -5.826   0.684  0.00  0.00    -0.245 N 
ATOM      6  N   UNL     1     -14.482  -5.475   0.551  0.00  0.00    -0.144 NA
ATOM      7  N   UNL     1     -17.896  -4.545   0.886  0.00  0.00    -0.205 N 
ATOM      8  H   UNL     1     -18.452  -5.338   0.936  0.00  0.00    +0.177 HD
ATOM      9  H   UNL     1     -16.203  -6.723   0.716  0.00  0.00    +0.192 HD
BRANCH   7  10
ATOM     10  N   UNL     1     -18.483  -3.274   0.947  0.00  0.00    -0.185 NA
ATOM     11  C   UNL     1     -19.762  -3.156   1.169  0.00  0.00    +0.056 C 
ATOM     12  C   UNL     1     -20.373  -1.791   1.347  0.00  0.00    +0.067 C 
BRANCH  11  13
ATOM     13  C   UNL     1     -20.577  -4.314   1.242  0.00  0.00    +0.025 C 
ATOM     14  C   UNL     1     -21.915  -4.189   1.367  0.00  0.00    +0.010 C 
BRANCH  14  15
ATOM     15  C   UNL     1     -22.751  -5.386   1.556  0.00  0.00    -0.025 A 
ATOM     16  C   UNL     1     -22.162  -6.653   1.613  0.00  0.00    +0.008 A 
ATOM     17  C   UNL     1     -22.952  -7.769   1.791  0.00  0.00    +0.001 A 
ATOM     18  C   UNL     1     -24.324  -7.638   1.914  0.00  0.00    +0.000 A 
ATOM     19  C   UNL     1     -24.914  -6.387   1.859  0.00  0.00    +0.001 A 
ATOM     20  C   UNL     1     -24.138  -5.261   1.686  0.00  0.00    +0.008 A 
ENDBRANCH  14  15
ENDBRANCH  11  13
ENDBRANCH   7  10
ENDBRANCH   1   2
BRANCH   1  21
ATOM     21  C   UNL     1     -11.634  -4.440   0.280  0.00  0.00    +0.173 C 
BRANCH  21  23
ATOM     22  N   UNL     1      -9.172  -4.466   0.039  0.00  0.00    -0.285 N 
ATOM     23  C   UNL     1     -10.304  -3.743   0.155  0.00  0.00    +0.227 C 
ATOM     24  O   UNL     1     -10.251  -2.531   0.159  0.00  0.00    -0.275 OA
ATOM     25  H   UNL     1      -9.219  -5.432  -0.032  0.00  0.00    +0.155 HD
BRANCH  22  31
ATOM     26  C   UNL     1      -4.241  -0.642  -0.695  0.00  0.00    +0.136 A 
ATOM     27  N   UNL     1      -4.279  -1.814  -0.102  0.00  0.00    -0.233 NA
ATOM     28  C   UNL     1      -5.414  -2.543  -0.009  0.00  0.00    +0.080 A 
ATOM     29  C   UNL     1      -5.589  -3.808   0.597  0.00  0.00    +0.031 A 
ATOM     30  C   UNL     1      -6.815  -4.420   0.605  0.00  0.00    +0.025 A 
ATOM     31  C   UNL     1      -7.928  -3.821   0.019  0.00  0.00    +0.035 A 
ATOM     32  C   UNL     1      -7.789  -2.579  -0.585  0.00  0.00    +0.040 A 
ATOM     33  C   UNL     1      -6.563  -1.964  -0.594  0.00  0.00    +0.042 A 
ATOM     34  S   UNL     1      -5.934  -0.425  -1.222  0.00  0.00    -0.061 S 
BRANCH  26  35
ATOM     35  S   UNL     1      -2.869   0.443  -0.909  0.00  0.00    -0.099 S 
BRANCH  35  36
ATOM     36  C   UNL     1      -1.489  -0.433  -0.124  0.00  0.00    +0.076 C 
BRANCH  36  38
ATOM     37  C   UNL     1       0.947  -0.330   0.422  0.00  0.00    +0.004 C 
ATOM     38  C   UNL     1      -0.217   0.410  -0.240  0.00  0.00    +0.008 C 
ENDBRANCH  36  38
ENDBRANCH  35  36
ENDBRANCH  26  35
ENDBRANCH  22  31
ENDBRANCH  21  23
ENDBRANCH   1  21
TORSDOF 10
