REMARK  Name = ZINC03243727
REMARK  5 active torsions:
REMARK  status: ('A' for Active; 'I' for Inactive)
REMARK    1  A    between atoms: C_10  and  N_11
REMARK    2  A    between atoms: C_10  and  N_58
REMARK    3  A    between atoms: C_15  and  C_17
REMARK    4  A    between atoms: C_21  and  S_23
REMARK    5  A    between atoms: S_23  and  N_26
REMARK                            x       y       z     vdW  Elec       q    Type
REMARK                         _______ _______ _______ _____ _____    ______ ____
ROOT
ATOM      1  N   UNL     1       3.146  -5.454  -4.200  0.00  0.00    -0.240 N 
ATOM      2  C   UNL     1       2.393  -5.739  -3.116  0.00  0.00    +0.265 A 
ATOM      3  S   UNL     1       1.366  -7.096  -2.924  0.00  0.00    +0.011 S 
ATOM      4  O   UNL     1       2.599  -4.764  -2.214  0.00  0.00    -0.412 OA
ATOM      5  C   UNL     1       3.474  -3.872  -2.728  0.00  0.00    +0.247 A 
ATOM      6  N   UNL     1       3.818  -4.254  -3.924  0.00  0.00    -0.131 NA
ENDROOT
BRANCH   5   7
ATOM      7  C   UNL     1       3.958  -2.653  -2.044  0.00  0.00    +0.040 A 
ATOM      8  C   UNL     1       4.865  -1.806  -2.682  0.00  0.00    +0.013 A 
ATOM      9  C   UNL     1       5.313  -0.670  -2.038  0.00  0.00    +0.003 A 
ATOM     10  C   UNL     1       4.865  -0.372  -0.763  0.00  0.00    +0.028 A 
ATOM     11  C   UNL     1       3.966  -1.208  -0.126  0.00  0.00    +0.106 A 
ATOM     12  C   UNL     1       3.514  -2.349  -0.757  0.00  0.00    +0.041 A 
BRANCH  11  13
ATOM     13  S   UNL     1       3.402  -0.819   1.497  0.00  0.00    +0.061 S 
ATOM     14  O   UNL     1       4.396   0.011   2.084  0.00  0.00    -0.153 OA
ATOM     15  O   UNL     1       2.987  -2.043   2.087  0.00  0.00    -0.153 OA
BRANCH  13  16
ATOM     16  N   UNL     1       2.043   0.113   1.334  0.00  0.00    -0.177 NA
ATOM     17  C   UNL     1       0.714  -0.508   1.262  0.00  0.00    +0.109 C 
ATOM     18  C   UNL     1       0.002  -0.004   0.002  0.00  0.00    +0.017 C 
ATOM     19  C   UNL     1      -0.019   1.526   0.010  0.00  0.00    +0.003 C 
ATOM     20  C   UNL     1       1.417   2.058  -0.000  0.00  0.00    +0.017 C 
ATOM     21  C   UNL     1       2.144   1.577   1.259  0.00  0.00    +0.109 C 
ENDBRANCH  13  16
ENDBRANCH  11  13
ENDBRANCH   5   7
BRANCH   1  22
ATOM     22  C   UNL     1       3.237  -6.243  -5.431  0.00  0.00    +0.074 C 
BRANCH  22  32
ATOM     23  C   UNL     1      -0.308  -3.130  -9.796  0.00  0.00    +0.000 A 
ATOM     24  C   UNL     1       0.456  -2.209  -9.104  0.00  0.00    +0.000 A 
ATOM     25  C   UNL     1       1.353  -2.640  -8.148  0.00  0.00    +0.002 A 
ATOM     26  C   UNL     1       1.492  -3.993  -7.875  0.00  0.00    -0.061 A 
ATOM     27  C   UNL     1       0.728  -4.911  -8.563  0.00  0.00    -0.048 A 
ATOM     28  C   UNL     1      -0.172  -4.477  -9.525  0.00  0.00    +0.004 A 
ATOM     29  C   UNL     1       0.839  -6.390  -8.298  0.00  0.00    +0.017 C 
ATOM     30  C   UNL     1       2.133  -6.689  -7.541  0.00  0.00    -0.071 C 
ATOM     31  C   UNL     1       2.487  -4.415  -6.826  0.00  0.00    -0.040 C 
ATOM     32  N   UNL     1       2.194  -5.785  -6.374  0.00  0.00    +0.396 N 
ATOM     33  H   UNL     1       1.285  -5.793  -5.896  0.00  0.00    -0.079 HD
ENDBRANCH  22  32
ENDBRANCH   1  22
TORSDOF 5
