REMARK  Name = ZINC20702078
REMARK  6 active torsions:
REMARK  status: ('A' for Active; 'I' for Inactive)
REMARK    1  A    between atoms: C_1  and  C_2
REMARK    2  A    between atoms: C_2  and  O_4
REMARK    3  A    between atoms: O_4  and  C_5
REMARK    4  A    between atoms: C_8  and  C_13
REMARK    5  A    between atoms: C_10  and  O_11
REMARK    6  A    between atoms: O_11  and  C_12
REMARK                            x       y       z     vdW  Elec       q    Type
REMARK                         _______ _______ _______ _____ _____    ______ ____
ROOT
ATOM      1  C   UNL     1      -2.447  -0.124   0.018  0.00  0.00    +0.105 C 
ATOM      2  C   UNL     1      -2.711   1.067   0.916  0.00  0.00    +0.029 C 
ATOM      3  C   UNL     1      -4.120   1.672   0.910  0.00  0.00    +0.033 C 
ATOM      4  C   UNL     1      -3.823   3.138   1.238  0.00  0.00    -0.030 C 
ATOM      5  C   UNL     1      -2.590   3.447   0.853  0.00  0.00    -0.023 C 
ATOM      6  C   UNL     1      -1.982   2.255   0.214  0.00  0.00    +0.049 C 
ATOM      7  C   UNL     1      -0.532   1.965   0.282  0.00  0.00    -0.019 A 
ATOM      8  C   UNL     1       0.404   2.986   0.407  0.00  0.00    +0.006 A 
ATOM      9  C   UNL     1       1.739   2.730   0.436  0.00  0.00    +0.009 A 
ATOM     10  C   UNL     1       2.192   1.403   0.331  0.00  0.00    -0.016 A 
ATOM     11  C   UNL     1       3.566   1.103   0.347  0.00  0.00    +0.008 A 
ATOM     12  C   UNL     1       3.973  -0.191   0.234  0.00  0.00    +0.001 A 
ATOM     13  C   UNL     1       3.047  -1.224   0.104  0.00  0.00    +0.001 A 
ATOM     14  C   UNL     1       1.710  -0.970   0.089  0.00  0.00    +0.010 A 
ATOM     15  C   UNL     1       1.253   0.354   0.205  0.00  0.00    +0.003 A 
ATOM     16  C   UNL     1      -0.137   0.639   0.197  0.00  0.00    +0.039 A 
ATOM     17  N   UNL     1      -1.013  -0.437   0.127  0.00  0.00    -0.336 N 
ATOM     18  H   UNL     1      -0.679  -1.485   0.149  0.00  0.00    +0.147 HD
ENDROOT
BRANCH   1  22
ATOM     19  C   UNL     1      -3.416   0.859  -4.030  0.00  0.00    +0.173 A 
ATOM     20  C   UNL     1      -2.119   1.013  -3.568  0.00  0.00    +0.050 A 
ATOM     21  C   UNL     1      -1.810   0.700  -2.257  0.00  0.00    +0.009 A 
ATOM     22  C   UNL     1      -2.790   0.222  -1.408  0.00  0.00    -0.023 A 
ATOM     23  C   UNL     1      -4.087   0.066  -1.862  0.00  0.00    +0.055 A 
ATOM     24  C   UNL     1      -4.404   0.383  -3.173  0.00  0.00    +0.163 A 
BRANCH  24  25
ATOM     25  O   UNL     1      -5.679   0.229  -3.622  0.00  0.00    -0.491 OA
ATOM     26  C   UNL     1      -6.640  -0.264  -2.687  0.00  0.00    +0.277 C 
ENDBRANCH  24  25
BRANCH  19  27
ATOM     27  O   UNL     1      -3.723   1.172  -5.317  0.00  0.00    -0.422 OA
BRANCH  27  29
ATOM     28  C   UNL     1      -4.669   2.787  -6.927  0.00  0.00    +0.136 C 
ATOM     29  C   UNL     1      -4.199   2.406  -5.547  0.00  0.00    +0.309 C 
ATOM     30  O   UNL     1      -4.249   3.212  -4.648  0.00  0.00    -0.251 OA
ENDBRANCH  27  29
ENDBRANCH  19  27
ENDBRANCH   1  22
TORSDOF 4
