REMARK  Name = ZINC35484125
REMARK  17 active torsions:
REMARK  status: ('A' for Active; 'I' for Inactive)
REMARK    1  A    between atoms: C_1  and  C_2
REMARK    2  A    between atoms: C_2  and  C_3
REMARK    3  A    between atoms: C_3  and  C_4
REMARK    4  A    between atoms: C_4  and  C_5
REMARK    5  A    between atoms: C_5  and  O_6
REMARK    6  A    between atoms: O_6  and  C_7
REMARK    7  A    between atoms: C_10  and  C_15
REMARK    8  A    between atoms: C_12  and  O_13
REMARK    9  A    between atoms: O_13  and  C_14
REMARK   10  A    between atoms: C_17  and  C_18
REMARK   11  A    between atoms: C_18  and  C_19
REMARK   12  A    between atoms: C_20  and  C_29
REMARK   13  A    between atoms: C_25  and  C_28
REMARK   14  A    between atoms: N_35  and  C_36
REMARK   15  A    between atoms: C_36  and  C_37
REMARK   16  A    between atoms: C_37  and  O_38
REMARK   17  A    between atoms: O_38  and  C_39
REMARK                            x       y       z     vdW  Elec       q    Type
REMARK                         _______ _______ _______ _____ _____    ______ ____
ROOT
ATOM      1  C   UNL     1       3.393  -6.404   6.627  0.00  0.00    +0.145 C 
ATOM      2  C   UNL     1       2.341  -6.176   7.686  0.00  0.00    +0.078 C 
ATOM      3  C   UNL     1       2.814  -5.208   8.505  0.00  0.00    +0.249 C 
ATOM      4  O   UNL     1       2.169  -4.712   9.586  0.00  0.00    -0.282 OA
ATOM      5  C   UNL     1       4.146  -4.779   8.031  0.00  0.00    +0.288 C 
ATOM      6  O   UNL     1       4.831  -3.924   8.556  0.00  0.00    -0.266 OA
ATOM      7  N   UNL     1       4.489  -5.476   6.932  0.00  0.00    -0.281 N 
ENDROOT
BRANCH   1  11
ATOM      8  C   UNL     1       1.788  -5.553   2.755  0.00  0.00    +0.162 A 
ATOM      9  C   UNL     1       1.975  -4.530   3.671  0.00  0.00    +0.050 A 
ATOM     10  C   UNL     1       2.494  -4.809   4.922  0.00  0.00    +0.009 A 
ATOM     11  C   UNL     1       2.828  -6.106   5.262  0.00  0.00    -0.019 A 
ATOM     12  C   UNL     1       2.644  -7.132   4.353  0.00  0.00    +0.055 A 
ATOM     13  C   UNL     1       2.118  -6.861   3.100  0.00  0.00    +0.162 A 
BRANCH  13  14
ATOM     14  O   UNL     1       1.931  -7.869   2.207  0.00  0.00    -0.491 OA
ATOM     15  C   UNL     1       2.193  -9.197   2.664  0.00  0.00    +0.277 C 
ENDBRANCH  13  14
BRANCH   8  16
ATOM     16  O   UNL     1       1.277  -5.281   1.525  0.00  0.00    -0.488 OA
BRANCH  16  17
ATOM     17  C   UNL     1       0.961  -3.917   1.240  0.00  0.00    +0.229 C 
BRANCH  17  18
ATOM     18  C   UNL     1       0.403  -3.808  -0.180  0.00  0.00    +0.041 C 
BRANCH  18  19
ATOM     19  C   UNL     1       0.065  -2.347  -0.484  0.00  0.00    +0.003 C 
BRANCH  19  21
ATOM     20  C   UNL     1      -0.832  -0.777  -2.209  0.00  0.00    +0.004 C 
ATOM     21  C   UNL     1      -0.493  -2.238  -1.905  0.00  0.00    -0.003 C 
ENDBRANCH  19  21
ENDBRANCH  18  19
ENDBRANCH  17  18
ENDBRANCH  16  17
ENDBRANCH   8  16
ENDBRANCH   1  11
BRANCH   2  22
ATOM     22  C   UNL     1       1.055  -6.871   7.805  0.00  0.00    +0.215 C 
ATOM     23  O   UNL     1       0.667  -7.591   6.904  0.00  0.00    -0.285 OA
BRANCH  22  24
ATOM     24  C   UNL     1       0.232  -6.697   9.018  0.00  0.00    +0.133 A 
ATOM     25  C   UNL     1      -1.046  -7.177   9.205  0.00  0.00    +0.051 A 
ATOM     26  N   UNL     1      -1.434  -6.795  10.454  0.00  0.00    -0.303 N 
ATOM     27  C   UNL     1      -2.589  -6.993  11.157  0.00  0.00    +0.093 A 
ATOM     28  C   UNL     1      -2.727  -6.501  12.405  0.00  0.00    +0.018 A 
ATOM     29  C   UNL     1      -1.681  -5.776  13.002  0.00  0.00    +0.008 A 
ATOM     30  C   UNL     1      -0.526  -5.571  12.316  0.00  0.00    -0.008 A 
ATOM     31  C   UNL     1      -0.394  -6.091  11.009  0.00  0.00    +0.141 A 
ATOM     32  N   UNL     1       0.599  -6.046  10.137  0.00  0.00    -0.224 NA
ATOM     33  C   UNL     1       0.604  -4.796  12.943  0.00  0.00    +0.047 C 
ATOM     34  C   UNL     1      -1.860  -7.972   8.216  0.00  0.00    +0.066 C 
ENDBRANCH  22  24
ENDBRANCH   2  22
BRANCH   7  35
ATOM     35  C   UNL     1       5.735  -5.334   6.175  0.00  0.00    +0.137 C 
BRANCH  35  36
ATOM     36  C   UNL     1       5.550  -4.280   5.081  0.00  0.00    +0.178 C 
BRANCH  36  37
ATOM     37  O   UNL     1       5.325  -3.004   5.683  0.00  0.00    -0.381 OA
ATOM     38  C   UNL     1       5.139  -1.943   4.744  0.00  0.00    +0.194 C 
ENDBRANCH  36  37
ENDBRANCH  35  36
ENDBRANCH   7  35
TORSDOF 12
