REMARK  Name = ZINC39533830
REMARK  7 active torsions:
REMARK  status: ('A' for Active; 'I' for Inactive)
REMARK    1  A    between atoms: C_1  and  O_2
REMARK    2  A    between atoms: O_2  and  N_3
REMARK    3  A    between atoms: N_3  and  C_4
REMARK    4  A    between atoms: C_4  and  C_5
REMARK    5  A    between atoms: C_5  and  C_7
REMARK    6  A    between atoms: C_5  and  N_19
REMARK    7  A    between atoms: C_10  and  C_13
REMARK                            x       y       z     vdW  Elec       q    Type
REMARK                         _______ _______ _______ _____ _____    ______ ____
ROOT
ATOM      1  C   UNL     1       1.352  -2.620  -2.340  0.00  0.00    +0.103 C 
ENDROOT
BRANCH   1   2
ATOM      2  N   UNL     1       2.670  -1.978  -2.241  0.00  0.00    -0.291 NA
ATOM      3  C   UNL     1       3.060  -1.790  -0.837  0.00  0.00    +0.100 C 
ATOM      4  C   UNL     1       4.468  -1.194  -0.776  0.00  0.00    +0.097 C 
ATOM      5  N   UNL     1       4.487   0.084  -1.501  0.00  0.00    -0.303 NA
ATOM      6  C   UNL     1       4.098  -0.104  -2.905  0.00  0.00    +0.132 C 
ATOM      7  C   UNL     1       2.690  -0.700  -2.966  0.00  0.00    +0.114 C 
ATOM      8  I   UNL     1       4.118   1.804  -3.921  0.00  0.00    -0.063 I 
ATOM      9  H   UNL     1       3.895   0.765  -1.049  0.00  0.00    +0.123 HD
ENDBRANCH   1   2
BRANCH   1  10
ATOM     10  C   UNL     1       1.526  -4.114  -2.428  0.00  0.00    -0.029 A 
ATOM     11  C   UNL     1       2.561  -4.729  -1.745  0.00  0.00    +0.006 A 
ATOM     12  C   UNL     1       2.725  -6.097  -1.821  0.00  0.00    +0.009 A 
ATOM     13  C   UNL     1       1.846  -6.860  -2.587  0.00  0.00    -0.018 A 
ATOM     14  C   UNL     1       0.806  -6.236  -3.273  0.00  0.00    +0.009 A 
ATOM     15  C   UNL     1       0.648  -4.867  -3.185  0.00  0.00    +0.006 A 
BRANCH  13  16
ATOM     16  C   UNL     1       2.018  -8.331  -2.674  0.00  0.00    -0.018 A 
ATOM     17  C   UNL     1       3.055  -8.956  -1.984  0.00  0.00    +0.008 A 
ATOM     18  C   UNL     1       3.210 -10.325  -2.067  0.00  0.00    +0.001 A 
ATOM     19  C   UNL     1       2.338 -11.076  -2.834  0.00  0.00    +0.000 A 
ATOM     20  C   UNL     1       1.307 -10.461  -3.521  0.00  0.00    +0.001 A 
ATOM     21  C   UNL     1       1.139  -9.094  -3.440  0.00  0.00    +0.008 A 
ENDBRANCH  13  16
ENDBRANCH   1  10
BRANCH   1  22
ATOM     22  C   UNL     1       0.522  -2.275  -1.102  0.00  0.00    +0.134 C 
BRANCH  22  23
ATOM     23  N   UNL     1       0.382  -0.816  -0.998  0.00  0.00    -0.200 NA
ATOM     24  H   UNL     1      -0.020  -0.430  -1.840  0.00  0.00    +0.154 HD
BRANCH  23  26
ATOM     25  C   UNL     1      -0.585   0.961   0.340  0.00  0.00    +0.221 C 
ATOM     26  O   UNL     1      -0.408  -0.448   0.177  0.00  0.00    -0.303 OA
ENDBRANCH  23  26
ENDBRANCH  22  23
ENDBRANCH   1  22
TORSDOF 6
