REMARK  Name = ZINC35592203
REMARK  8 active torsions:
REMARK  status: ('A' for Active; 'I' for Inactive)
REMARK    1  A    between atoms: C_1  and  C_2
REMARK    2  A    between atoms: C_2  and  C_3
REMARK    3  A    between atoms: C_2  and  C_4
REMARK    4  A    between atoms: C_2  and  N_5
REMARK    5  A    between atoms: C_16  and  C_18
REMARK    6  A    between atoms: C_21  and  N_24
REMARK    7  A    between atoms: N_24  and  C_25
REMARK    8  A    between atoms: N_24  and  C_26
REMARK                            x       y       z     vdW  Elec       q    Type
REMARK                         _______ _______ _______ _____ _____    ______ ____
ROOT
ATOM      1  N   UNL     1       1.356  -1.293  -0.349  0.00  0.00    -0.294 N 
ATOM      2  C   UNL     1       2.432  -0.673  -0.872  0.00  0.00    +0.303 C 
ATOM      3  O   UNL     1       3.042   0.146  -0.212  0.00  0.00    -0.253 OA
ATOM      4  N   UNL     1       2.833  -0.961  -2.126  0.00  0.00    -0.271 N 
ATOM      5  C   UNL     1       2.049  -1.864  -2.982  0.00  0.00    +0.132 C 
ATOM      6  C   UNL     1       1.522  -1.084  -4.191  0.00  0.00    +0.140 C 
ATOM      7  N   UNL     1       2.609  -0.279  -4.759  0.00  0.00    -0.347 N 
ATOM      8  C   UNL     1       2.661   0.261  -6.007  0.00  0.00    +0.086 A 
ATOM      9  C   UNL     1       3.825   0.934  -6.128  0.00  0.00    +0.019 A 
ATOM     10  C   UNL     1       4.520   0.801  -4.908  0.00  0.00    +0.025 A 
ATOM     11  C   UNL     1       3.758   0.054  -4.094  0.00  0.00    +0.044 A 
ATOM     12  C   UNL     1       4.066  -0.374  -2.683  0.00  0.00    +0.155 C 
ATOM     13  H   UNL     1       0.827  -1.892  -0.898  0.00  0.00    +0.151 HD
ENDROOT
BRANCH  12  14
ATOM     14  C   UNL     1       4.483   0.819  -1.863  0.00  0.00    -0.021 A 
ATOM     15  C   UNL     1       3.596   1.860  -1.658  0.00  0.00    +0.007 A 
ATOM     16  C   UNL     1       3.975   2.955  -0.907  0.00  0.00    +0.023 A 
ATOM     17  C   UNL     1       5.250   3.011  -0.358  0.00  0.00    +0.029 A 
ATOM     18  C   UNL     1       6.139   1.964  -0.566  0.00  0.00    +0.023 A 
ATOM     19  C   UNL     1       5.751   0.869  -1.312  0.00  0.00    +0.007 A 
BRANCH  17  20
ATOM     20  N   UNL     1       5.637   4.117   0.402  0.00  0.00    -0.336 N 
ATOM     21  C   UNL     1       4.746   5.275   0.516  0.00  0.00    +0.129 C 
ATOM     22  C   UNL     1       6.933   4.120   1.084  0.00  0.00    +0.129 C 
ENDBRANCH  17  20
ENDBRANCH  12  14
BRANCH   1  24
ATOM     23  C   UNL     1       0.694   0.424   1.261  0.00  0.00    +0.031 C 
ATOM     24  C   UNL     1       0.985  -1.062   1.050  0.00  0.00    +0.028 C 
ATOM     25  C   UNL     1       2.138  -1.491   1.960  0.00  0.00    +0.031 C 
ATOM     26  C   UNL     1      -0.263  -1.880   1.388  0.00  0.00    +0.031 C 
ENDBRANCH   1  24
TORSDOF 3
