REMARK  Name = ZINC63634534
REMARK  4 active torsions:
REMARK  status: ('A' for Active; 'I' for Inactive)
REMARK    1  A    between atoms: C_5  and  N_9
REMARK    2  A    between atoms: C_10  and  C_12
REMARK    3  A    between atoms: N_17  and  S_19
REMARK    4  A    between atoms: S_19  and  C_22
REMARK                            x       y       z     vdW  Elec       q    Type
REMARK                         _______ _______ _______ _____ _____    ______ ____
ROOT
ATOM      1  C   UNL     1      -1.033   1.401  -6.317  0.00  0.00    +0.091 C 
ATOM      2  C   UNL     1      -0.382   2.696  -6.807  0.00  0.00    +0.015 C 
ATOM      3  C   UNL     1      -0.525   2.798  -8.328  0.00  0.00    +0.018 C 
ATOM      4  C   UNL     1      -2.012   2.835  -8.694  0.00  0.00    +0.109 C 
ATOM      5  N   UNL     1      -2.675   1.665  -8.102  0.00  0.00    -0.176 NA
ATOM      6  C   UNL     1      -2.526   1.422  -6.661  0.00  0.00    +0.122 C 
ENDROOT
BRANCH   1   8
ATOM      7  N   UNL     1       0.373   1.251  -4.287  0.00  0.00    -0.312 N 
ATOM      8  C   UNL     1      -0.863   1.286  -4.824  0.00  0.00    +0.218 C 
ATOM      9  O   UNL     1      -1.838   1.226  -4.105  0.00  0.00    -0.275 OA
ATOM     10  H   UNL     1       1.153   1.299  -4.862  0.00  0.00    +0.149 HD
BRANCH   7  15
ATOM     11  C   UNL     1      -0.019   1.526   0.010  0.00  0.00    +0.000 C 
ATOM     12  C   UNL     1       1.416   2.056  -0.000  0.00  0.00    +0.000 C 
ATOM     13  C   UNL     1       2.245   1.265  -1.015  0.00  0.00    +0.002 C 
ATOM     14  C   UNL     1       1.893   1.726  -2.431  0.00  0.00    +0.022 C 
ATOM     15  C   UNL     1       0.539   1.139  -2.836  0.00  0.00    +0.073 C 
ATOM     16  C   UNL     1       0.478  -0.334  -2.428  0.00  0.00    +0.022 C 
ATOM     17  C   UNL     1      -0.566  -0.515  -1.324  0.00  0.00    +0.002 C 
ATOM     18  C   UNL     1       0.002  -0.004   0.002  0.00  0.00    +0.000 C 
ENDBRANCH   7  15
ENDBRANCH   1   8
BRANCH   5  19
ATOM     19  S   UNL     1      -3.574   0.639  -9.042  0.00  0.00    +0.061 S 
ATOM     20  O   UNL     1      -4.496  -0.004  -8.173  0.00  0.00    -0.153 OA
ATOM     21  O   UNL     1      -3.991   1.387 -10.176  0.00  0.00    -0.153 OA
BRANCH  19  22
ATOM     22  C   UNL     1      -2.485  -0.612  -9.636  0.00  0.00    +0.106 C 
ATOM     23  C   UNL     1      -2.600  -1.894  -9.174  0.00  0.00    +0.035 C 
ATOM     24  C   UNL     1      -1.719  -2.820  -9.760  0.00  0.00    -0.013 C 
ATOM     25  C   UNL     1      -1.129  -3.937  -9.296  0.00  0.00    -0.021 C 
ATOM     26  C   UNL     1      -1.471  -4.636  -7.999  0.00  0.00    +0.037 C 
ATOM     27  C   UNL     1      -0.226  -5.349  -7.468  0.00  0.00    +0.005 C 
ATOM     28  C   UNL     1      -0.151  -6.763  -8.034  0.00  0.00    +0.001 C 
ATOM     29  C   UNL     1      -0.016  -6.737  -9.552  0.00  0.00    +0.006 C 
ATOM     30  C   UNL     1       0.807  -5.524  -9.986  0.00  0.00    +0.055 C 
ATOM     31  C   UNL     1      -0.116  -4.343 -10.196  0.00  0.00    +0.040 C 
ATOM     32  N   UNL     1      -0.092  -3.593 -11.268  0.00  0.00    -0.276 NA
ATOM     33  C   UNL     1      -1.189  -2.645 -11.173  0.00  0.00    +0.159 C 
ATOM     34  C   UNL     1      -0.815  -1.204 -11.341  0.00  0.00    +0.006 C 
ATOM     35  C   UNL     1      -1.465  -0.280 -10.626  0.00  0.00    +0.027 C 
ENDBRANCH  19  22
ENDBRANCH   5  19
TORSDOF 4
