REMARK  Name = ZINC32069613
REMARK  4 active torsions:
REMARK  status: ('A' for Active; 'I' for Inactive)
REMARK    1  A    between atoms: C_1  and  C_2
REMARK    2  A    between atoms: C_3  and  C_20
REMARK    3  A    between atoms: C_8  and  C_10
REMARK    4  A    between atoms: C_22  and  C_25
REMARK                            x       y       z     vdW  Elec       q    Type
REMARK                         _______ _______ _______ _____ _____    ______ ____
ROOT
ATOM      1  C   UNL     1      -0.018   1.503   0.010  0.00  0.00    +0.067 C 
ATOM      2  C   UNL     1       0.002  -0.004   0.002  0.00  0.00    +0.060 A 
ATOM      3  C   UNL     1       0.006  -0.720  -1.173  0.00  0.00    +0.101 A 
ATOM      4  S   UNL     1       0.032  -2.390  -0.541  0.00  0.00    -0.047 S 
ATOM      5  C   UNL     1       0.035  -2.018   1.100  0.00  0.00    +0.165 A 
ATOM      6  N   UNL     1       0.022  -0.699   1.114  0.00  0.00    -0.229 NA
ATOM      7  N   UNL     1       0.052  -2.888   2.178  0.00  0.00    -0.264 N 
ATOM      8  C   UNL     1       0.051  -2.404   3.436  0.00  0.00    +0.225 C 
ATOM      9  O   UNL     1       0.036  -1.206   3.624  0.00  0.00    -0.275 OA
ATOM     10  H   UNL     1       0.064  -3.846   2.028  0.00  0.00    +0.157 HD
ENDROOT
BRANCH   8  11
ATOM     11  C   UNL     1       0.070  -3.350   4.608  0.00  0.00    +0.048 C 
ATOM     12  C   UNL     1       1.330  -4.215   4.546  0.00  0.00    +0.019 C 
ATOM     13  C   UNL     1       1.348  -5.176   5.736  0.00  0.00    -0.009 C 
ATOM     14  C   UNL     1       1.344  -4.374   7.039  0.00  0.00    +0.007 C 
ATOM     15  C   UNL     1       0.084  -3.509   7.101  0.00  0.00    -0.009 C 
ATOM     16  C   UNL     1       0.065  -2.548   5.911  0.00  0.00    +0.019 C 
ATOM     17  C   UNL     1      -1.154  -4.407   7.051  0.00  0.00    +0.007 C 
ATOM     18  C   UNL     1      -1.150  -5.209   5.748  0.00  0.00    -0.009 C 
ATOM     19  C   UNL     1       0.111  -6.074   5.686  0.00  0.00    +0.007 C 
ATOM     20  C   UNL     1      -1.168  -4.248   4.558  0.00  0.00    +0.019 C 
ENDBRANCH   8  11
BRANCH   3  21
ATOM     21  C   UNL     1      -0.007  -0.244  -2.560  0.00  0.00    +0.267 A 
ATOM     22  N   UNL     1      -0.008  -1.002  -3.637  0.00  0.00    -0.186 NA
ATOM     23  C   UNL     1      -0.023  -0.232  -4.737  0.00  0.00    +0.209 A 
ATOM     24  N   UNL     1      -0.032   1.030  -4.372  0.00  0.00    -0.055 NA
ATOM     25  O   UNL     1      -0.027   1.044  -2.952  0.00  0.00    -0.332 OA
BRANCH  23  26
ATOM     26  C   UNL     1      -0.028  -0.724  -6.130  0.00  0.00    +0.060 A 
ATOM     27  C   UNL     1      -0.037  -0.008  -7.298  0.00  0.00    +0.019 A 
ATOM     28  C   UNL     1      -0.039  -0.691  -8.493  0.00  0.00    +0.008 A 
ATOM     29  C   UNL     1      -0.033  -2.050  -8.479  0.00  0.00    +0.046 A 
ATOM     30  S   UNL     1      -0.015  -2.405  -6.730  0.00  0.00    -0.093 S 
ENDBRANCH  23  26
ENDBRANCH   3  21
TORSDOF 3
