REMARK  Name = ZINC39252591
REMARK  12 active torsions:
REMARK  status: ('A' for Active; 'I' for Inactive)
REMARK    1  A    between atoms: C_1  and  C_2
REMARK    2  A    between atoms: C_2  and  O_3
REMARK    3  A    between atoms: O_3  and  C_4
REMARK    4  A    between atoms: C_4  and  C_6
REMARK    5  A    between atoms: C_8  and  N_16
REMARK    6  A    between atoms: C_17  and  C_19
REMARK    7  A    between atoms: C_19  and  S_20
REMARK    8  A    between atoms: S_20  and  C_21
REMARK    9  A    between atoms: C_25  and  C_36
REMARK   10  A    between atoms: C_26  and  C_28
REMARK   11  A    between atoms: C_31  and  O_34
REMARK   12  A    between atoms: O_34  and  C_35
REMARK                            x       y       z     vdW  Elec       q    Type
REMARK                         _______ _______ _______ _____ _____    ______ ____
ROOT
ATOM      1  C   UNL     1      -2.732  -0.237  -3.750  0.00  0.00    +0.173 C 
ENDROOT
BRANCH   1   3
ATOM      2  N   UNL     1      -0.688  -1.617  -3.554  0.00  0.00    -0.301 N 
ATOM      3  C   UNL     1      -1.272  -0.496  -4.023  0.00  0.00    +0.224 C 
ATOM      4  O   UNL     1      -0.624   0.303  -4.664  0.00  0.00    -0.275 OA
ATOM      5  H   UNL     1      -1.206  -2.256  -3.041  0.00  0.00    +0.150 HD
BRANCH   2   7
ATOM      6  C   UNL     1       1.468  -2.353  -2.550  0.00  0.00    +0.155 C 
ATOM      7  C   UNL     1       0.731  -1.869  -3.819  0.00  0.00    +0.153 C 
ATOM      8  S   UNL     1       0.969  -3.363  -4.867  0.00  0.00    -0.106 S 
ATOM      9  C   UNL     1       1.254  -4.549  -3.566  0.00  0.00    -0.013 C 
ATOM     10  C   UNL     1       1.481  -3.868  -2.459  0.00  0.00    -0.044 C 
ATOM     11  C   UNL     1       1.717  -4.861  -1.315  0.00  0.00    +0.033 C 
ATOM     12  C   UNL     1       1.165  -6.208  -1.818  0.00  0.00    +0.009 C 
ATOM     13  C   UNL     1       1.309  -6.041  -3.343  0.00  0.00    +0.042 C 
BRANCH   6  14
ATOM     14  C   UNL     1       0.775  -1.794  -1.334  0.00  0.00    +0.317 C 
ATOM     15  O   UNL     1       0.314  -2.540  -0.504  0.00  0.00    -0.250 OA
BRANCH  14  16
ATOM     16  O   UNL     1       0.671  -0.465  -1.174  0.00  0.00    -0.464 OA
BRANCH  16  18
ATOM     17  C   UNL     1      -0.019   1.526   0.010  0.00  0.00    +0.048 C 
ATOM     18  C   UNL     1       0.002  -0.004   0.002  0.00  0.00    +0.229 C 
ENDBRANCH  16  18
ENDBRANCH  14  16
ENDBRANCH   6  14
ENDBRANCH   2   7
ENDBRANCH   1   3
BRANCH   1  19
ATOM     19  S   UNL     1      -3.217   1.338  -4.507  0.00  0.00    -0.077 S 
BRANCH  19  20
ATOM     20  C   UNL     1      -4.926   1.496  -4.104  0.00  0.00    +0.193 A 
ATOM     21  N   UNL     1      -5.506   0.542  -3.388  0.00  0.00    -0.182 NA
ATOM     22  C   UNL     1      -6.789   0.617  -3.062  0.00  0.00    +0.292 A 
ATOM     23  O   UNL     1      -7.370  -0.363  -2.330  0.00  0.00    -0.264 OA
ATOM     24  C   UNL     1      -7.537   1.732  -3.487  0.00  0.00    +0.144 A 
ATOM     25  C   UNL     1      -6.878   2.722  -4.247  0.00  0.00    +0.097 A 
ATOM     26  N   UNL     1      -5.587   2.565  -4.523  0.00  0.00    -0.220 NA
BRANCH  25  27
ATOM     27  C   UNL     1      -7.611   3.916  -4.723  0.00  0.00    +0.002 A 
ATOM     28  C   UNL     1      -8.952   3.812  -5.095  0.00  0.00    +0.013 A 
ATOM     29  C   UNL     1      -9.631   4.926  -5.538  0.00  0.00    +0.046 A 
ATOM     30  C   UNL     1      -8.982   6.152  -5.614  0.00  0.00    +0.120 A 
ATOM     31  C   UNL     1      -7.647   6.260  -5.245  0.00  0.00    +0.046 A 
ATOM     32  C   UNL     1      -6.963   5.151  -4.796  0.00  0.00    +0.013 A 
BRANCH  30  33
ATOM     33  O   UNL     1      -9.654   7.249  -6.051  0.00  0.00    -0.495 OA
ATOM     34  C   UNL     1      -8.927   8.477  -6.104  0.00  0.00    +0.277 C 
ENDBRANCH  30  33
ENDBRANCH  25  27
BRANCH  24  35
ATOM     35  C   UNL     1      -8.925   1.856  -3.159  0.00  0.00    +0.107 C 
ATOM     36  N   UNL     1     -10.026   1.955  -2.899  0.00  0.00    -0.191 NA
ENDBRANCH  24  35
ENDBRANCH  19  20
ENDBRANCH   1  19
TORSDOF 10
