REMARK  Name = ZINC05256168
REMARK  3 active torsions:
REMARK  status: ('A' for Active; 'I' for Inactive)
REMARK    1  A    between atoms: C_9  and  C_11
REMARK    2  A    between atoms: N_21  and  C_22
REMARK    3  A    between atoms: C_22  and  C_23
REMARK                            x       y       z     vdW  Elec       q    Type
REMARK                         _______ _______ _______ _____ _____    ______ ____
ROOT
ATOM      1  C   UNL     1      -3.976   3.413   3.423  0.00  0.00    +0.019 A 
ATOM      2  C   UNL     1      -3.596   2.896   2.167  0.00  0.00    +0.025 A 
ATOM      3  C   UNL     1      -3.094   3.914   1.452  0.00  0.00    +0.044 A 
ATOM      4  N   UNL     1      -3.152   5.050   2.212  0.00  0.00    -0.347 N 
ATOM      5  C   UNL     1      -3.691   4.733   3.420  0.00  0.00    +0.086 A 
ATOM      6  C   UNL     1      -2.705   6.375   1.766  0.00  0.00    +0.140 C 
ATOM      7  C   UNL     1      -1.766   6.214   0.567  0.00  0.00    +0.132 C 
ATOM      8  N   UNL     1      -2.357   5.265  -0.392  0.00  0.00    -0.271 N 
ATOM      9  C   UNL     1      -2.543   3.869   0.045  0.00  0.00    +0.156 C 
ATOM     10  C   UNL     1      -2.719   5.660  -1.629  0.00  0.00    +0.303 C 
ATOM     11  O   UNL     1      -3.298   4.888  -2.368  0.00  0.00    -0.253 OA
ATOM     12  N   UNL     1      -2.438   6.910  -2.046  0.00  0.00    -0.298 N 
ATOM     13  H   UNL     1      -1.911   7.502  -1.486  0.00  0.00    +0.150 HD
ENDROOT
BRANCH   9  14
ATOM     14  C   UNL     1      -1.221   3.146   0.032  0.00  0.00    -0.003 A 
ATOM     15  C   UNL     1      -0.500   3.004   1.203  0.00  0.00    +0.009 A 
ATOM     16  C   UNL     1       0.713   2.341   1.193  0.00  0.00    +0.020 A 
ATOM     17  C   UNL     1       1.205   1.818   0.010  0.00  0.00    +0.042 A 
ATOM     18  C   UNL     1       0.483   1.958  -1.161  0.00  0.00    +0.040 A 
ATOM     19  C   UNL     1      -0.727   2.628  -1.151  0.00  0.00    +0.048 A 
ATOM     20 CL   UNL     1      -1.630   2.811  -2.623  0.00  0.00    -0.083 Cl
ATOM     21 CL   UNL     1       2.728   0.984  -0.003  0.00  0.00    -0.083 Cl
ENDBRANCH   9  14
BRANCH  12  22
ATOM     22  C   UNL     1      -2.928   7.376  -3.346  0.00  0.00    +0.121 C 
BRANCH  22  23
ATOM     23  C   UNL     1      -2.473   8.818  -3.575  0.00  0.00    +0.127 C 
ATOM     24 CL   UNL     1      -3.077   9.391  -5.175  0.00  0.00    -0.124 Cl
ENDBRANCH  22  23
ENDBRANCH  12  22
TORSDOF 3
