REMARK  Name = ZINC66390478
REMARK  8 active torsions:
REMARK  status: ('A' for Active; 'I' for Inactive)
REMARK    1  A    between atoms: C_1  and  C_2
REMARK    2  A    between atoms: C_2  and  C_4
REMARK    3  A    between atoms: C_2  and  N_15
REMARK    4  A    between atoms: N_6  and  C_7
REMARK    5  A    between atoms: C_7  and  C_13
REMARK    6  A    between atoms: N_15  and  C_16
REMARK    7  A    between atoms: C_16  and  C_17
REMARK    8  A    between atoms: C_17  and  C_23
REMARK                            x       y       z     vdW  Elec       q    Type
REMARK                         _______ _______ _______ _____ _____    ______ ____
ROOT
ATOM      1  N   UNL     1      -1.778  -0.282   0.453  0.00  0.00    +0.387 N 
ATOM      2  H   UNL     1      -1.810  -1.265   0.681  0.00  0.00    -0.085 HD
ATOM      3  H   UNL     1      -2.452   0.215   1.016  0.00  0.00    -0.085 HD
ENDROOT
BRANCH   1   5
ATOM      4  C   UNL     1      -0.418   1.754   0.498  0.00  0.00    -0.004 C 
ATOM      5  C   UNL     1      -0.432   0.240   0.724  0.00  0.00    +0.013 C 
BRANCH   5   6
ATOM      6  C   UNL     1      -0.056  -0.058   2.152  0.00  0.00    +0.200 C 
ATOM      7  O   UNL     1      -0.832  -0.648   2.874  0.00  0.00    -0.278 OA
ATOM      8  N   UNL     1       1.144   0.331   2.629  0.00  0.00    -0.299 N 
ATOM      9  H   UNL     1       1.765   0.803   2.052  0.00  0.00    +0.150 HD
BRANCH   8  10
ATOM     10  C   UNL     1       1.510   0.041   4.017  0.00  0.00    +0.121 C 
ATOM     11  C   UNL     1       0.505   0.707   4.959  0.00  0.00    +0.041 C 
ATOM     12  C   UNL     1       0.887   0.404   6.409  0.00  0.00    +0.003 C 
ATOM     13  C   UNL     1       2.288   0.949   6.692  0.00  0.00    +0.000 C 
ATOM     14  C   UNL     1       3.293   0.283   5.750  0.00  0.00    +0.003 C 
ATOM     15  C   UNL     1       2.911   0.586   4.300  0.00  0.00    +0.041 C 
BRANCH  10  16
ATOM     16  C   UNL     1       1.496  -1.415   4.235  0.00  0.00    +0.088 C 
ATOM     17  N   UNL     1       1.485  -2.538   4.402  0.00  0.00    -0.194 NA
ENDBRANCH  10  16
ENDBRANCH   8  10
ENDBRANCH   5   6
ENDBRANCH   1   5
BRANCH   1  18
ATOM     18  C   UNL     1      -2.098  -0.099  -0.969  0.00  0.00    -0.070 C 
BRANCH  18  19
ATOM     19  C   UNL     1      -3.442  -0.760  -1.279  0.00  0.00    -0.015 C 
ATOM     20  C   UNL     1      -3.848  -0.443  -2.722  0.00  0.00    +0.038 C 
ATOM     21  C   UNL     1      -4.042   1.068  -2.869  0.00  0.00    +0.160 C 
ATOM     22  O   UNL     1      -5.027   1.514  -1.935  0.00  0.00    -0.380 OA
ATOM     23  C   UNL     1      -4.680   1.287  -0.568  0.00  0.00    +0.160 C 
ATOM     24  C   UNL     1      -4.512  -0.216  -0.328  0.00  0.00    +0.038 C 
BRANCH  19  25
ATOM     25  C   UNL     1      -3.322  -2.252  -1.103  0.00  0.00    -0.043 A 
ATOM     26  C   UNL     1      -2.092  -2.818  -0.827  0.00  0.00    +0.007 A 
ATOM     27  C   UNL     1      -1.982  -4.186  -0.665  0.00  0.00    +0.038 A 
ATOM     28  C   UNL     1      -3.104  -4.989  -0.779  0.00  0.00    +0.123 A 
ATOM     29  C   UNL     1      -4.335  -4.421  -1.056  0.00  0.00    +0.038 A 
ATOM     30  C   UNL     1      -4.444  -3.052  -1.213  0.00  0.00    +0.007 A 
ATOM     31  F   UNL     1      -2.997  -6.327  -0.622  0.00  0.00    -0.205 F 
ENDBRANCH  19  25
ENDBRANCH  18  19
ENDBRANCH   1  18
TORSDOF 7
