REMARK  Name = ZINC06181471
REMARK  11 active torsions:
REMARK  status: ('A' for Active; 'I' for Inactive)
REMARK    1  A    between atoms: C_1  and  C_2
REMARK    2  A    between atoms: C_6  and  C_8
REMARK    3  A    between atoms: C_8  and  C_9
REMARK    4  A    between atoms: C_9  and  N_10
REMARK    5  A    between atoms: C_11  and  C_13
REMARK    6  A    between atoms: C_19  and  S_24
REMARK    7  A    between atoms: S_24  and  N_27
REMARK    8  A    between atoms: N_27  and  C_28
REMARK    9  A    between atoms: C_31  and  C_34
REMARK   10  A    between atoms: C_34  and  C_35
REMARK   11  A    between atoms: C_34  and  C_36
REMARK                            x       y       z     vdW  Elec       q    Type
REMARK                         _______ _______ _______ _____ _____    ______ ____
ROOT
ATOM      1  C   UNL     1       0.241  10.325  -1.797  0.00  0.00    +0.100 A 
ATOM      2  C   UNL     1       0.294  11.230  -0.724  0.00  0.00    +0.100 A 
ATOM      3  N   UNL     1       0.248  12.524  -0.916  0.00  0.00    -0.360 N 
ATOM      4  C   UNL     1       0.150  13.056  -2.142  0.00  0.00    +0.050 A 
ATOM      5  C   UNL     1       0.104  14.448  -2.319  0.00  0.00    +0.028 A 
ATOM      6  C   UNL     1      -0.001  14.968  -3.574  0.00  0.00    +0.031 A 
ATOM      7  C   UNL     1      -0.064  14.140  -4.691  0.00  0.00    +0.109 A 
ATOM      8  C   UNL     1      -0.022  12.784  -4.558  0.00  0.00    +0.042 A 
ATOM      9  C   UNL     1       0.086  12.216  -3.280  0.00  0.00    +0.048 A 
ATOM     10  C   UNL     1       0.133  10.815  -3.103  0.00  0.00    +0.202 A 
ATOM     11  O   UNL     1       0.075   9.975  -4.162  0.00  0.00    -0.286 OA
ATOM     12  H   UNL     1       0.287  13.133  -0.124  0.00  0.00    +0.165 HD
ENDROOT
BRANCH   1  14
ATOM     13  N   UNL     1       0.410   8.409  -0.288  0.00  0.00    -0.311 N 
ATOM     14  C   UNL     1       0.300   8.873  -1.548  0.00  0.00    +0.249 C 
ATOM     15  O   UNL     1       0.249   8.095  -2.481  0.00  0.00    -0.270 OA
ATOM     16  H   UNL     1       0.451   9.030   0.456  0.00  0.00    +0.149 HD
BRANCH  13  17
ATOM     17  C   UNL     1       0.469   6.966  -0.041  0.00  0.00    +0.109 C 
BRANCH  17  18
ATOM     18  C   UNL     1       0.592   6.711   1.462  0.00  0.00    +0.054 C 
BRANCH  18  24
ATOM     19  C   UNL     1      -1.730   2.372   2.374  0.00  0.00    +0.044 C 
ATOM     20  C   UNL     1      -0.459   3.151   2.152  0.00  0.00    -0.050 A 
ATOM     21  C   UNL     1       0.762   2.503   2.182  0.00  0.00    +0.003 A 
ATOM     22  C   UNL     1       1.928   3.216   1.973  0.00  0.00    +0.001 A 
ATOM     23  C   UNL     1       1.873   4.578   1.740  0.00  0.00    +0.004 A 
ATOM     24  C   UNL     1       0.652   5.226   1.716  0.00  0.00    -0.046 A 
ATOM     25  C   UNL     1      -0.514   4.513   1.925  0.00  0.00    +0.007 A 
ENDBRANCH  18  24
ENDBRANCH  17  18
ENDBRANCH  13  17
ENDBRANCH   1  14
BRANCH   7  26
ATOM     26  S   UNL     1      -0.201  14.853  -6.297  0.00  0.00    +0.072 S 
ATOM     27  O   UNL     1       0.210  16.208  -6.176  0.00  0.00    -0.150 OA
ATOM     28  O   UNL     1       0.420  13.946  -7.198  0.00  0.00    -0.150 OA
BRANCH  26  29
ATOM     29  N   UNL     1      -1.810  14.879  -6.685  0.00  0.00    -0.216 N 
ATOM     30  H   UNL     1      -2.136  14.362  -7.439  0.00  0.00    +0.174 HD
BRANCH  29  31
ATOM     31  C   UNL     1      -2.699  15.646  -5.928  0.00  0.00    +0.048 A 
ATOM     32  C   UNL     1      -3.578  15.027  -5.048  0.00  0.00    +0.025 A 
ATOM     33  C   UNL     1      -4.452  15.788  -4.298  0.00  0.00    +0.006 A 
ATOM     34  C   UNL     1      -4.460  17.165  -4.429  0.00  0.00    -0.045 A 
ATOM     35  C   UNL     1      -3.591  17.784  -5.309  0.00  0.00    +0.006 A 
ATOM     36  C   UNL     1      -2.711  17.029  -6.058  0.00  0.00    +0.025 A 
BRANCH  34  37
ATOM     37  C   UNL     1      -5.419  17.992  -3.613  0.00  0.00    +0.013 C 
ATOM     38  C   UNL     1      -6.856  17.580  -3.940  0.00  0.00    +0.012 C 
ATOM     39  C   UNL     1      -5.150  17.764  -2.124  0.00  0.00    +0.012 C 
ENDBRANCH  34  37
ENDBRANCH  29  31
ENDBRANCH  26  29
ENDBRANCH   7  26
TORSDOF 8
