REMARK  Name = ZINC60016475
REMARK  9 active torsions:
REMARK  status: ('A' for Active; 'I' for Inactive)
REMARK    1  A    between atoms: C_1  and  C_2
REMARK    2  A    between atoms: N_4  and  C_5
REMARK    3  A    between atoms: C_5  and  C_12
REMARK    4  A    between atoms: C_14  and  C_17
REMARK    5  A    between atoms: C_17  and  C_18
REMARK    6  A    between atoms: C_18  and  C_19
REMARK    7  A    between atoms: N_21  and  C_22
REMARK    8  A    between atoms: C_27  and  S_28
REMARK    9  A    between atoms: S_28  and  C_29
REMARK                            x       y       z     vdW  Elec       q    Type
REMARK                         _______ _______ _______ _____ _____    ______ ____
ROOT
ATOM      1  C   UNL     1       4.366  -3.897   1.885  0.00  0.00    +0.108 C 
ENDROOT
BRANCH   1   4
ATOM      2  C   UNL     1       2.371  -3.639  -1.131  0.00  0.00    +0.195 A 
ATOM      3  N   UNL     1       2.792  -3.206   0.063  0.00  0.00    -0.194 NA
ATOM      4  C   UNL     1       3.664  -4.039   0.559  0.00  0.00    +0.228 A 
ATOM      5  O   UNL     1       3.829  -5.042  -0.312  0.00  0.00    -0.338 OA
ATOM      6  N   UNL     1       2.969  -4.762  -1.407  0.00  0.00    -0.059 NA
BRANCH   2   7
ATOM      7  C   UNL     1       1.363  -2.944  -2.009  0.00  0.00    +0.097 C 
ATOM      8  C   UNL     1       0.044  -2.787  -1.225  0.00  0.00    +0.034 C 
ATOM      9  C   UNL     1      -0.762  -1.687  -1.862  0.00  0.00    +0.003 C 
ATOM     10  C   UNL     1      -1.773  -2.220  -2.895  0.00  0.00    +0.000 C 
ATOM     11  C   UNL     1      -1.188  -3.334  -3.784  0.00  0.00    +0.000 C 
ATOM     12  C   UNL     1       0.221  -3.040  -4.222  0.00  0.00    +0.003 C 
ATOM     13  C   UNL     1       1.193  -3.715  -3.232  0.00  0.00    +0.034 C 
BRANCH   7  17
ATOM     14  C   UNL     1       2.634   0.656  -1.736  0.00  0.00    +0.109 C 
ATOM     15  C   UNL     1       2.111  -0.712  -1.382  0.00  0.00    +0.211 C 
ATOM     16  O   UNL     1       1.905  -1.001  -0.222  0.00  0.00    -0.276 OA
ATOM     17  N   UNL     1       1.872  -1.614  -2.354  0.00  0.00    -0.303 N 
ATOM     18  H   UNL     1       2.036  -1.383  -3.281  0.00  0.00    +0.150 HD
ENDBRANCH   7  17
ENDBRANCH   2   7
ENDBRANCH   1   4
BRANCH   1  19
ATOM     19  C   UNL     1       3.539  -4.581   2.976  0.00  0.00    +0.105 C 
BRANCH  19  20
ATOM     20  C   UNL     1       4.241  -4.439   4.302  0.00  0.00    +0.218 C 
ATOM     21  O   UNL     1       5.298  -3.848   4.368  0.00  0.00    -0.275 OA
ATOM     22  N   UNL     1       3.693  -4.968   5.414  0.00  0.00    -0.285 N 
ATOM     23  H   UNL     1       2.813  -5.375   5.375  0.00  0.00    +0.155 HD
BRANCH  22  24
ATOM     24  C   UNL     1       4.395  -4.931   6.626  0.00  0.00    +0.047 A 
ATOM     25  C   UNL     1       5.292  -3.904   6.879  0.00  0.00    +0.024 A 
ATOM     26  C   UNL     1       5.983  -3.868   8.076  0.00  0.00    +0.002 A 
ATOM     27  C   UNL     1       5.783  -4.855   9.024  0.00  0.00    +0.001 A 
ATOM     28  C   UNL     1       4.892  -5.883   8.781  0.00  0.00    +0.017 A 
ATOM     29  C   UNL     1       4.189  -5.923   7.584  0.00  0.00    +0.034 A 
BRANCH  29  30
ATOM     30  S   UNL     1       3.047  -7.228   7.274  0.00  0.00    -0.088 S 
BRANCH  30  31
ATOM     31  C   UNL     1       3.088  -8.191   8.749  0.00  0.00    +0.013 A 
ATOM     32  C   UNL     1       2.291  -7.841   9.832  0.00  0.00    +0.015 A 
ATOM     33  C   UNL     1       2.326  -8.598  10.987  0.00  0.00    +0.001 A 
ATOM     34  C   UNL     1       3.154  -9.703  11.066  0.00  0.00    +0.000 A 
ATOM     35  C   UNL     1       3.949 -10.055   9.990  0.00  0.00    +0.001 A 
ATOM     36  C   UNL     1       3.914  -9.306   8.830  0.00  0.00    +0.015 A 
ENDBRANCH  30  31
ENDBRANCH  29  30
ENDBRANCH  22  24
ENDBRANCH  19  20
ENDBRANCH   1  19
TORSDOF 8
