REMARK  Name = ZINC35538406
REMARK  10 active torsions:
REMARK  status: ('A' for Active; 'I' for Inactive)
REMARK    1  A    between atoms: C_1  and  C_2
REMARK    2  A    between atoms: C_5  and  C_38
REMARK    3  A    between atoms: N_8  and  C_10
REMARK    4  A    between atoms: C_10  and  C_11
REMARK    5  A    between atoms: C_11  and  C_12
REMARK    6  A    between atoms: C_12  and  N_13
REMARK    7  A    between atoms: C_14  and  C_16
REMARK    8  A    between atoms: C_16  and  C_37
REMARK    9  A    between atoms: N_28  and  C_29
REMARK   10  A    between atoms: C_29  and  C_30
REMARK                            x       y       z     vdW  Elec       q    Type
REMARK                         _______ _______ _______ _____ _____    ______ ____
ROOT
ATOM      1  C   UNL     1       2.255   1.166   7.868  0.00  0.00    +0.129 C 
ATOM      2  C   UNL     1       3.075   0.631   9.042  0.00  0.00    +0.157 C 
ATOM      3  N   UNL     1       2.631  -0.731   9.357  0.00  0.00    -0.331 N 
ATOM      4  C   UNL     1       3.323  -1.775   9.892  0.00  0.00    +0.088 A 
ATOM      5  C   UNL     1       4.572  -2.229  10.381  0.00  0.00    +0.067 A 
ATOM      6  C   UNL     1       4.410  -3.506  10.767  0.00  0.00    +0.198 A 
ATOM      7  O   UNL     1       3.138  -3.881  10.551  0.00  0.00    -0.461 OA
ATOM      8  C   UNL     1       2.446  -2.852  10.016  0.00  0.00    +0.153 A 
ATOM      9  C   UNL     1       1.195  -2.439   9.533  0.00  0.00    +0.079 A 
ATOM     10  C   UNL     1       1.321  -1.144   9.126  0.00  0.00    +0.109 A 
ATOM     11  C   UNL     1       0.341  -0.232   8.523  0.00  0.00    +0.264 C 
ATOM     12  O   UNL     1      -0.843  -0.508   8.470  0.00  0.00    -0.268 OA
ATOM     13  N   UNL     1       0.825   0.932   8.030  0.00  0.00    -0.276 N 
ATOM     14  C   UNL     1       2.498   2.672   7.744  0.00  0.00    +0.043 C 
ENDROOT
BRANCH   1  16
ATOM     15  N   UNL     1       2.152  -0.664   6.208  0.00  0.00    -0.314 N 
ATOM     16  C   UNL     1       2.719   0.493   6.602  0.00  0.00    +0.238 C 
ATOM     17  O   UNL     1       3.603   0.992   5.939  0.00  0.00    -0.273 OA
ATOM     18  H   UNL     1       1.402  -1.030   6.702  0.00  0.00    +0.149 HD
BRANCH  15  19
ATOM     19  C   UNL     1       2.667  -1.369   5.031  0.00  0.00    +0.102 C 
BRANCH  19  20
ATOM     20  C   UNL     1       1.777  -2.576   4.729  0.00  0.00    +0.000 C 
BRANCH  20  21
ATOM     21  C   UNL     1       2.241  -3.240   3.431  0.00  0.00    -0.077 C 
BRANCH  21  27
ATOM     22  C   UNL     1      -1.036  -5.876   3.768  0.00  0.00    +0.005 C 
ATOM     23  C   UNL     1       0.371  -6.476   3.769  0.00  0.00    -0.031 C 
ATOM     24  C   UNL     1       0.677  -7.064   2.388  0.00  0.00    +0.003 C 
ATOM     25  C   UNL     1       0.666  -5.937   1.351  0.00  0.00    -0.031 C 
ATOM     26  C   UNL     1       1.677  -4.864   1.761  0.00  0.00    -0.076 C 
ATOM     27  N   UNL     1       1.315  -4.323   3.077  0.00  0.00    +0.380 N 
ATOM     28  C   UNL     1       1.393  -5.383   4.090  0.00  0.00    -0.076 C 
ATOM     29  C   UNL     1       1.047  -6.501  -0.020  0.00  0.00    +0.005 C 
ATOM     30  H   UNL     1       0.374  -3.960   3.043  0.00  0.00    -0.082 HD
ENDBRANCH  21  27
ENDBRANCH  20  21
ENDBRANCH  19  20
ENDBRANCH  15  19
ENDBRANCH   1  16
BRANCH  13  31
ATOM     31  C   UNL     1      -0.116   1.987   7.646  0.00  0.00    +0.144 C 
BRANCH  31  32
ATOM     32  C   UNL     1      -0.591   1.749   6.236  0.00  0.00    -0.030 A 
ATOM     33  C   UNL     1       0.159   2.207   5.168  0.00  0.00    +0.006 A 
ATOM     34  C   UNL     1      -0.276   1.990   3.874  0.00  0.00    +0.020 A 
ATOM     35  C   UNL     1      -1.461   1.313   3.648  0.00  0.00    +0.041 A 
ATOM     36  C   UNL     1      -2.210   0.855   4.716  0.00  0.00    +0.020 A 
ATOM     37  C   UNL     1      -1.772   1.068   6.010  0.00  0.00    +0.006 A 
ATOM     38 CL   UNL     1      -2.007   1.039   2.023  0.00  0.00    -0.084 Cl
ENDBRANCH  31  32
ENDBRANCH  13  31
TORSDOF 7
