REMARK  Name = ZINC21244196
REMARK  8 active torsions:
REMARK  status: ('A' for Active; 'I' for Inactive)
REMARK    1  A    between atoms: C_1  and  C_2
REMARK    2  A    between atoms: C_8  and  N_10
REMARK    3  A    between atoms: C_11  and  C_13
REMARK    4  A    between atoms: C_13  and  C_15
REMARK    5  A    between atoms: C_13  and  O_16
REMARK    6  A    between atoms: O_16  and  C_17
REMARK    7  A    between atoms: C_17  and  C_19
REMARK    8  A    between atoms: C_28  and  C_31
REMARK                            x       y       z     vdW  Elec       q    Type
REMARK                         _______ _______ _______ _____ _____    ______ ____
ROOT
ATOM      1  C   UNL     1       1.300   6.945  -3.035  0.00  0.00    +0.340 C 
ATOM      2  O   UNL     1       0.242   7.542  -3.004  0.00  0.00    -0.245 OA
ENDROOT
BRANCH   1   3
ATOM      3  C   UNL     1       2.449   7.518  -3.759  0.00  0.00    +0.061 A 
ATOM      4  C   UNL     1       3.666   6.830  -3.794  0.00  0.00    +0.016 A 
ATOM      5  C   UNL     1       4.736   7.368  -4.473  0.00  0.00    +0.017 A 
ATOM      6  C   UNL     1       4.607   8.589  -5.121  0.00  0.00    +0.030 A 
ATOM      7  C   UNL     1       3.397   9.291  -5.091  0.00  0.00    +0.048 A 
ATOM      8  C   UNL     1       2.318   8.745  -4.414  0.00  0.00    +0.039 A 
ATOM      9  N   UNL     1       3.252  10.520  -5.730  0.00  0.00    -0.284 N 
ATOM     10  C   UNL     1       4.002  10.983  -6.726  0.00  0.00    +0.230 C 
ATOM     11  O   UNL     1       3.739  12.076  -7.181  0.00  0.00    -0.274 OA
ATOM     12  C   UNL     1       5.160  10.227  -7.318  0.00  0.00    +0.134 C 
ATOM     13  S   UNL     1       5.975   9.277  -6.000  0.00  0.00    -0.111 S 
ATOM     14  C   UNL     1       4.650   9.271  -8.398  0.00  0.00    +0.029 C 
ATOM     15  H   UNL     1       2.456  11.212  -5.417  0.00  0.00    +0.155 HD
ENDBRANCH   1   3
BRANCH   1  16
ATOM     16  O   UNL     1       1.423   5.759  -2.408  0.00  0.00    -0.449 OA
BRANCH  16  17
ATOM     17  C   UNL     1       0.251   5.255  -1.715  0.00  0.00    +0.259 C 
ATOM     18  C   UNL     1       0.258   5.757  -0.270  0.00  0.00    +0.062 C 
BRANCH  17  20
ATOM     19  N   UNL     1      -0.773   3.058  -1.224  0.00  0.00    -0.309 N 
ATOM     20  C   UNL     1       0.271   3.748  -1.723  0.00  0.00    +0.254 C 
ATOM     21  O   UNL     1       1.227   3.157  -2.179  0.00  0.00    -0.272 OA
ATOM     22  H   UNL     1      -1.639   3.594  -0.810  0.00  0.00    +0.149 HD
BRANCH  19  29
ATOM     23  C   UNL     1      -2.928   1.570  -2.460  0.00  0.00    +0.009 C 
ATOM     24  C   UNL     1      -2.188   1.063  -1.221  0.00  0.00    +0.006 C 
ATOM     25  C   UNL     1      -2.904   1.556   0.038  0.00  0.00    +0.005 C 
ATOM     26  C   UNL     1      -2.164   1.050   1.278  0.00  0.00    +0.000 C 
ATOM     27  C   UNL     1      -0.729   1.579   1.267  0.00  0.00    +0.002 C 
ATOM     28  C   UNL     1      -0.013   1.086   0.008  0.00  0.00    +0.022 C 
ATOM     29  C   UNL     1      -0.753   1.593  -1.232  0.00  0.00    +0.076 C 
ENDBRANCH  19  29
ENDBRANCH  17  20
ENDBRANCH  16  17
ENDBRANCH   1  16
TORSDOF 5
