REMARK  Name = ZINC13963626
REMARK  6 active torsions:
REMARK  status: ('A' for Active; 'I' for Inactive)
REMARK    1  A    between atoms: C_2  and  C_3
REMARK    2  A    between atoms: C_3  and  N_4
REMARK    3  A    between atoms: N_13  and  C_14
REMARK    4  A    between atoms: C_14  and  C_16
REMARK    5  A    between atoms: N_22  and  S_23
REMARK    6  A    between atoms: S_23  and  C_26
REMARK                            x       y       z     vdW  Elec       q    Type
REMARK                         _______ _______ _______ _____ _____    ______ ____
ROOT
ATOM      1  C   UNL     1       2.942   7.730  -0.149  0.00  0.00    +0.257 C 
ATOM      2  O   UNL     1       3.475   7.022  -0.982  0.00  0.00    -0.272 OA
ENDROOT
BRANCH   1  12
ATOM      3  N   UNL     1       0.859   5.222   1.381  0.00  0.00    -0.317 N 
ATOM      4  C   UNL     1       0.665   3.871   1.157  0.00  0.00    +0.058 A 
ATOM      5  C   UNL     1      -0.191   2.990   1.835  0.00  0.00    +0.030 A 
ATOM      6  C   UNL     1      -0.265   1.665   1.476  0.00  0.00    +0.040 A 
ATOM      7  C   UNL     1       0.509   1.156   0.444  0.00  0.00    +0.125 A 
ATOM      8  C   UNL     1       1.363   2.005  -0.242  0.00  0.00    +0.055 A 
ATOM      9  C   UNL     1       1.432   3.331   0.114  0.00  0.00    +0.042 A 
ATOM     10  S   UNL     1       2.359   4.725  -0.475  0.00  0.00    -0.052 S 
ATOM     11  C   UNL     1       1.739   5.921   0.617  0.00  0.00    +0.167 A 
ATOM     12  N   UNL     1       2.050   7.214   0.689  0.00  0.00    -0.155 NA
ATOM     13  F   UNL     1       0.428  -0.150   0.107  0.00  0.00    -0.205 F 
BRANCH   3  14
ATOM     14  C   UNL     1       0.114   5.901   2.445  0.00  0.00    +0.151 C 
BRANCH  14  16
ATOM     15  C   UNL     1      -2.319   6.107   2.446  0.00  0.00    +0.005 C 
ATOM     16  C   UNL     1      -1.181   6.436   1.888  0.00  0.00    -0.013 C 
ENDBRANCH  14  16
ENDBRANCH   3  14
ENDBRANCH   1  12
BRANCH   1  17
ATOM     17  C   UNL     1       3.294   9.193  -0.067  0.00  0.00    +0.167 C 
ATOM     18  C   UNL     1       2.888   9.893  -1.368  0.00  0.00    +0.030 C 
ATOM     19  C   UNL     1       3.372  11.344  -1.335  0.00  0.00    +0.003 C 
ATOM     20  C   UNL     1       4.898  11.372  -1.229  0.00  0.00    +0.017 C 
ATOM     21  C   UNL     1       5.328  10.689   0.074  0.00  0.00    +0.110 C 
ATOM     22  N   UNL     1       4.744   9.341   0.119  0.00  0.00    -0.164 NA
BRANCH  22  23
ATOM     23  S   UNL     1       5.702   8.015   0.372  0.00  0.00    +0.068 S 
ATOM     24  O   UNL     1       6.852   8.471   1.071  0.00  0.00    -0.152 OA
ATOM     25  O   UNL     1       4.856   6.994   0.882  0.00  0.00    -0.152 OA
BRANCH  23  26
ATOM     26  C   UNL     1       6.258   7.465  -1.207  0.00  0.00    +0.144 A 
ATOM     27  C   UNL     1       7.371   7.824  -1.892  0.00  0.00    +0.038 A 
ATOM     28  C   UNL     1       7.609   7.257  -3.131  0.00  0.00    +0.030 A 
ATOM     29  C   UNL     1       6.720   6.358  -3.623  0.00  0.00    +0.080 A 
ATOM     30  S   UNL     1       5.505   6.286  -2.316  0.00  0.00    -0.057 S 
ATOM     31 CL   UNL     1       6.757   5.496  -5.129  0.00  0.00    -0.076 Cl
ENDBRANCH  23  26
ENDBRANCH  22  23
ENDBRANCH   1  17
TORSDOF 6
