REMARK  Name = ZINC67214449
REMARK  7 active torsions:
REMARK  status: ('A' for Active; 'I' for Inactive)
REMARK    1  A    between atoms: C_1  and  C_2
REMARK    2  A    between atoms: C_5  and  C_7
REMARK    3  A    between atoms: C_10  and  C_12
REMARK    4  A    between atoms: C_12  and  N_13
REMARK    5  A    between atoms: N_13  and  C_14
REMARK    6  A    between atoms: C_14  and  C_15
REMARK    7  A    between atoms: C_20  and  C_21
REMARK                            x       y       z     vdW  Elec       q    Type
REMARK                         _______ _______ _______ _____ _____    ______ ____
ROOT
ATOM      1  C   UNL     1       1.069   6.404   4.654  0.00  0.00    -0.016 A 
ATOM      2  C   UNL     1       2.114   7.249   4.788  0.00  0.00    +0.107 A 
ATOM      3  N   UNL     1       1.839   8.369   4.084  0.00  0.00    -0.284 N 
ATOM      4  H   UNL     1       2.414   9.145   4.003  0.00  0.00    +0.188 HD
ATOM      5  N   UNL     1       0.579   8.214   3.491  0.00  0.00    -0.171 NA
ATOM      6  C   UNL     1       0.112   7.028   3.827  0.00  0.00    +0.129 A 
ENDROOT
BRANCH   6   7
ATOM      7  C   UNL     1      -1.186   6.455   3.412  0.00  0.00    +0.156 A 
ATOM      8  C   UNL     1      -2.326   7.162   3.228  0.00  0.00    +0.060 A 
ATOM      9  C   UNL     1      -3.346   6.191   2.825  0.00  0.00    +0.021 A 
ATOM     10  C   UNL     1      -4.699   6.281   2.495  0.00  0.00    +0.011 A 
ATOM     11  C   UNL     1      -5.390   5.152   2.153  0.00  0.00    +0.001 A 
ATOM     12  C   UNL     1      -4.754   3.919   2.132  0.00  0.00    +0.004 A 
ATOM     13  C   UNL     1      -3.418   3.810   2.455  0.00  0.00    +0.047 A 
ATOM     14  C   UNL     1      -2.696   4.944   2.805  0.00  0.00    +0.136 A 
ATOM     15  O   UNL     1      -1.411   5.151   3.156  0.00  0.00    -0.453 OA
ENDBRANCH   6   7
BRANCH   1  16
ATOM     16  C   UNL     1       0.950   5.035   5.273  0.00  0.00    -0.042 C 
BRANCH  16  17
ATOM     17  N   UNL     1       1.288   4.014   4.272  0.00  0.00    +0.386 N 
ATOM     18  H   UNL     1       2.234   4.157   3.952  0.00  0.00    -0.085 HD
ATOM     19  H   UNL     1       0.654   4.086   3.490  0.00  0.00    -0.085 HD
BRANCH  17  20
ATOM     20  C   UNL     1       1.172   2.680   4.875  0.00  0.00    -0.006 C 
BRANCH  20  24
ATOM     21  C   UNL     1       1.314   0.159   2.237  0.00  0.00    +0.108 A 
ATOM     22  C   UNL     1       2.614   0.183   2.579  0.00  0.00    +0.045 A 
ATOM     23  C   UNL     1       2.747   1.133   3.619  0.00  0.00    +0.043 A 
ATOM     24  C   UNL     1       1.519   1.633   3.849  0.00  0.00    +0.088 A 
ATOM     25  O   UNL     1       0.656   1.043   3.005  0.00  0.00    -0.466 OA
BRANCH  21  29
ATOM     26  C   UNL     1      -0.019   1.526   0.010  0.00  0.00    +0.008 C 
ATOM     27  C   UNL     1       0.002  -0.004   0.002  0.00  0.00    -0.003 C 
ATOM     28  C   UNL     1      -0.828  -0.728   1.065  0.00  0.00    +0.015 C 
ATOM     29  C   UNL     1       0.700  -0.708   1.168  0.00  0.00    +0.058 C 
ENDBRANCH  21  29
ENDBRANCH  20  24
ENDBRANCH  17  20
ENDBRANCH  16  17
ENDBRANCH   1  16
TORSDOF 6
