REMARK  Name = ZINC36751686
REMARK  3 active torsions:
REMARK  status: ('A' for Active; 'I' for Inactive)
REMARK    1  A    between atoms: C_3  and  N_12
REMARK    2  A    between atoms: C_8  and  N_11
REMARK    3  A    between atoms: N_12  and  C_13
REMARK                            x       y       z     vdW  Elec       q    Type
REMARK                         _______ _______ _______ _____ _____    ______ ____
ROOT
ATOM      1  C   UNL     1       0.010   1.388  -0.434  0.00  0.00    +0.013 A 
ATOM      2  C   UNL     1       1.195   2.054  -0.343  0.00  0.00    +0.044 A 
ATOM      3  C   UNL     1       2.380   1.341  -0.112  0.00  0.00    +0.124 A 
ATOM      4  N   UNL     1       2.381   0.031   0.021  0.00  0.00    -0.232 NA
ATOM      5  C   UNL     1       1.249  -0.677  -0.060  0.00  0.00    +0.073 A 
ATOM      6  C   UNL     1       0.018  -0.015  -0.291  0.00  0.00    +0.002 A 
ATOM      7  C   UNL     1      -1.167  -0.760  -0.375  0.00  0.00    +0.032 A 
ATOM      8  C   UNL     1      -1.119  -2.130  -0.231  0.00  0.00    +0.025 A 
ATOM      9  C   UNL     1       0.100  -2.778  -0.002  0.00  0.00    +0.025 A 
ATOM     10  C   UNL     1       1.261  -2.075   0.082  0.00  0.00    +0.030 A 
ENDROOT
BRANCH   8  11
ATOM     11  N   UNL     1      -2.297  -2.878  -0.313  0.00  0.00    -0.358 N 
ATOM     12  H   UNL     1      -3.144  -2.432  -0.471  0.00  0.00    +0.142 HD
ATOM     13  H   UNL     1      -2.267  -3.842  -0.212  0.00  0.00    +0.142 HD
ENDBRANCH   8  11
BRANCH   3  14
ATOM     14  N   UNL     1       3.580   2.033  -0.022  0.00  0.00    -0.297 N 
ATOM     15  H   UNL     1       3.582   3.003  -0.021  0.00  0.00    +0.154 HD
BRANCH  14  16
ATOM     16  C   UNL     1       4.787   1.331   0.069  0.00  0.00    +0.069 A 
ATOM     17  C   UNL     1       4.914   0.085  -0.530  0.00  0.00    +0.041 A 
ATOM     18  C   UNL     1       6.108  -0.606  -0.439  0.00  0.00    +0.020 A 
ATOM     19  C   UNL     1       7.176  -0.057   0.247  0.00  0.00    +0.018 A 
ATOM     20  C   UNL     1       7.055   1.184   0.845  0.00  0.00    +0.041 A 
ATOM     21  C   UNL     1       5.865   1.883   0.753  0.00  0.00    +0.145 A 
ATOM     22  F   UNL     1       5.748   3.098   1.333  0.00  0.00    -0.204 F 
ATOM     23 BR   UNL     1       6.280  -2.303  -1.254  0.00  0.00    -0.050 Br
ENDBRANCH  14  16
ENDBRANCH   3  14
TORSDOF 3
