REMARK  Name = ZINC51968277
REMARK  6 active torsions:
REMARK  status: ('A' for Active; 'I' for Inactive)
REMARK    1  A    between atoms: C_1  and  O_2
REMARK    2  A    between atoms: O_2  and  C_3
REMARK    3  A    between atoms: C_6  and  C_9
REMARK    4  A    between atoms: C_9  and  C_11
REMARK    5  A    between atoms: C_9  and  O_24
REMARK    6  A    between atoms: C_11  and  N_12
REMARK                            x       y       z     vdW  Elec       q    Type
REMARK                         _______ _______ _______ _____ _____    ______ ____
ROOT
ATOM      1  N   UNL     1       4.606  -3.489  -5.151  0.00  0.00    -0.326 N 
ATOM      2  C   UNL     1       5.898  -3.955  -5.032  0.00  0.00    +0.130 A 
ATOM      3  C   UNL     1       6.589  -4.478  -6.153  0.00  0.00    +0.041 A 
ATOM      4  C   UNL     1       6.004  -4.546  -7.422  0.00  0.00    +0.013 A 
ATOM      5  C   UNL     1       6.718  -5.059  -8.465  0.00  0.00    +0.002 A 
ATOM      6  C   UNL     1       8.021  -5.515  -8.284  0.00  0.00    +0.017 A 
ATOM      7  C   UNL     1       8.620  -5.462  -7.059  0.00  0.00    +0.044 A 
ATOM      8  C   UNL     1       7.914  -4.940  -5.966  0.00  0.00    +0.090 A 
ATOM      9  N   UNL     1       8.456  -4.865  -4.741  0.00  0.00    -0.234 NA
ATOM     10  C   UNL     1       7.769  -4.371  -3.739  0.00  0.00    +0.224 A 
ATOM     11  N   UNL     1       6.530  -3.922  -3.867  0.00  0.00    -0.220 NA
ATOM     12 BR   UNL     1      10.391  -6.088  -6.838  0.00  0.00    -0.048 Br
ATOM     13  H   UNL     1       4.157  -3.520  -6.010  0.00  0.00    +0.148 HD
ENDROOT
BRANCH   1  14
ATOM     14  C   UNL     1       3.913  -2.947  -3.980  0.00  0.00    +0.139 C 
BRANCH  14  15
ATOM     15  C   UNL     1       2.505  -2.503  -4.381  0.00  0.00    +0.161 C 
BRANCH  15  19
ATOM     16  C   UNL     1       0.606  -0.607  -1.056  0.00  0.00    +0.120 A 
ATOM     17  C   UNL     1       1.173   0.161  -2.062  0.00  0.00    +0.046 A 
ATOM     18  C   UNL     1       1.786  -0.455  -3.136  0.00  0.00    +0.010 A 
ATOM     19  C   UNL     1       1.835  -1.835  -3.209  0.00  0.00    -0.017 A 
ATOM     20  C   UNL     1       1.270  -2.602  -2.207  0.00  0.00    +0.010 A 
ATOM     21  C   UNL     1       0.661  -1.992  -1.128  0.00  0.00    +0.046 A 
BRANCH  16  23
ATOM     22  C   UNL     1      -0.017   1.425   0.010  0.00  0.00    +0.277 C 
ATOM     23  O   UNL     1       0.002  -0.004   0.002  0.00  0.00    -0.495 OA
ENDBRANCH  16  23
ENDBRANCH  15  19
BRANCH  15  24
ATOM     24  O   UNL     1       1.741  -3.644  -4.779  0.00  0.00    -0.386 OA
ATOM     25  H   UNL     1       1.643  -4.312  -4.088  0.00  0.00    +0.210 HD
ENDBRANCH  15  24
ENDBRANCH  14  15
ENDBRANCH   1  14
TORSDOF 5
