REMARK  Name = ZINC08868865
REMARK  8 active torsions:
REMARK  status: ('A' for Active; 'I' for Inactive)
REMARK    1  A    between atoms: C_1  and  C_2
REMARK    2  A    between atoms: C_2  and  C_3
REMARK    3  A    between atoms: C_2  and  N_60
REMARK    4  A    between atoms: C_9  and  N_14
REMARK    5  A    between atoms: C_10  and  C_11
REMARK    6  A    between atoms: C_15  and  C_17
REMARK    7  A    between atoms: N_22  and  S_23
REMARK    8  A    between atoms: S_23  and  C_26
REMARK                            x       y       z     vdW  Elec       q    Type
REMARK                         _______ _______ _______ _____ _____    ______ ____
ROOT
ATOM      1  N   UNL     1      -1.638   2.575   7.101  0.00  0.00    -0.278 N 
ATOM      2  C   UNL     1      -1.077   2.095   8.229  0.00  0.00    +0.236 C 
ATOM      3  O   UNL     1      -0.072   1.420   8.166  0.00  0.00    -0.274 OA
ATOM      4  H   UNL     1      -2.442   3.115   7.151  0.00  0.00    +0.155 HD
ENDROOT
BRANCH   1  10
ATOM      5  C   UNL     1       0.235   2.364   1.183  0.00  0.00    -0.073 C 
ATOM      6  C   UNL     1      -1.024   2.611   2.019  0.00  0.00    +0.018 C 
ATOM      7  C   UNL     1      -0.707   2.266   3.469  0.00  0.00    -0.027 A 
ATOM      8  C   UNL     1       0.373   1.507   3.765  0.00  0.00    -0.021 A 
ATOM      9  S   UNL     1       0.355   1.365   5.528  0.00  0.00    -0.079 S 
ATOM     10  C   UNL     1      -1.066   2.296   5.869  0.00  0.00    +0.084 A 
ATOM     11  C   UNL     1      -1.493   2.696   4.610  0.00  0.00    +0.068 A 
ATOM     12  C   UNL     1       1.349   0.931   2.788  0.00  0.00    -0.035 C 
ATOM     13  N   UNL     1       0.734   0.997   1.440  0.00  0.00    +0.384 N 
ATOM     14  H   UNL     1      -0.055   0.341   1.400  0.00  0.00    -0.081 HD
BRANCH  11  15
ATOM     15  C   UNL     1      -2.692   3.523   4.439  0.00  0.00    +0.244 C 
ATOM     16  O   UNL     1      -3.779   2.995   4.291  0.00  0.00    -0.270 OA
ATOM     17  N   UNL     1      -2.591   4.867   4.446  0.00  0.00    -0.325 N 
ATOM     18  H   UNL     1      -1.725   5.287   4.564  0.00  0.00    +0.145 HD
ATOM     19  H   UNL     1      -3.384   5.413   4.333  0.00  0.00    +0.145 HD
ENDBRANCH  11  15
BRANCH  13  21
ATOM     20  C   UNL     1       2.245  -0.788   0.712  0.00  0.00    -0.014 C 
ATOM     21  C   UNL     1       1.727   0.620   0.411  0.00  0.00    -0.074 C 
ATOM     22  C   UNL     1       2.897   1.604   0.411  0.00  0.00    -0.014 C 
ENDBRANCH  13  21
ENDBRANCH   1  10
BRANCH   2  23
ATOM     23  C   UNL     1      -1.699   2.398   9.568  0.00  0.00    +0.166 C 
ATOM     24  C   UNL     1      -1.130   3.721  10.123  0.00  0.00    +0.031 C 
ATOM     25  C   UNL     1      -0.990   3.425  11.642  0.00  0.00    +0.019 C 
ATOM     26  C   UNL     1      -0.589   1.929  11.635  0.00  0.00    +0.110 C 
ATOM     27  N   UNL     1      -1.361   1.337  10.527  0.00  0.00    -0.165 NA
BRANCH  27  28
ATOM     28  S   UNL     1      -1.779  -0.259  10.388  0.00  0.00    +0.062 S 
ATOM     29  O   UNL     1      -2.125  -0.471   9.026  0.00  0.00    -0.153 OA
ATOM     30  O   UNL     1      -0.760  -1.004  11.040  0.00  0.00    -0.153 OA
BRANCH  28  31
ATOM     31  C   UNL     1      -3.253  -0.495  11.324  0.00  0.00    +0.106 A 
ATOM     32  C   UNL     1      -3.176  -0.765  12.677  0.00  0.00    +0.031 A 
ATOM     33  C   UNL     1      -4.332  -0.946  13.413  0.00  0.00    +0.040 A 
ATOM     34  C   UNL     1      -5.567  -0.866  12.793  0.00  0.00    +0.124 A 
ATOM     35  C   UNL     1      -5.643  -0.600  11.436  0.00  0.00    +0.040 A 
ATOM     36  C   UNL     1      -4.486  -0.415  10.703  0.00  0.00    +0.031 A 
ATOM     37  F   UNL     1      -6.697  -1.047  13.510  0.00  0.00    -0.205 F 
ENDBRANCH  28  31
ENDBRANCH  27  28
ENDBRANCH   2  23
TORSDOF 6
