REMARK  Name = ZINC11776249
REMARK  7 active torsions:
REMARK  status: ('A' for Active; 'I' for Inactive)
REMARK    1  A    between atoms: C_1  and  C_2
REMARK    2  A    between atoms: C_3  and  N_14
REMARK    3  A    between atoms: C_7  and  C_13
REMARK    4  A    between atoms: C_8  and  C_12
REMARK    5  A    between atoms: C_15  and  C_17
REMARK    6  A    between atoms: C_17  and  O_18
REMARK    7  A    between atoms: O_18  and  C_19
REMARK                            x       y       z     vdW  Elec       q    Type
REMARK                         _______ _______ _______ _____ _____    ______ ____
ROOT
ATOM      1  N   UNL     1       3.423  -4.971  -0.058  0.00  0.00    -0.277 N 
ATOM      2  C   UNL     1       2.845  -4.230   0.907  0.00  0.00    +0.255 C 
ATOM      3  O   UNL     1       2.187  -4.768   1.774  0.00  0.00    -0.272 OA
ATOM      4  H   UNL     1       3.890  -4.537  -0.789  0.00  0.00    +0.155 HD
ENDROOT
BRANCH   1   7
ATOM      5  C   UNL     1       5.856  -6.465   0.061  0.00  0.00    +0.068 C 
ATOM      6  C   UNL     1       4.504  -7.130   0.052  0.00  0.00    +0.068 A 
ATOM      7  C   UNL     1       3.348  -6.375  -0.007  0.00  0.00    +0.121 A 
ATOM      8  C   UNL     1       2.103  -7.014  -0.021  0.00  0.00    +0.281 A 
ATOM      9  O   UNL     1       1.077  -6.355  -0.077  0.00  0.00    -0.265 OA
ATOM     10  N   UNL     1       2.038  -8.378   0.029  0.00  0.00    -0.257 N 
ATOM     11  C   UNL     1       0.898  -9.147   0.024  0.00  0.00    +0.036 A 
ATOM     12  C   UNL     1       0.966 -10.477   0.077  0.00  0.00    +0.010 A 
ATOM     13  S   UNL     1       2.729 -10.753   0.142  0.00  0.00    -0.054 S 
ATOM     14  C   UNL     1       3.233  -9.046   0.091  0.00  0.00    +0.181 A 
ATOM     15  N   UNL     1       4.401  -8.457   0.105  0.00  0.00    -0.226 NA
ATOM     16  C   UNL     1      -0.154 -11.486   0.081  0.00  0.00    +0.053 C 
ATOM     17  C   UNL     1      -0.449  -8.475  -0.044  0.00  0.00    +0.065 C 
ENDBRANCH   1   7
BRANCH   2  18
ATOM     18  C   UNL     1       3.014  -2.733   0.912  0.00  0.00    +0.325 C 
BRANCH  18  19
ATOM     19  O   UNL     1       2.313  -2.177   2.026  0.00  0.00    -0.481 OA
BRANCH  19  20
ATOM     20  C   UNL     1       2.365  -0.827   2.176  0.00  0.00    +0.141 A 
ATOM     21  C   UNL     1       3.076  -0.054   1.270  0.00  0.00    +0.068 A 
ATOM     22  C   UNL     1       3.128   1.319   1.425  0.00  0.00    +0.063 A 
ATOM     23  C   UNL     1       2.470   1.923   2.484  0.00  0.00    +0.061 A 
ATOM     24  C   UNL     1       1.760   1.153   3.388  0.00  0.00    +0.045 A 
ATOM     25  C   UNL     1       1.706  -0.220   3.237  0.00  0.00    +0.084 A 
ATOM     26 CL   UNL     1       0.815  -1.185   4.372  0.00  0.00    -0.080 Cl
ATOM     27 CL   UNL     1       2.536   3.647   2.676  0.00  0.00    -0.082 Cl
ATOM     28 CL   UNL     1       4.018   2.287   0.292  0.00  0.00    -0.082 Cl
ENDBRANCH  19  20
ENDBRANCH  18  19
ENDBRANCH   2  18
TORSDOF 4
