REMARK  Name = ZINC40173518
REMARK  12 active torsions:
REMARK  status: ('A' for Active; 'I' for Inactive)
REMARK    1  A    between atoms: C_1  and  C_2
REMARK    2  A    between atoms: C_2  and  C_3
REMARK    3  A    between atoms: C_3  and  C_5
REMARK    4  A    between atoms: C_3  and  N_27
REMARK    5  A    between atoms: N_7  and  C_8
REMARK    6  A    between atoms: C_9  and  C_23
REMARK    7  A    between atoms: C_10  and  C_13
REMARK    8  A    between atoms: C_23  and  O_25
REMARK    9  A    between atoms: O_25  and  C_26
REMARK   10  A    between atoms: C_31  and  S_32
REMARK   11  A    between atoms: S_32  and  C_33
REMARK   12  A    between atoms: C_33  and  C_34
REMARK                            x       y       z     vdW  Elec       q    Type
REMARK                         _______ _______ _______ _____ _____    ______ ____
ROOT
ATOM      1  C   UNL     1      -1.414  -2.036   0.129  0.00  0.00    +0.241 C 
ATOM      2  O   UNL     1      -1.912  -2.718  -0.742  0.00  0.00    -0.273 OA
ATOM      3  N   UNL     1      -0.842  -2.622   1.199  0.00  0.00    -0.278 N 
ATOM      4  H   UNL     1      -0.444  -2.077   1.895  0.00  0.00    +0.155 HD
ENDROOT
BRANCH   3   5
ATOM      5  C   UNL     1      -0.824  -4.004   1.306  0.00  0.00    +0.086 A 
ATOM      6  C   UNL     1      -0.290  -4.770   2.330  0.00  0.00    +0.095 A 
ATOM      7  C   UNL     1      -0.407  -6.211   2.191  0.00  0.00    +0.005 A 
ATOM      8  C   UNL     1      -1.032  -6.639   1.064  0.00  0.00    +0.056 A 
ATOM      9  S   UNL     1      -1.450  -5.126   0.227  0.00  0.00    -0.080 S 
BRANCH   7  10
ATOM     10  C   UNL     1       0.120  -7.150   3.210  0.00  0.00    -0.013 A 
ATOM     11  C   UNL     1       1.426  -7.013   3.678  0.00  0.00    +0.012 A 
ATOM     12  C   UNL     1       1.915  -7.888   4.625  0.00  0.00    +0.050 A 
ATOM     13  C   UNL     1       1.110  -8.907   5.117  0.00  0.00    +0.162 A 
ATOM     14  C   UNL     1      -0.195  -9.047   4.656  0.00  0.00    +0.163 A 
ATOM     15  C   UNL     1      -0.691  -8.168   3.707  0.00  0.00    +0.058 A 
ATOM     16  O   UNL     1      -1.000 -10.036   5.133  0.00  0.00    -0.485 OA
ATOM     17  C   UNL     1      -0.356 -11.120   5.810  0.00  0.00    +0.270 C 
ATOM     18  C   UNL     1       0.665 -10.534   6.794  0.00  0.00    +0.270 C 
ATOM     19  O   UNL     1       1.614  -9.762   6.049  0.00  0.00    -0.485 OA
ENDBRANCH   7  10
BRANCH   6  20
ATOM     20  C   UNL     1       0.358  -4.159   3.490  0.00  0.00    +0.342 C 
ATOM     21  O   UNL     1      -0.297  -3.878   4.475  0.00  0.00    -0.245 OA
BRANCH  20  22
ATOM     22  O   UNL     1       1.683  -3.907   3.467  0.00  0.00    -0.464 OA
ATOM     23  C   UNL     1       2.250  -3.309   4.635  0.00  0.00    +0.280 C 
ENDBRANCH  20  22
ENDBRANCH   6  20
ENDBRANCH   3   5
BRANCH   1  24
ATOM     24  C   UNL     1      -1.433  -0.534   0.013  0.00  0.00    +0.178 C 
BRANCH  24  25
ATOM     25  N   UNL     1      -2.105  -0.148  -1.230  0.00  0.00    -0.279 N 
ATOM     26  C   UNL     1      -1.721  -0.499  -2.493  0.00  0.00    +0.216 A 
ATOM     27  N   UNL     1      -2.568   0.034  -3.338  0.00  0.00    -0.113 NA
ATOM     28  N   UNL     1      -3.524   0.746  -2.602  0.00  0.00    -0.121 NA
ATOM     29  C   UNL     1      -3.231   0.621  -1.330  0.00  0.00    +0.194 A 
ATOM     30  N   UNL     1      -0.623  -1.284  -2.824  0.00  0.00    -0.328 N 
ATOM     31  H   UNL     1      -0.050  -1.635  -2.125  0.00  0.00    +0.145 HD
ATOM     32  H   UNL     1      -0.429  -1.480  -3.754  0.00  0.00    +0.145 HD
BRANCH  29  33
ATOM     33  S   UNL     1      -4.128   1.323   0.014  0.00  0.00    -0.071 S 
BRANCH  33  34
ATOM     34  C   UNL     1      -5.492   2.212  -0.786  0.00  0.00    +0.195 C 
BRANCH  34  35
ATOM     35  C   UNL     1      -6.329   2.853   0.241  0.00  0.00    +0.074 C 
ATOM     36  N   UNL     1      -6.975   3.348   1.033  0.00  0.00    -0.196 NA
ENDBRANCH  34  35
ENDBRANCH  33  34
ENDBRANCH  29  33
ENDBRANCH  24  25
BRANCH  24  38
ATOM     37  C   UNL     1      -0.019   1.526   0.010  0.00  0.00    +0.006 C 
ATOM     38  C   UNL     1       0.002  -0.004   0.002  0.00  0.00    +0.031 C 
ENDBRANCH  24  38
ENDBRANCH   1  24
TORSDOF 10
