REMARK  Name = ZINC63547669
REMARK  8 active torsions:
REMARK  status: ('A' for Active; 'I' for Inactive)
REMARK    1  A    between atoms: C_1  and  C_2
REMARK    2  A    between atoms: C_2  and  C_3
REMARK    3  A    between atoms: C_3  and  C_4
REMARK    4  A    between atoms: C_4  and  N_5
REMARK    5  A    between atoms: C_14  and  O_30
REMARK    6  A    between atoms: C_21  and  C_23
REMARK    7  A    between atoms: C_26  and  C_29
REMARK    8  A    between atoms: O_30  and  C_31
REMARK                            x       y       z     vdW  Elec       q    Type
REMARK                         _______ _______ _______ _____ _____    ______ ____
ROOT
ATOM      1  N   UNL     1       1.762  -2.325  -2.724  0.00  0.00    -0.299 N 
ATOM      2  C   UNL     1       1.755  -3.667  -2.846  0.00  0.00    +0.303 C 
ATOM      3  O   UNL     1       1.287  -4.355  -1.960  0.00  0.00    -0.253 OA
ATOM      4  N   UNL     1       2.267  -4.246  -3.950  0.00  0.00    -0.276 N 
ATOM      5  C   UNL     1       2.940  -3.419  -4.958  0.00  0.00    +0.114 C 
ATOM      6  C   UNL     1       4.380  -3.925  -5.158  0.00  0.00    +0.052 C 
ATOM      7  C   UNL     1       4.299  -5.428  -5.266  0.00  0.00    -0.035 C 
ATOM      8  C   UNL     1       4.774  -6.269  -6.176  0.00  0.00    +0.003 A 
ATOM      9  C   UNL     1       5.639  -6.064  -7.347  0.00  0.00    +0.055 A 
ATOM     10  C   UNL     1       5.924  -7.165  -8.096  0.00  0.00    +0.121 A 
ATOM     11  C   UNL     1       5.444  -8.452  -7.813  0.00  0.00    +0.047 A 
ATOM     12  C   UNL     1       4.648  -8.754  -6.756  0.00  0.00    +0.029 A 
ATOM     13  C   UNL     1       4.278  -7.646  -5.865  0.00  0.00    +0.043 A 
ATOM     14  N   UNL     1       3.560  -7.638  -4.783  0.00  0.00    -0.375 N 
ATOM     15  C   UNL     1       3.561  -6.279  -4.239  0.00  0.00    +0.131 C 
ATOM     16  C   UNL     1       2.151  -5.702  -4.129  0.00  0.00    +0.134 C 
ATOM     17  H   UNL     1       2.200  -1.779  -3.396  0.00  0.00    +0.150 HD
ATOM     18  H   UNL     1       3.101  -8.402  -4.400  0.00  0.00    +0.160 HD
ENDROOT
BRANCH  16  19
ATOM     19  C   UNL     1       1.381  -6.001  -5.389  0.00  0.00    -0.025 A 
ATOM     20  C   UNL     1       0.233  -6.769  -5.332  0.00  0.00    +0.006 A 
ATOM     21  C   UNL     1      -0.473  -7.044  -6.488  0.00  0.00    +0.004 A 
ATOM     22  C   UNL     1      -0.032  -6.551  -7.701  0.00  0.00    -0.050 A 
ATOM     23  C   UNL     1       1.115  -5.782  -7.759  0.00  0.00    +0.004 A 
ATOM     24  C   UNL     1       1.819  -5.504  -6.602  0.00  0.00    +0.006 A 
ATOM     25  C   UNL     1      -0.802  -6.851  -8.961  0.00  0.00    +0.044 C 
ENDBRANCH  16  19
BRANCH  10  26
ATOM     26  O   UNL     1       6.722  -7.007  -9.185  0.00  0.00    -0.495 OA
ATOM     27  C   UNL     1       7.007  -8.176  -9.956  0.00  0.00    +0.277 C 
ENDBRANCH  10  26
BRANCH   1  28
ATOM     28  C   UNL     1       1.109  -1.690  -1.577  0.00  0.00    +0.106 C 
BRANCH  28  29
ATOM     29  C   UNL     1       1.262  -0.171  -1.679  0.00  0.00    +0.018 C 
BRANCH  29  31
ATOM     30  C   UNL     1       0.732   2.011  -0.583  0.00  0.00    +0.004 C 
ATOM     31  C   UNL     1       0.580   0.492  -0.481  0.00  0.00    -0.002 C 
ENDBRANCH  29  31
ENDBRANCH  28  29
ENDBRANCH   1  28
TORSDOF 5
