REMARK  Name = ZINC03670544
REMARK  8 active torsions:
REMARK  status: ('A' for Active; 'I' for Inactive)
REMARK    1  A    between atoms: C_1  and  C_2
REMARK    2  A    between atoms: C_2  and  C_4
REMARK    3  A    between atoms: C_2  and  N_12
REMARK    4  A    between atoms: C_4  and  C_5
REMARK    5  A    between atoms: C_5  and  C_6
REMARK    6  A    between atoms: C_13  and  C_15
REMARK    7  A    between atoms: C_15  and  O_33
REMARK    8  A    between atoms: N_25  and  C_26
REMARK                            x       y       z     vdW  Elec       q    Type
REMARK                         _______ _______ _______ _____ _____    ______ ____
ROOT
ATOM      1  C   UNL     1      -1.345   5.971  -0.064  0.00  0.00    +0.247 C 
ATOM      2  C   UNL     1      -1.273   7.480  -0.049  0.00  0.00    +0.034 A 
ATOM      3  C   UNL     1      -2.410   8.251  -0.133  0.00  0.00    +0.025 A 
ATOM      4  C   UNL     1      -2.305   9.632  -0.117  0.00  0.00    +0.018 A 
ATOM      5  C   UNL     1      -1.062  10.231  -0.016  0.00  0.00    +0.017 A 
ATOM      6  C   UNL     1       0.080   9.459   0.068  0.00  0.00    +0.025 A 
ATOM      7  C   UNL     1      -0.020   8.074   0.052  0.00  0.00    +0.043 A 
ATOM      8  N   UNL     1       1.122   7.276   0.135  0.00  0.00    -0.269 N 
ATOM      9  C   UNL     1       1.078   5.938   0.129  0.00  0.00    +0.314 C 
ATOM     10  O   UNL     1       2.124   5.323   0.212  0.00  0.00    -0.252 OA
ATOM     11  N   UNL     1      -0.069   5.242   0.030  0.00  0.00    -0.214 N 
ATOM     12 BR   UNL     1      -3.862  10.699  -0.232  0.00  0.00    -0.050 Br
ATOM     13  H   UNL     1       1.986   7.711   0.205  0.00  0.00    +0.156 HD
ENDROOT
BRANCH  11  14
ATOM     14  C   UNL     1      -0.050   3.842   0.023  0.00  0.00    +0.041 A 
ATOM     15  C   UNL     1       0.004   3.141   1.220  0.00  0.00    +0.024 A 
ATOM     16  C   UNL     1       0.023   1.760   1.210  0.00  0.00    +0.002 A 
ATOM     17  C   UNL     1      -0.012   1.076   0.009  0.00  0.00    +0.000 A 
ATOM     18  C   UNL     1      -0.060   1.771  -1.185  0.00  0.00    +0.002 A 
ATOM     19  C   UNL     1      -0.085   3.152  -1.181  0.00  0.00    +0.024 A 
ENDBRANCH  11  14
BRANCH   1  21
ATOM     20  N   UNL     1      -1.800   5.725   2.355  0.00  0.00    -0.309 N 
ATOM     21  C   UNL     1      -2.216   5.535   1.087  0.00  0.00    +0.269 C 
ATOM     22  O   UNL     1      -3.289   5.014   0.872  0.00  0.00    -0.270 OA
ATOM     23  H   UNL     1      -0.942   6.142   2.527  0.00  0.00    +0.149 HD
BRANCH  20  25
ATOM     24  C   UNL     1      -2.398   3.821   3.769  0.00  0.00    +0.028 C 
ATOM     25  C   UNL     1      -2.646   5.302   3.474  0.00  0.00    +0.070 C 
BRANCH  25  26
ATOM     26  C   UNL     1      -2.307   6.133   4.712  0.00  0.00    +0.026 C 
BRANCH  26  27
ATOM     27  C   UNL     1      -2.672   7.597   4.460  0.00  0.00    +0.037 C 
BRANCH  27  28
ATOM     28  C   UNL     1      -2.338   8.416   5.680  0.00  0.00    -0.047 A 
ATOM     29  C   UNL     1      -3.284   8.597   6.671  0.00  0.00    +0.003 A 
ATOM     30  C   UNL     1      -2.976   9.345   7.793  0.00  0.00    +0.000 A 
ATOM     31  C   UNL     1      -1.725   9.918   7.918  0.00  0.00    +0.000 A 
ATOM     32  C   UNL     1      -0.780   9.742   6.925  0.00  0.00    +0.000 A 
ATOM     33  C   UNL     1      -1.087   8.991   5.805  0.00  0.00    +0.003 A 
ENDBRANCH  27  28
ENDBRANCH  26  27
ENDBRANCH  25  26
ENDBRANCH  20  25
ENDBRANCH   1  21
BRANCH   1  34
ATOM     34  O   UNL     1      -1.991   5.573  -1.275  0.00  0.00    -0.360 OA
ATOM     35  H   UNL     1      -2.845   6.003  -1.425  0.00  0.00    +0.213 HD
ENDBRANCH   1  34
TORSDOF 7
