REMARK  Name = ZINC40020774
REMARK  6 active torsions:
REMARK  status: ('A' for Active; 'I' for Inactive)
REMARK    1  A    between atoms: C_1  and  C_2
REMARK    2  A    between atoms: C_2  and  C_3
REMARK    3  A    between atoms: C_3  and  N_4
REMARK    4  A    between atoms: C_5  and  C_21
REMARK    5  A    between atoms: C_24  and  O_27
REMARK    6  A    between atoms: O_27  and  C_28
REMARK                            x       y       z     vdW  Elec       q    Type
REMARK                         _______ _______ _______ _____ _____    ______ ____
ROOT
ATOM      1  N   UNL     1       0.762  -1.976   1.234  0.00  0.00    -0.284 N 
ATOM      2  C   UNL     1      -0.255  -2.858   1.829  0.00  0.00    +0.144 C 
ATOM      3  C   UNL     1       0.209  -4.252   1.563  0.00  0.00    +0.072 A 
ATOM      4  C   UNL     1      -0.375  -5.550   1.919  0.00  0.00    +0.199 A 
ATOM      5  O   UNL     1      -1.496  -5.673   2.380  0.00  0.00    -0.287 OA
ATOM      6  C   UNL     1       0.530  -6.699   1.665  0.00  0.00    +0.066 A 
ATOM      7  C   UNL     1       0.203  -7.972   2.131  0.00  0.00    +0.035 A 
ATOM      8  C   UNL     1       1.057  -9.026   1.890  0.00  0.00    +0.042 A 
ATOM      9  C   UNL     1       2.236  -8.819   1.186  0.00  0.00    +0.023 A 
ATOM     10  C   UNL     1       2.568  -7.567   0.720  0.00  0.00    +0.048 A 
ATOM     11  C   UNL     1       1.719  -6.484   0.949  0.00  0.00    +0.140 A 
ATOM     12  O   UNL     1       2.065  -5.267   0.471  0.00  0.00    -0.450 OA
ATOM     13  C   UNL     1       1.385  -4.175   0.872  0.00  0.00    +0.199 A 
ATOM     14  C   UNL     1       1.712  -2.752   0.674  0.00  0.00    +0.283 C 
ATOM     15  O   UNL     1       2.696  -2.339   0.094  0.00  0.00    -0.267 OA
ATOM     16 CL   UNL     1       0.658 -10.614   2.466  0.00  0.00    -0.084 Cl
ENDROOT
BRANCH   2  17
ATOM     17  C   UNL     1      -0.350  -2.614   3.313  0.00  0.00    -0.022 A 
ATOM     18  C   UNL     1       0.797  -2.393   4.051  0.00  0.00    +0.009 A 
ATOM     19  C   UNL     1       0.713  -2.169   5.412  0.00  0.00    +0.046 A 
ATOM     20  C   UNL     1      -0.525  -2.166   6.037  0.00  0.00    +0.120 A 
ATOM     21  C   UNL     1      -1.676  -2.387   5.294  0.00  0.00    +0.046 A 
ATOM     22  C   UNL     1      -1.586  -2.605   3.933  0.00  0.00    +0.009 A 
BRANCH  20  23
ATOM     23  O   UNL     1      -0.612  -1.946   7.376  0.00  0.00    -0.495 OA
ATOM     24  C   UNL     1      -1.919  -1.957   7.952  0.00  0.00    +0.277 C 
ENDBRANCH  20  23
ENDBRANCH   2  17
BRANCH   1  25
ATOM     25  C   UNL     1       0.742  -0.511   1.242  0.00  0.00    +0.109 C 
BRANCH  25  27
ATOM     26  C   UNL     1      -0.019   1.526   0.010  0.00  0.00    +0.005 C 
ATOM     27  C   UNL     1       0.002  -0.004   0.002  0.00  0.00    +0.016 C 
ENDBRANCH  25  27
ENDBRANCH   1  25
TORSDOF 4
