REMARK  Name = ZINC14654297
REMARK  10 active torsions:
REMARK  status: ('A' for Active; 'I' for Inactive)
REMARK    1  A    between atoms: C_1  and  C_2
REMARK    2  A    between atoms: C_2  and  C_3
REMARK    3  A    between atoms: C_2  and  C_4
REMARK    4  A    between atoms: C_4  and  O_5
REMARK    5  A    between atoms: O_5  and  C_6
REMARK    6  A    between atoms: C_9  and  C_13
REMARK    7  A    between atoms: N_15  and  C_16
REMARK    8  A    between atoms: C_16  and  N_18
REMARK    9  A    between atoms: N_18  and  N_19
REMARK   10  A    between atoms: C_20  and  C_22
REMARK                            x       y       z     vdW  Elec       q    Type
REMARK                         _______ _______ _______ _____ _____    ______ ____
ROOT
ATOM      1  C   UNL     1       2.173  -1.707   7.343  0.00  0.00    +0.250 C 
ATOM      2  O   UNL     1       3.222  -2.320   7.380  0.00  0.00    -0.270 OA
ATOM      3  N   UNL     1       1.531  -1.402   8.488  0.00  0.00    -0.263 N 
ATOM      4  H   UNL     1       0.694  -0.913   8.459  0.00  0.00    +0.157 HD
ENDROOT
BRANCH   1   8
ATOM      5  C   UNL     1       0.534  -0.526   3.608  0.00  0.00    +0.134 A 
ATOM      6  C   UNL     1       1.734  -1.227   3.648  0.00  0.00    +0.047 A 
ATOM      7  C   UNL     1       2.269  -1.611   4.858  0.00  0.00    +0.017 A 
ATOM      8  C   UNL     1       1.604  -1.296   6.046  0.00  0.00    +0.038 A 
ATOM      9  C   UNL     1       0.398  -0.591   6.002  0.00  0.00    +0.032 A 
ATOM     10  C   UNL     1      -0.129  -0.206   4.788  0.00  0.00    +0.060 A 
ATOM     11 BR   UNL     1      -1.756   0.754   4.727  0.00  0.00    -0.046 Br
BRANCH   5  12
ATOM     12  O   UNL     1       0.010  -0.149   2.414  0.00  0.00    -0.491 OA
BRANCH  12  13
ATOM     13  C   UNL     1       0.742  -0.511   1.242  0.00  0.00    +0.232 C 
BRANCH  13  15
ATOM     14  C   UNL     1      -0.019   1.526   0.010  0.00  0.00    +0.010 C 
ATOM     15  C   UNL     1       0.002  -0.004   0.002  0.00  0.00    +0.020 C 
ATOM     16  C   UNL     1       0.718  -0.497  -1.257  0.00  0.00    +0.010 C 
ENDBRANCH  13  15
ENDBRANCH  12  13
ENDBRANCH   5  12
ENDBRANCH   1   8
BRANCH   3  17
ATOM     17  C   UNL     1       2.051  -1.777   9.674  0.00  0.00    +0.153 C 
ATOM     18  S   UNL     1       3.529  -2.641   9.725  0.00  0.00    -0.017 S 
BRANCH  17  19
ATOM     19  N   UNL     1       1.409  -1.472  10.819  0.00  0.00    -0.246 N 
ATOM     20  H   UNL     1       1.783  -1.742  11.671  0.00  0.00    +0.172 HD
BRANCH  19  21
ATOM     21  N   UNL     1       0.200  -0.765  10.776  0.00  0.00    -0.235 N 
ATOM     22  C   UNL     1      -0.443  -0.461  11.921  0.00  0.00    +0.232 C 
ATOM     23  O   UNL     1       0.026  -0.798  12.988  0.00  0.00    -0.274 OA
ATOM     24  H   UNL     1      -0.175  -0.495   9.923  0.00  0.00    +0.173 HD
BRANCH  22  25
ATOM     25  C   UNL     1      -1.743   0.300  11.876  0.00  0.00    +0.076 C 
ATOM     26  C   UNL     1      -1.517   1.657  11.206  0.00  0.00    +0.013 C 
ATOM     27  C   UNL     1      -2.837   2.429  11.160  0.00  0.00    +0.001 C 
ATOM     28  C   UNL     1      -3.353   2.642  12.585  0.00  0.00    +0.000 C 
ATOM     29  C   UNL     1      -3.579   1.286  13.255  0.00  0.00    +0.001 C 
ATOM     30  C   UNL     1      -2.259   0.513  13.301  0.00  0.00    +0.013 C 
ENDBRANCH  22  25
ENDBRANCH  19  21
ENDBRANCH  17  19
ENDBRANCH   3  17
TORSDOF 8
