REMARK  Name = ZINC60333340
REMARK  4 active torsions:
REMARK  status: ('A' for Active; 'I' for Inactive)
REMARK    1  A    between atoms: C_4  and  C_7
REMARK    2  A    between atoms: C_9  and  C_17
REMARK    3  A    between atoms: N_19  and  O_20
REMARK    4  A    between atoms: O_20  and  C_21
REMARK                            x       y       z     vdW  Elec       q    Type
REMARK                         _______ _______ _______ _____ _____    ______ ____
ROOT
ATOM      1  C   UNL     1       3.696  -0.686  -0.037  0.00  0.00    +0.142 A 
ATOM      2  N   UNL     1       4.849  -0.179  -0.405  0.00  0.00    -0.223 NA
ATOM      3  C   UNL     1       5.804  -1.125  -0.281  0.00  0.00    +0.149 A 
ATOM      4  C   UNL     1       5.207  -2.257   0.186  0.00  0.00    +0.051 A 
ATOM      5  N   UNL     1       3.889  -1.986   0.333  0.00  0.00    -0.327 N 
ATOM      6  C   UNL     1       2.859  -2.924   0.788  0.00  0.00    +0.123 C 
ATOM      7  C   UNL     1       3.491  -3.970   1.709  0.00  0.00    +0.022 C 
ATOM      8  C   UNL     1       3.984  -5.157   0.882  0.00  0.00    +0.002 C 
ATOM      9  C   UNL     1       5.053  -4.708  -0.109  0.00  0.00    +0.006 C 
ATOM     10  C   UNL     1       5.872  -3.572   0.498  0.00  0.00    +0.056 C 
ENDROOT
BRANCH   1  14
ATOM     11  C   UNL     1      -0.017   1.379   0.010  0.00  0.00    +0.000 A 
ATOM     12  C   UNL     1       1.168   2.093   0.002  0.00  0.00    +0.001 A 
ATOM     13  C   UNL     1       2.377   1.428  -0.013  0.00  0.00    +0.011 A 
ATOM     14  C   UNL     1       2.403   0.034  -0.021  0.00  0.00    +0.017 A 
ATOM     15  C   UNL     1       1.204  -0.680  -0.013  0.00  0.00    +0.011 A 
ATOM     16  C   UNL     1       0.002  -0.004   0.002  0.00  0.00    +0.001 A 
ENDBRANCH   1  14
BRANCH   3  17
ATOM     17  C   UNL     1       7.235  -0.963  -0.594  0.00  0.00    +0.287 C 
ATOM     18  O   UNL     1       8.001  -1.895  -0.439  0.00  0.00    -0.266 OA
ATOM     19  N   UNL     1       7.695   0.218  -1.050  0.00  0.00    -0.186 N 
ATOM     20  H   UNL     1       7.084   0.962  -1.173  0.00  0.00    +0.183 HD
BRANCH  19  21
ATOM     21  O   UNL     1       9.070   0.375  -1.351  0.00  0.00    -0.248 OA
BRANCH  21  22
ATOM     22  C   UNL     1       9.416   1.677  -1.826  0.00  0.00    +0.276 C 
ATOM     23  C   UNL     1      10.858   2.000  -1.423  0.00  0.00    +0.063 C 
ATOM     24  C   UNL     1      11.242   3.371  -1.987  0.00  0.00    +0.007 C 
ATOM     25  C   UNL     1      11.052   3.358  -3.507  0.00  0.00    +0.028 C 
ATOM     26  C   UNL     1       9.603   2.983  -3.829  0.00  0.00    +0.163 C 
ATOM     27  O   UNL     1       9.301   1.712  -3.250  0.00  0.00    -0.349 OA
ENDBRANCH  21  22
ENDBRANCH  19  21
ENDBRANCH   3  17
TORSDOF 4
