REMARK  Name = ZINC37238760
REMARK  7 active torsions:
REMARK  status: ('A' for Active; 'I' for Inactive)
REMARK    1  A    between atoms: C_1  and  C_2
REMARK    2  A    between atoms: C_17  and  C_36
REMARK    3  A    between atoms: C_22  and  C_23
REMARK    4  A    between atoms: C_22  and  O_35
REMARK    5  A    between atoms: C_23  and  N_24
REMARK    6  A    between atoms: C_25  and  C_26
REMARK    7  A    between atoms: C_31  and  O_32
REMARK                            x       y       z     vdW  Elec       q    Type
REMARK                         _______ _______ _______ _____ _____    ______ ____
ROOT
ATOM      1  C   UNL     1       0.402   0.912   1.317  0.00  0.00    +0.012 C 
ATOM      2  C   UNL     1       0.227  -0.591   1.074  0.00  0.00    -0.026 C 
ATOM      3  C   UNL     1       1.077  -1.014  -0.122  0.00  0.00    +0.007 C 
ATOM      4  C   UNL     1       2.560  -0.789   0.176  0.00  0.00    +0.001 C 
ATOM      5  C   UNL     1       2.974  -1.562   1.428  0.00  0.00    +0.000 C 
ATOM      6  C   UNL     1       2.126  -1.116   2.622  0.00  0.00    +0.004 C 
ATOM      7  C   UNL     1       0.653  -1.385   2.306  0.00  0.00    -0.005 C 
ATOM      8  C   UNL     1      -0.225  -1.068   3.511  0.00  0.00    +0.004 C 
ATOM      9  C   UNL     1      -1.691  -1.387   3.187  0.00  0.00    +0.004 C 
ATOM     10  C   UNL     1      -1.767  -1.918   1.756  0.00  0.00    -0.004 C 
ATOM     11  C   UNL     1      -1.262  -0.844   0.797  0.00  0.00    -0.001 C 
ATOM     12  C   UNL     1      -1.523  -1.188  -0.653  0.00  0.00    +0.005 C 
ATOM     13  C   UNL     1      -2.988  -1.539  -0.950  0.00  0.00    +0.010 C 
ATOM     14  C   UNL     1      -3.817  -1.573   0.303  0.00  0.00    +0.001 C 
ATOM     15  C   UNL     1      -3.123  -2.428   1.381  0.00  0.00    +0.001 C 
ATOM     16  C   UNL     1      -4.190  -2.483   2.483  0.00  0.00    +0.007 C 
ATOM     17  C   UNL     1      -5.514  -2.631   1.685  0.00  0.00    +0.037 C 
ATOM     18  C   UNL     1      -5.186  -2.273   0.211  0.00  0.00    +0.089 C 
ATOM     19  C   UNL     1      -4.123  -0.151   0.793  0.00  0.00    +0.014 C 
ENDROOT
BRANCH  18  20
ATOM     20  O   UNL     1      -6.157  -1.356  -0.298  0.00  0.00    -0.386 OA
ATOM     21  H   UNL     1      -7.045  -1.729  -0.382  0.00  0.00    +0.210 HD
ENDBRANCH  18  20
BRANCH  18  22
ATOM     22  C   UNL     1      -5.136  -3.532  -0.643  0.00  0.00    +0.147 C 
BRANCH  22  23
ATOM     23  N   UNL     1      -6.465  -4.145  -0.688  0.00  0.00    -0.387 N 
ATOM     24  C   UNL     1      -7.110  -4.212  -1.808  0.00  0.00    +0.090 C 
ATOM     25  H   UNL     1      -6.863  -4.502   0.122  0.00  0.00    +0.159 HD
BRANCH  24  26
ATOM     26  C   UNL     1      -8.504  -4.690  -1.829  0.00  0.00    +0.035 A 
ATOM     27  C   UNL     1      -9.164  -4.878  -3.046  0.00  0.00    +0.033 A 
ATOM     28  C   UNL     1     -10.468  -5.325  -3.060  0.00  0.00    +0.043 A 
ATOM     29  C   UNL     1     -11.129  -5.589  -1.870  0.00  0.00    +0.043 A 
ATOM     30  C   UNL     1     -10.487  -5.407  -0.660  0.00  0.00    +0.084 A 
ATOM     31  C   UNL     1      -9.173  -4.963  -0.629  0.00  0.00    +0.144 A 
ATOM     32 CL   UNL     1     -11.325  -5.740   0.824  0.00  0.00    -0.080 Cl
ATOM     33 CL   UNL     1     -11.287  -5.558  -4.573  0.00  0.00    -0.083 Cl
BRANCH  31  34
ATOM     34  O   UNL     1      -8.540  -4.789   0.559  0.00  0.00    -0.505 OA
ATOM     35  H   UNL     1      -8.643  -3.904   0.934  0.00  0.00    +0.292 HD
ENDBRANCH  31  34
ENDBRANCH  24  26
ENDBRANCH  22  23
ENDBRANCH  18  22
TORSDOF 5
