REMARK  Name = ZINC63491507
REMARK  6 active torsions:
REMARK  status: ('A' for Active; 'I' for Inactive)
REMARK    1  A    between atoms: C_1  and  C_2
REMARK    2  A    between atoms: C_4  and  O_29
REMARK    3  A    between atoms: C_11  and  C_16
REMARK    4  A    between atoms: C_13  and  C_15
REMARK    5  A    between atoms: C_16  and  C_17
REMARK    6  A    between atoms: N_19  and  C_20
REMARK                            x       y       z     vdW  Elec       q    Type
REMARK                         _______ _______ _______ _____ _____    ______ ____
ROOT
ATOM      1  C   UNL     1       2.115  -4.341   1.307  0.00  0.00    +0.111 C 
ENDROOT
BRANCH   1  12
ATOM      2  C   UNL     1      -0.700   1.426  -0.525  0.00  0.00    +0.044 C 
ATOM      3  C   UNL     1      -0.510  -0.063  -0.392  0.00  0.00    -0.044 A 
ATOM      4  C   UNL     1      -0.470  -0.859  -1.522  0.00  0.00    +0.049 A 
ATOM      5  C   UNL     1      -0.298  -2.228  -1.398  0.00  0.00    +0.124 A 
ATOM      6  C   UNL     1      -0.165  -2.807  -0.140  0.00  0.00    +0.040 A 
ATOM      7  C   UNL     1      -0.199  -2.008   0.988  0.00  0.00    +0.139 A 
ATOM      8  C   UNL     1      -0.371  -0.633   0.857  0.00  0.00    +0.050 A 
ATOM      9  O   UNL     1      -0.053  -2.525   2.238  0.00  0.00    -0.425 OA
ATOM     10  C   UNL     1      -0.091  -3.866   2.366  0.00  0.00    +0.317 C 
ATOM     11  O   UNL     1      -0.666  -4.397   3.287  0.00  0.00    -0.250 OA
ATOM     12  C   UNL     1       0.622  -4.676   1.302  0.00  0.00    +0.114 C 
ATOM     13  C   UNL     1       0.009  -4.302  -0.051  0.00  0.00    +0.037 C 
ATOM     14  C   UNL     1       0.933  -4.774  -1.176  0.00  0.00    +0.013 C 
BRANCH   5  15
ATOM     15  O   UNL     1      -0.261  -3.009  -2.509  0.00  0.00    -0.506 OA
ATOM     16  H   UNL     1       0.610  -3.059  -2.926  0.00  0.00    +0.292 HD
ENDBRANCH   5  15
ENDBRANCH   1  12
BRANCH   1  17
ATOM     17  C   UNL     1       2.724  -4.783   2.612  0.00  0.00    +0.217 C 
ATOM     18  O   UNL     1       2.033  -5.314   3.455  0.00  0.00    -0.276 OA
ATOM     19  N   UNL     1       4.038  -4.588   2.843  0.00  0.00    -0.278 N 
ATOM     20  H   UNL     1       4.591  -4.164   2.168  0.00  0.00    +0.152 HD
BRANCH  19  21
ATOM     21  C   UNL     1       4.630  -5.018   4.112  0.00  0.00    +0.269 C 
ATOM     22  N   UNL     1       4.852  -6.470   4.098  0.00  0.00    -0.348 N 
ATOM     23  C   UNL     1       6.130  -6.671   4.246  0.00  0.00    +0.061 A 
ATOM     24  C   UNL     1       6.949  -7.889   4.310  0.00  0.00    +0.027 A 
ATOM     25  C   UNL     1       8.283  -7.786   4.473  0.00  0.00    +0.002 A 
ATOM     26  C   UNL     1       8.940  -6.548   4.585  0.00  0.00    +0.002 A 
ATOM     27  C   UNL     1       8.284  -5.371   4.540  0.00  0.00    +0.027 A 
ATOM     28  C   UNL     1       6.825  -5.360   4.365  0.00  0.00    +0.061 A 
ATOM     29  N   UNL     1       5.950  -4.399   4.287  0.00  0.00    -0.348 N 
ATOM     30  H   UNL     1       4.172  -7.153   3.998  0.00  0.00    +0.163 HD
ATOM     31  H   UNL     1       6.136  -3.448   4.335  0.00  0.00    +0.163 HD
ENDBRANCH  19  21
ENDBRANCH   1  17
TORSDOF 4
