REMARK  Name = ZINC09670795
REMARK  10 active torsions:
REMARK  status: ('A' for Active; 'I' for Inactive)
REMARK    1  A    between atoms: C_1  and  C_2
REMARK    2  A    between atoms: C_2  and  C_4
REMARK    3  A    between atoms: C_2  and  N_14
REMARK    4  A    between atoms: C_7  and  S_10
REMARK    5  A    between atoms: S_10  and  N_13
REMARK    6  A    between atoms: C_15  and  C_17
REMARK    7  A    between atoms: C_17  and  C_19
REMARK    8  A    between atoms: C_17  and  N_26
REMARK    9  A    between atoms: C_19  and  C_20
REMARK   10  A    between atoms: C_27  and  C_29
REMARK                            x       y       z     vdW  Elec       q    Type
REMARK                         _______ _______ _______ _____ _____    ______ ____
ROOT
ATOM      1  N   UNL     1      -2.249   3.801   5.821  0.00  0.00    -0.307 N 
ATOM      2  C   UNL     1      -2.526   3.834   7.140  0.00  0.00    +0.234 C 
ATOM      3  O   UNL     1      -3.504   3.260   7.569  0.00  0.00    -0.274 OA
ATOM      4  H   UNL     1      -1.467   4.260   5.478  0.00  0.00    +0.149 HD
ENDROOT
BRANCH   1   6
ATOM      5  C   UNL     1      -4.294   3.974   4.490  0.00  0.00    +0.033 C 
ATOM      6  C   UNL     1      -3.131   3.072   4.906  0.00  0.00    +0.100 C 
BRANCH   6   7
ATOM      7  C   UNL     1      -2.353   2.659   3.683  0.00  0.00    -0.027 A 
ATOM      8  C   UNL     1      -2.559   1.412   3.122  0.00  0.00    +0.007 A 
ATOM      9  C   UNL     1      -1.846   1.033   2.000  0.00  0.00    +0.029 A 
ATOM     10  C   UNL     1      -0.927   1.900   1.439  0.00  0.00    +0.105 A 
ATOM     11  C   UNL     1      -0.717   3.145   2.004  0.00  0.00    +0.029 A 
ATOM     12  C   UNL     1      -1.434   3.526   3.123  0.00  0.00    +0.007 A 
BRANCH  10  13
ATOM     13  S   UNL     1      -0.017   1.417   0.010  0.00  0.00    +0.056 S 
ATOM     14  O   UNL     1       0.002  -0.004   0.002  0.00  0.00    -0.153 OA
ATOM     15  O   UNL     1       1.172   2.195   0.003  0.00  0.00    -0.153 OA
BRANCH  13  16
ATOM     16  N   UNL     1      -0.897   1.885  -1.312  0.00  0.00    -0.204 NA
ATOM     17  H   UNL     1      -1.201   1.223  -1.952  0.00  0.00    +0.144 HD
ATOM     18  H   UNL     1      -1.110   2.822  -1.446  0.00  0.00    +0.144 HD
ENDBRANCH  13  16
ENDBRANCH  10  13
ENDBRANCH   6   7
ENDBRANCH   1   6
BRANCH   2  19
ATOM     19  C   UNL     1      -1.619   4.584   8.082  0.00  0.00    +0.163 C 
BRANCH  19  20
ATOM     20  N   UNL     1      -2.341   4.882   9.321  0.00  0.00    -0.299 N 
ATOM     21  C   UNL     1      -2.831   3.877  10.073  0.00  0.00    +0.251 C 
ATOM     22  O   UNL     1      -2.675   2.722   9.723  0.00  0.00    -0.270 OA
ATOM     23  H   UNL     1      -2.466   5.802   9.601  0.00  0.00    +0.150 HD
BRANCH  21  24
ATOM     24  C   UNL     1      -3.554   4.174  11.314  0.00  0.00    +0.074 A 
ATOM     25  C   UNL     1      -4.130   3.299  12.220  0.00  0.00    +0.021 A 
ATOM     26  C   UNL     1      -4.752   3.850  13.313  0.00  0.00    +0.008 A 
ATOM     27  C   UNL     1      -4.774   5.202  13.452  0.00  0.00    +0.046 A 
ATOM     28  S   UNL     1      -3.913   5.758  12.053  0.00  0.00    -0.092 S 
ENDBRANCH  21  24
ENDBRANCH  19  20
BRANCH  19  29
ATOM     29  C   UNL     1      -0.392   3.728   8.399  0.00  0.00    +0.067 C 
BRANCH  29  30
ATOM     30  C   UNL     1       0.572   4.523   9.241  0.00  0.00    -0.045 A 
ATOM     31  C   UNL     1       1.554   5.284   8.634  0.00  0.00    +0.004 A 
ATOM     32  C   UNL     1       2.435   6.018   9.406  0.00  0.00    +0.000 A 
ATOM     33  C   UNL     1       2.341   5.983  10.784  0.00  0.00    +0.000 A 
ATOM     34  C   UNL     1       1.363   5.218  11.391  0.00  0.00    +0.000 A 
ATOM     35  C   UNL     1       0.478   4.488  10.619  0.00  0.00    +0.004 A 
ENDBRANCH  29  30
ENDBRANCH  19  29
ENDBRANCH   2  19
TORSDOF 9
