REMARK  Name = ZINC41283771
REMARK  4 active torsions:
REMARK  status: ('A' for Active; 'I' for Inactive)
REMARK    1  A    between atoms: C_8  and  O_9
REMARK    2  A    between atoms: C_10  and  N_12
REMARK    3  A    between atoms: C_13  and  C_15
REMARK    4  A    between atoms: C_15  and  C_16
REMARK                            x       y       z     vdW  Elec       q    Type
REMARK                         _______ _______ _______ _____ _____    ______ ____
ROOT
ATOM      1  N   UNL     1       1.204  -2.089  -0.021  0.00  0.00    -0.285 N 
ATOM      2  C   UNL     1       0.046  -2.770   0.089  0.00  0.00    +0.223 C 
ATOM      3  O   UNL     1      -1.009  -2.173   0.103  0.00  0.00    -0.275 OA
ATOM      4  H   UNL     1       2.042  -2.568  -0.113  0.00  0.00    +0.155 HD
ENDROOT
BRANCH   1  13
ATOM      5  C   UNL     1       0.154   1.381   0.639  0.00  0.00    +0.003 A 
ATOM      6  C   UNL     1       1.148   2.105   0.055  0.00  0.00    +0.012 A 
ATOM      7  C   UNL     1       2.212   1.448  -0.584  0.00  0.00    +0.025 A 
ATOM      8  C   UNL     1       2.240   0.033  -0.615  0.00  0.00    +0.007 A 
ATOM      9  C   UNL     1       3.304  -0.622  -1.256  0.00  0.00    +0.010 A 
ATOM     10  C   UNL     1       4.295   0.107  -1.839  0.00  0.00    +0.004 A 
ATOM     11  C   UNL     1       4.273   1.499  -1.811  0.00  0.00    +0.046 A 
ATOM     12  C   UNL     1       3.255   2.173  -1.198  0.00  0.00    +0.125 A 
ATOM     13  C   UNL     1       1.197  -0.692  -0.002  0.00  0.00    +0.041 A 
ATOM     14  C   UNL     1       0.171  -0.011   0.615  0.00  0.00    +0.024 A 
BRANCH  12  15
ATOM     15  O   UNL     1       3.247   3.531  -1.179  0.00  0.00    -0.506 OA
ATOM     16  H   UNL     1       3.697   3.916  -0.414  0.00  0.00    +0.292 HD
ENDBRANCH  12  15
ENDBRANCH   1  13
BRANCH   2  17
ATOM     17  C   UNL     1       0.064  -4.273   0.194  0.00  0.00    +0.150 C 
BRANCH  17  18
ATOM     18  C   UNL     1      -1.349  -4.785   0.305  0.00  0.00    +0.043 A 
ATOM     19  C   UNL     1      -2.065  -4.882   1.447  0.00  0.00    +0.114 A 
ATOM     20  N   UNL     1      -3.291  -5.390   1.114  0.00  0.00    -0.306 N 
ATOM     21  C   UNL     1      -4.397  -5.692   1.854  0.00  0.00    +0.112 A 
ATOM     22  C   UNL     1      -5.503  -6.195   1.264  0.00  0.00    +0.058 A 
ATOM     23  C   UNL     1      -5.528  -6.413  -0.124  0.00  0.00    +0.025 A 
ATOM     24  C   UNL     1      -4.433  -6.116  -0.873  0.00  0.00    +0.046 A 
ATOM     25  C   UNL     1      -3.286  -5.592  -0.242  0.00  0.00    +0.116 A 
ATOM     26  N   UNL     1      -2.104  -5.215  -0.709  0.00  0.00    -0.343 N 
ATOM     27 CL   UNL     1      -6.899  -6.574   2.224  0.00  0.00    -0.082 Cl
ATOM     28  H   UNL     1      -1.831  -5.247  -1.639  0.00  0.00    +0.167 HD
ENDBRANCH  17  18
ENDBRANCH   2  17
TORSDOF 4
