REMARK  Name = ZINC01368137
REMARK  5 active torsions:
REMARK  status: ('A' for Active; 'I' for Inactive)
REMARK    1  A    between atoms: C_1  and  C_2
REMARK    2  A    between atoms: C_15  and  S_17
REMARK    3  A    between atoms: S_17  and  C_18
REMARK    4  A    between atoms: C_18  and  C_19
REMARK    5  A    between atoms: N_21  and  C_22
REMARK                            x       y       z     vdW  Elec       q    Type
REMARK                         _______ _______ _______ _____ _____    ______ ____
ROOT
ATOM      1  C   UNL     1       1.320   3.600   0.193  0.00  0.00    +0.008 C 
ATOM      2  C   UNL     1       1.344   2.091  -0.057  0.00  0.00    -0.009 C 
ATOM      3  C   UNL     1      -0.087   1.546  -0.051  0.00  0.00    +0.008 C 
ATOM      4  C   UNL     1      -0.060   0.018  -0.052  0.00  0.00    +0.037 C 
ATOM      5  C   UNL     1       0.818  -0.462  -1.204  0.00  0.00    -0.023 A 
ATOM      6  C   UNL     1       1.708   0.375  -1.784  0.00  0.00    -0.004 A 
ATOM      7  S   UNL     1       2.494  -0.586  -3.052  0.00  0.00    -0.073 S 
ATOM      8  C   UNL     1       1.632  -2.106  -2.803  0.00  0.00    +0.117 A 
ATOM      9  C   UNL     1       0.754  -1.814  -1.734  0.00  0.00    +0.075 A 
ATOM     10  C   UNL     1      -0.103  -2.871  -1.284  0.00  0.00    +0.261 A 
ATOM     11  O   UNL     1      -0.894  -2.717  -0.370  0.00  0.00    -0.267 OA
ATOM     12  N   UNL     1       0.020  -4.050  -1.938  0.00  0.00    -0.301 N 
ATOM     13  H   UNL     1      -0.560  -4.815  -1.655  0.00  0.00    +0.171 HD
ATOM     14  C   UNL     1       0.897  -4.243  -2.961  0.00  0.00    +0.170 A 
ATOM     15  N   UNL     1       1.703  -3.287  -3.403  0.00  0.00    -0.216 NA
ATOM     16  C   UNL     1       1.972   1.806  -1.429  0.00  0.00    +0.046 C 
ENDROOT
BRANCH  14  17
ATOM     17  S   UNL     1       0.962  -5.827  -3.731  0.00  0.00    -0.078 S 
BRANCH  17  18
ATOM     18  C   UNL     1       2.246  -5.521  -4.970  0.00  0.00    +0.173 C 
BRANCH  18  19
ATOM     19  C   UNL     1       2.478  -6.775  -5.772  0.00  0.00    +0.228 C 
ATOM     20  O   UNL     1       1.839  -7.777  -5.531  0.00  0.00    -0.275 OA
ATOM     21  N   UNL     1       3.397  -6.784  -6.759  0.00  0.00    -0.283 N 
ATOM     22  H   UNL     1       3.862  -5.966  -6.995  0.00  0.00    +0.155 HD
BRANCH  21  23
ATOM     23  C   UNL     1       3.679  -7.973  -7.442  0.00  0.00    +0.069 A 
ATOM     24  C   UNL     1       2.669  -8.895  -7.680  0.00  0.00    +0.026 A 
ATOM     25  C   UNL     1       2.950 -10.065  -8.360  0.00  0.00    +0.002 A 
ATOM     26  C   UNL     1       4.237 -10.324  -8.793  0.00  0.00    +0.003 A 
ATOM     27  C   UNL     1       5.247  -9.411  -8.554  0.00  0.00    +0.040 A 
ATOM     28  C   UNL     1       4.973  -8.235  -7.880  0.00  0.00    +0.144 A 
ATOM     29  F   UNL     1       5.960  -7.343  -7.645  0.00  0.00    -0.204 F 
ENDBRANCH  21  23
ENDBRANCH  18  19
ENDBRANCH  17  18
ENDBRANCH  14  17
TORSDOF 4
