REMARK  Name = ZINC51347595
REMARK  11 active torsions:
REMARK  status: ('A' for Active; 'I' for Inactive)
REMARK    1  A    between atoms: C_1  and  C_2
REMARK    2  A    between atoms: N_6  and  O_7
REMARK    3  A    between atoms: O_7  and  C_8
REMARK    4  A    between atoms: C_8  and  C_9
REMARK    5  A    between atoms: N_11  and  C_12
REMARK    6  A    between atoms: C_12  and  C_13
REMARK    7  A    between atoms: C_16  and  O_19
REMARK    8  A    between atoms: O_19  and  C_20
REMARK    9  A    between atoms: C_31  and  C_40
REMARK   10  A    between atoms: C_36  and  C_37
REMARK   11  A    between atoms: C_36  and  O_39
REMARK                            x       y       z     vdW  Elec       q    Type
REMARK                         _______ _______ _______ _____ _____    ______ ____
ROOT
ATOM      1  C   UNL     1      -0.019   1.531   0.011  0.00  0.00    +0.016 C 
ATOM      2  C   UNL     1       0.002  -0.004   0.002  0.00  0.00    -0.007 C 
ATOM      3  C   UNL     1      -1.453  -0.413  -0.050  0.00  0.00    +0.017 C 
ATOM      4  C   UNL     1      -1.744  -1.728   0.661  0.00  0.00    +0.059 C 
ATOM      5  C   UNL     1      -1.172  -1.669   2.063  0.00  0.00    +0.080 C 
ATOM      6  N   UNL     1      -1.860  -2.057   3.094  0.00  0.00    -0.089 NA
ATOM      7  C   UNL     1       0.202  -1.155   2.202  0.00  0.00    +0.026 C 
ATOM      8  C   UNL     1       0.737  -0.428   1.234  0.00  0.00    -0.062 C 
ATOM      9  C   UNL     1       2.197  -0.024   1.351  0.00  0.00    +0.031 C 
ATOM     10  C   UNL     1       2.908  -0.566   0.099  0.00  0.00    +0.008 C 
ATOM     11  C   UNL     1       2.240  -0.010  -1.153  0.00  0.00    -0.003 C 
ATOM     12  C   UNL     1       0.775  -0.431  -1.239  0.00  0.00    +0.002 C 
ATOM     13  C   UNL     1       0.731  -1.958  -1.382  0.00  0.00    +0.005 C 
ATOM     14  C   UNL     1       1.343  -2.324  -2.729  0.00  0.00    +0.011 C 
ATOM     15  C   UNL     1       2.744  -1.811  -2.928  0.00  0.00    +0.011 C 
ATOM     16  C   UNL     1       2.999  -0.391  -2.418  0.00  0.00    +0.002 C 
ATOM     17  C   UNL     1       4.518  -0.362  -2.104  0.00  0.00    +0.008 C 
ATOM     18  C   UNL     1       4.850  -1.798  -1.654  0.00  0.00    +0.049 C 
ATOM     19  C   UNL     1       3.861  -2.712  -2.406  0.00  0.00    +0.132 C 
ATOM     20  C   UNL     1       2.942  -1.749  -4.469  0.00  0.00    +0.015 C 
ENDROOT
BRANCH  19  21
ATOM     21  C   UNL     1       3.384  -3.778  -1.518  0.00  0.00    -0.070 C 
ATOM     22  C   UNL     1       3.002  -4.631  -0.807  0.00  0.00    +0.007 C 
ENDBRANCH  19  21
BRANCH  19  23
ATOM     23  O   UNL     1       4.544  -3.310  -3.524  0.00  0.00    -0.376 OA
ATOM     24  H   UNL     1       5.269  -3.899  -3.272  0.00  0.00    +0.211 HD
ENDBRANCH  19  23
BRANCH   6  25
ATOM     25  O   UNL     1      -3.177  -2.548   2.922  0.00  0.00    -0.384 OA
BRANCH  25  26
ATOM     26  C   UNL     1      -3.815  -2.938   4.140  0.00  0.00    +0.358 C 
BRANCH  26  27
ATOM     27  C   UNL     1      -5.204  -3.442   3.840  0.00  0.00    +0.254 C 
ATOM     28  O   UNL     1      -5.606  -3.465   2.696  0.00  0.00    -0.272 OA
ATOM     29  N   UNL     1      -5.997  -3.867   4.843  0.00  0.00    -0.308 N 
ATOM     30  H   UNL     1      -5.675  -3.849   5.758  0.00  0.00    +0.149 HD
BRANCH  29  31
ATOM     31  C   UNL     1      -7.347  -4.357   4.551  0.00  0.00    +0.139 C 
BRANCH  31  32
ATOM     32  C   UNL     1      -8.020  -4.768   5.835  0.00  0.00    -0.030 A 
ATOM     33  C   UNL     1      -7.893  -6.065   6.297  0.00  0.00    +0.009 A 
ATOM     34  C   UNL     1      -8.509  -6.445   7.474  0.00  0.00    +0.046 A 
ATOM     35  C   UNL     1      -9.256  -5.523   8.192  0.00  0.00    +0.120 A 
ATOM     36  C   UNL     1      -9.382  -4.222   7.727  0.00  0.00    +0.046 A 
ATOM     37  C   UNL     1      -8.759  -3.846   6.553  0.00  0.00    +0.009 A 
BRANCH  35  38
ATOM     38  O   UNL     1      -9.864  -5.894   9.350  0.00  0.00    -0.495 OA
ATOM     39  C   UNL     1     -10.617  -4.893  10.037  0.00  0.00    +0.277 C 
ENDBRANCH  35  38
ENDBRANCH  31  32
ENDBRANCH  29  31
ENDBRANCH  26  27
ENDBRANCH  25  26
ENDBRANCH   6  25
TORSDOF 8
