REMARK  Name = ZINC37027262
REMARK  4 active torsions:
REMARK  status: ('A' for Active; 'I' for Inactive)
REMARK    1  A    between atoms: C_1  and  C_2
REMARK    2  A    between atoms: C_2  and  C_3
REMARK    3  A    between atoms: C_9  and  N_11
REMARK    4  A    between atoms: C_12  and  C_14
REMARK                            x       y       z     vdW  Elec       q    Type
REMARK                         _______ _______ _______ _____ _____    ______ ____
ROOT
ATOM      1  N   UNL     1       1.622  -2.405  -0.032  0.00  0.00    -0.309 N 
ATOM      2  C   UNL     1       1.450  -3.621  -0.585  0.00  0.00    +0.256 C 
ATOM      3  O   UNL     1       0.673  -4.409  -0.088  0.00  0.00    -0.272 OA
ATOM      4  H   UNL     1       2.243  -1.774  -0.429  0.00  0.00    +0.149 HD
ENDROOT
BRANCH   2   5
ATOM      5  C   UNL     1       2.222  -4.003  -1.822  0.00  0.00    +0.275 C 
ATOM      6  C   UNL     1       1.787  -3.112  -2.995  0.00  0.00    +0.155 C 
ATOM      7  N   UNL     1       2.530  -3.554  -4.188  0.00  0.00    -0.337 N 
ATOM      8  C   UNL     1       2.671  -4.935  -4.394  0.00  0.00    +0.070 A 
ATOM      9  C   UNL     1       3.099  -5.413  -5.622  0.00  0.00    +0.026 A 
ATOM     10  C   UNL     1       3.240  -6.775  -5.820  0.00  0.00    +0.002 A 
ATOM     11  C   UNL     1       2.955  -7.657  -4.794  0.00  0.00    +0.004 A 
ATOM     12  C   UNL     1       2.527  -7.185  -3.568  0.00  0.00    +0.047 A 
ATOM     13  C   UNL     1       2.381  -5.821  -3.361  0.00  0.00    +0.142 A 
ATOM     14  O   UNL     1       1.954  -5.367  -2.152  0.00  0.00    -0.476 OA
ATOM     15  H   UNL     1       2.908  -2.912  -4.809  0.00  0.00    +0.146 HD
ENDBRANCH   2   5
BRANCH   1  21
ATOM     16  C   UNL     1       0.742  -0.511   1.242  0.00  0.00    +0.009 C 
ATOM     17  C   UNL     1      -0.042  -0.124   2.497  0.00  0.00    +0.005 C 
ATOM     18  C   UNL     1       0.698  -0.630   3.737  0.00  0.00    +0.000 C 
ATOM     19  C   UNL     1       0.828  -2.153   3.666  0.00  0.00    +0.002 C 
ATOM     20  C   UNL     1       1.612  -2.541   2.410  0.00  0.00    +0.022 C 
ATOM     21  C   UNL     1       0.872  -2.034   1.171  0.00  0.00    +0.076 C 
BRANCH  16  23
ATOM     22  C   UNL     1      -0.019   1.526   0.010  0.00  0.00    +0.004 C 
ATOM     23  C   UNL     1       0.002  -0.004   0.002  0.00  0.00    +0.002 C 
ENDBRANCH  16  23
ENDBRANCH   1  21
TORSDOF 3
