REMARK  Name = ZINC04175647
REMARK  8 active torsions:
REMARK  status: ('A' for Active; 'I' for Inactive)
REMARK    1  A    between atoms: C_1  and  C_2
REMARK    2  A    between atoms: C_2  and  C_3
REMARK    3  A    between atoms: C_3  and  C_4
REMARK    4  A    between atoms: C_4  and  C_5
REMARK    5  A    between atoms: C_5  and  C_6
REMARK    6  A    between atoms: N_8  and  N_9
REMARK    7  A    between atoms: C_13  and  C_16
REMARK    8  A    between atoms: C_16  and  C_17
REMARK                            x       y       z     vdW  Elec       q    Type
REMARK                         _______ _______ _______ _____ _____    ______ ____
ROOT
ATOM      1  N   UNL     1       2.077  -6.088  -3.558  0.00  0.00    -0.286 N 
ATOM      2  C   UNL     1       2.640  -6.726  -4.545  0.00  0.00    +0.145 C 
ATOM      3  N   UNL     1       3.276  -6.201  -5.669  0.00  0.00    -0.323 N 
ATOM      4  C   UNL     1       3.078  -6.973  -6.893  0.00  0.00    +0.118 C 
ATOM      5  C   UNL     1       3.152  -8.492  -6.594  0.00  0.00    +0.075 C 
ATOM      6  S   UNL     1       2.795  -8.491  -4.785  0.00  0.00    -0.086 S 
ATOM      7  H   UNL     1       3.807  -5.389  -5.641  0.00  0.00    +0.148 HD
ATOM      8  H   UNL     1       1.670  -6.582  -2.829  0.00  0.00    +0.186 HD
ENDROOT
BRANCH   1  11
ATOM      9  C   UNL     1       1.476  -4.028  -2.532  0.00  0.00    +0.231 C 
ATOM     10  O   UNL     1       0.967  -4.647  -1.620  0.00  0.00    -0.274 OA
ATOM     11  N   UNL     1       2.058  -4.687  -3.551  0.00  0.00    -0.228 N 
ATOM     12  H   UNL     1       2.464  -4.192  -4.279  0.00  0.00    +0.175 HD
BRANCH   9  13
ATOM     13  C   UNL     1       1.455  -2.521  -2.524  0.00  0.00    +0.097 C 
BRANCH  13  14
ATOM     14  C   UNL     1       0.739  -2.027  -1.265  0.00  0.00    +0.009 C 
BRANCH  14  15
ATOM     15  C   UNL     1       0.718  -0.497  -1.257  0.00  0.00    +0.000 C 
BRANCH  15  17
ATOM     16  C   UNL     1      -0.019   1.526   0.010  0.00  0.00    +0.004 C 
ATOM     17  C   UNL     1       0.002  -0.004   0.002  0.00  0.00    -0.003 C 
ENDBRANCH  15  17
ENDBRANCH  14  15
ENDBRANCH  13  14
ENDBRANCH   9  13
ENDBRANCH   1  11
BRANCH   5  18
ATOM     18  C   UNL     1       2.086  -9.264  -7.375  0.00  0.00    +0.051 C 
BRANCH  18  19
ATOM     19  C   UNL     1       2.272 -10.742  -7.151  0.00  0.00    -0.045 A 
ATOM     20  C   UNL     1       3.092 -11.471  -7.992  0.00  0.00    +0.004 A 
ATOM     21  C   UNL     1       3.263 -12.827  -7.788  0.00  0.00    +0.002 A 
ATOM     22  C   UNL     1       2.612 -13.456  -6.742  0.00  0.00    +0.020 A 
ATOM     23  C   UNL     1       1.791 -12.728  -5.901  0.00  0.00    +0.041 A 
ATOM     24  C   UNL     1       1.626 -11.369  -6.102  0.00  0.00    +0.023 A 
ATOM     25 CL   UNL     1       0.974 -13.517  -4.588  0.00  0.00    -0.084 Cl
ENDBRANCH  18  19
ENDBRANCH   5  18
TORSDOF 7
