REMARK  Name = ZINC63908693
REMARK  5 active torsions:
REMARK  status: ('A' for Active; 'I' for Inactive)
REMARK    1  A    between atoms: C_1  and  C_2
REMARK    2  A    between atoms: C_4  and  C_12
REMARK    3  A    between atoms: C_12  and  C_14
REMARK    4  A    between atoms: C_14  and  C_16
REMARK    5  A    between atoms: C_14  and  N_17
REMARK                            x       y       z     vdW  Elec       q    Type
REMARK                         _______ _______ _______ _____ _____    ______ ____
ROOT
ATOM      1  C   UNL     1      -2.428  -0.333  -0.919  0.00  0.00    +0.182 C 
ATOM      2  O   UNL     1      -2.168   0.272  -1.939  0.00  0.00    -0.290 OA
ENDROOT
BRANCH   1   5
ATOM      3  C   UNL     1      -0.357   1.850   0.116  0.00  0.00    +0.035 C 
ATOM      4  C   UNL     1      -0.157   0.336   0.203  0.00  0.00    +0.111 C 
ATOM      5  C   UNL     1      -1.493  -0.371   0.138  0.00  0.00    +0.028 C 
ATOM      6  C   UNL     1      -1.606  -1.062   1.330  0.00  0.00    +0.006 A 
ATOM      7  C   UNL     1      -2.612  -1.901   1.865  0.00  0.00    +0.010 A 
ATOM      8  C   UNL     1      -2.457  -2.458   3.087  0.00  0.00    +0.001 A 
ATOM      9  C   UNL     1      -1.316  -2.240   3.875  0.00  0.00    +0.002 A 
ATOM     10  C   UNL     1      -0.298  -1.457   3.457  0.00  0.00    +0.026 A 
ATOM     11  C   UNL     1      -0.387  -0.811   2.137  0.00  0.00    +0.043 A 
ATOM     12  N   UNL     1       0.431  -0.022   1.497  0.00  0.00    -0.377 N 
ATOM     13  H   UNL     1       1.291   0.281   1.826  0.00  0.00    +0.160 HD
ENDBRANCH   1   5
BRANCH   1  14
ATOM     14  C   UNL     1      -3.750  -1.043  -0.781  0.00  0.00    +0.141 C 
ATOM     15  C   UNL     1      -4.663  -0.245   0.153  0.00  0.00    +0.036 C 
BRANCH  14  16
ATOM     16  N   UNL     1      -4.381  -1.161  -2.098  0.00  0.00    -0.319 N 
ATOM     17  C   UNL     1      -4.740  -2.424  -2.747  0.00  0.00    +0.110 C 
ATOM     18  C   UNL     1      -5.364  -2.022  -4.093  0.00  0.00    +0.056 C 
ATOM     19  C   UNL     1      -5.309  -0.511  -4.101  0.00  0.00    -0.025 A 
ATOM     20  C   UNL     1      -4.734  -0.085  -2.914  0.00  0.00    +0.034 A 
ATOM     21  C   UNL     1      -4.581   1.285  -2.689  0.00  0.00    +0.023 A 
ATOM     22  C   UNL     1      -5.000   2.196  -3.634  0.00  0.00    +0.002 A 
ATOM     23  C   UNL     1      -5.577   1.761  -4.813  0.00  0.00    +0.000 A 
ATOM     24  C   UNL     1      -5.724   0.406  -5.048  0.00  0.00    +0.005 A 
ENDBRANCH  14  16
ENDBRANCH   1  14
TORSDOF 3
