REMARK  Name = ZINC28051749
REMARK  5 active torsions:
REMARK  status: ('A' for Active; 'I' for Inactive)
REMARK    1  A    between atoms: C_1  and  C_2
REMARK    2  A    between atoms: C_5  and  C_8
REMARK    3  A    between atoms: C_13  and  C_22
REMARK    4  A    between atoms: C_16  and  C_21
REMARK    5  A    between atoms: C_27  and  C_28
REMARK                            x       y       z     vdW  Elec       q    Type
REMARK                         _______ _______ _______ _____ _____    ______ ____
ROOT
ATOM      1  C   UNL     1      -1.030  -5.232   1.370  0.00  0.00    +0.032 C 
ATOM      2  C   UNL     1      -1.644  -4.146   0.485  0.00  0.00    +0.059 C 
ATOM      3  C   UNL     1      -0.643  -3.032   0.280  0.00  0.00    +0.019 C 
ATOM      4  C   UNL     1       0.681  -3.294   0.247  0.00  0.00    +0.024 C 
ATOM      5  C   UNL     1       1.715  -2.210   0.015  0.00  0.00    +0.091 C 
ATOM      6  C   UNL     1       1.072  -0.870   0.173  0.00  0.00    +0.049 A 
ATOM      7  C   UNL     1       1.597   0.414   0.301  0.00  0.00    +0.087 A 
ATOM      8  N   UNL     1       0.568   1.218   0.406  0.00  0.00    -0.081 NA
ATOM      9  O   UNL     1      -0.486   0.615   0.362  0.00  0.00    -0.339 OA
ATOM     10  C   UNL     1      -0.286  -0.691   0.220  0.00  0.00    +0.226 A 
ATOM     11  N   UNL     1      -1.150  -1.763   0.129  0.00  0.00    -0.286 N 
ATOM     12  C   UNL     1       3.054   0.800   0.315  0.00  0.00    +0.069 C 
ATOM     13  C   UNL     1       1.164  -4.603   0.425  0.00  0.00    +0.162 C 
ATOM     14  O   UNL     1       2.361  -4.806   0.371  0.00  0.00    -0.292 OA
ATOM     15  C   UNL     1       0.235  -5.756   0.681  0.00  0.00    +0.088 C 
ATOM     16  H   UNL     1      -2.224  -1.619  -0.061  0.00  0.00    +0.155 HD
ENDROOT
BRANCH   1  21
ATOM     17  C   UNL     1      -4.805  -9.552   2.061  0.00  0.00    +0.044 C 
ATOM     18  C   UNL     1      -3.820  -8.426   1.881  0.00  0.00    -0.050 A 
ATOM     19  C   UNL     1      -3.338  -7.747   2.984  0.00  0.00    +0.003 A 
ATOM     20  C   UNL     1      -2.435  -6.713   2.819  0.00  0.00    +0.004 A 
ATOM     21  C   UNL     1      -2.014  -6.359   1.550  0.00  0.00    -0.043 A 
ATOM     22  C   UNL     1      -2.500  -7.035   0.447  0.00  0.00    +0.004 A 
ATOM     23  C   UNL     1      -3.400  -8.072   0.612  0.00  0.00    +0.003 A 
ENDBRANCH   1  21
BRANCH   5  24
ATOM     24  C   UNL     1       2.275  -2.339  -1.378  0.00  0.00    -0.032 A 
ATOM     25  C   UNL     1       1.424  -2.335  -2.468  0.00  0.00    +0.005 A 
ATOM     26  C   UNL     1       1.937  -2.453  -3.745  0.00  0.00    +0.000 A 
ATOM     27  C   UNL     1       3.302  -2.574  -3.934  0.00  0.00    +0.000 A 
ATOM     28  C   UNL     1       4.152  -2.576  -2.844  0.00  0.00    +0.003 A 
ATOM     29  C   UNL     1       3.639  -2.455  -1.566  0.00  0.00    -0.046 A 
ATOM     30  C   UNL     1       4.567  -2.452  -0.379  0.00  0.00    +0.044 C 
ENDBRANCH   5  24
TORSDOF 2
