REMARK  Name = ZINC28917268
REMARK  4 active torsions:
REMARK  status: ('A' for Active; 'I' for Inactive)
REMARK    1  A    between atoms: C_4  and  C_7
REMARK    2  A    between atoms: C_7  and  C_9
REMARK    3  A    between atoms: C_7  and  O_27
REMARK    4  A    between atoms: C_9  and  N_10
REMARK                            x       y       z     vdW  Elec       q    Type
REMARK                         _______ _______ _______ _____ _____    ______ ____
ROOT
ATOM      1  N   UNL     1      -4.225  -0.298   0.015  0.00  0.00    -0.260 N 
ATOM      2  C   UNL     1      -4.799   0.943   0.033  0.00  0.00    +0.070 A 
ATOM      3  C   UNL     1      -6.055   1.543   0.050  0.00  0.00    +0.028 A 
ATOM      4  C   UNL     1      -6.153   2.925   0.063  0.00  0.00    +0.003 A 
ATOM      5  C   UNL     1      -5.048   3.768   0.060  0.00  0.00    +0.012 A 
ATOM      6  C   UNL     1      -3.778   3.197   0.044  0.00  0.00    +0.034 A 
ATOM      7  C   UNL     1      -3.714   1.811   0.033  0.00  0.00    +0.038 A 
ATOM      8  C   UNL     1      -2.502   1.013   0.018  0.00  0.00    +0.102 A 
ATOM      9  N   UNL     1      -2.929  -0.226   0.007  0.00  0.00    -0.170 NA
ATOM     10  C   UNL     1      -1.228   1.755   0.017  0.00  0.00    +0.014 A 
ATOM     11  C   UNL     1      -0.013   1.076   0.008  0.00  0.00    +0.011 A 
ATOM     12  C   UNL     1       1.172   1.781   0.000  0.00  0.00    +0.001 A 
ATOM     13  C   UNL     1       1.163   3.168   0.008  0.00  0.00    +0.001 A 
ATOM     14  C   UNL     1      -0.027   3.860   0.023  0.00  0.00    +0.012 A 
ATOM     15  C   UNL     1      -1.243   3.167   0.032  0.00  0.00    +0.032 A 
ATOM     16  C   UNL     1      -2.507   3.935   0.050  0.00  0.00    +0.194 C 
ATOM     17  O   UNL     1      -2.495   5.153   0.056  0.00  0.00    -0.287 OA
ENDROOT
BRANCH   1  18
ATOM     18  C   UNL     1      -4.980  -1.554   0.007  0.00  0.00    +0.180 C 
BRANCH  18  19
ATOM     19  C   UNL     1      -5.232  -2.006   1.447  0.00  0.00    +0.166 C 
BRANCH  19  23
ATOM     20  C   UNL     1      -7.124  -5.836   1.425  0.00  0.00    +0.000 A 
ATOM     21  C   UNL     1      -5.765  -5.738   1.658  0.00  0.00    +0.000 A 
ATOM     22  C   UNL     1      -5.152  -4.499   1.665  0.00  0.00    +0.006 A 
ATOM     23  C   UNL     1      -5.899  -3.358   1.439  0.00  0.00    -0.017 A 
ATOM     24  C   UNL     1      -7.260  -3.455   1.212  0.00  0.00    +0.006 A 
ATOM     25  C   UNL     1      -7.871  -4.695   1.201  0.00  0.00    +0.000 A 
ENDBRANCH  19  23
BRANCH  19  26
ATOM     26  O   UNL     1      -6.080  -1.060   2.102  0.00  0.00    -0.385 OA
ATOM     27  H   UNL     1      -5.759  -0.013   2.205  0.00  0.00    +0.210 HD
ENDBRANCH  19  26
ENDBRANCH  18  19
ENDBRANCH   1  18
TORSDOF 4
