REMARK  Name = ZINC43764304
REMARK  14 active torsions:
REMARK  status: ('A' for Active; 'I' for Inactive)
REMARK    1  A    between atoms: C_1  and  C_2
REMARK    2  A    between atoms: C_2  and  C_3
REMARK    3  A    between atoms: C_2  and  C_4
REMARK    4  A    between atoms: C_8  and  C_36
REMARK    5  A    between atoms: C_17  and  C_35
REMARK    6  A    between atoms: C_18  and  C_21
REMARK    7  A    between atoms: C_24  and  C_32
REMARK    8  A    between atoms: C_26  and  C_27
REMARK    9  A    between atoms: C_26  and  C_28
REMARK   10  A    between atoms: C_28  and  C_29
REMARK   11  A    between atoms: C_29  and  C_30
REMARK   12  A    between atoms: C_32  and  C_34
REMARK   13  A    between atoms: C_36  and  O_38
REMARK   14  A    between atoms: O_38  and  C_39
REMARK                            x       y       z     vdW  Elec       q    Type
REMARK                         _______ _______ _______ _____ _____    ______ ____
ROOT
ATOM      1  C   UNL     1       0.190  -0.369  -1.730  0.00  0.00    -0.004 C 
ATOM      2  C   UNL     1       0.491  -1.892  -1.832  0.00  0.00    +0.005 C 
ATOM      3  C   UNL     1      -0.563  -2.472  -2.819  0.00  0.00    +0.018 C 
ATOM      4  C   UNL     1      -1.730  -1.458  -2.652  0.00  0.00    +0.071 C 
ATOM      5  C   UNL     1      -0.913  -0.158  -2.768  0.00  0.00    +0.013 C 
ATOM      6  C   UNL     1      -1.690   1.098  -2.814  0.00  0.00    -0.000 C 
ATOM      7  C   UNL     1      -1.700   2.043  -1.629  0.00  0.00    +0.005 C 
ATOM      8  C   UNL     1      -2.145   3.415  -2.186  0.00  0.00    +0.005 C 
ATOM      9  C   UNL     1      -3.523   3.300  -2.825  0.00  0.00    +0.002 C 
ATOM     10  C   UNL     1      -3.576   2.258  -3.937  0.00  0.00    -0.023 C 
ATOM     11  C   UNL     1      -3.105   0.912  -3.365  0.00  0.00    -0.023 C 
ATOM     12  C   UNL     1      -3.071  -0.213  -4.394  0.00  0.00    +0.008 C 
ATOM     13  C   UNL     1      -2.799  -1.562  -3.705  0.00  0.00    +0.019 C 
ATOM     14  C   UNL     1      -4.092   0.521  -2.260  0.00  0.00    +0.012 C 
ATOM     15  C   UNL     1      -5.018   2.134  -4.442  0.00  0.00    +0.008 C 
ATOM     16  C   UNL     1      -5.475   3.491  -4.986  0.00  0.00    +0.009 C 
ATOM     17  C   UNL     1      -5.474   4.522  -3.864  0.00  0.00    +0.020 C 
ATOM     18  C   UNL     1      -4.109   4.652  -3.192  0.00  0.00    -0.021 C 
ATOM     19  C   UNL     1      -3.173   5.498  -4.051  0.00  0.00    +0.012 C 
ATOM     20  C   UNL     1      -2.693   2.628  -5.132  0.00  0.00    +0.012 C 
ENDROOT
BRANCH   1  22
ATOM     21  C   UNL     1       2.544   0.171  -1.089  0.00  0.00    +0.007 C 
ATOM     22  C   UNL     1       1.439   0.426  -2.116  0.00  0.00    -0.014 C 
ATOM     23  C   UNL     1       1.918  -0.018  -3.500  0.00  0.00    +0.007 C 
ENDBRANCH   1  22
BRANCH  17  24
ATOM     24  C   UNL     1      -5.885   5.866  -4.417  0.00  0.00    -0.076 C 
ATOM     25  C   UNL     1      -5.822   6.090  -5.706  0.00  0.00    +0.007 C 
ATOM     26  C   UNL     1      -6.368   6.948  -3.486  0.00  0.00    +0.039 C 
ENDBRANCH  17  24
BRANCH   4  27
ATOM     27  C   UNL     1      -2.279  -1.686  -1.264  0.00  0.00    +0.313 C 
ATOM     28  O   UNL     1      -2.249  -0.794  -0.449  0.00  0.00    -0.250 OA
BRANCH  27  29
ATOM     29  O   UNL     1      -2.799  -2.878  -0.934  0.00  0.00    -0.468 OA
ATOM     30  C   UNL     1      -3.299  -3.023   0.396  0.00  0.00    +0.280 C 
ENDBRANCH  27  29
ENDBRANCH   4  27
BRANCH  18  31
ATOM     31  C   UNL     1      -4.348   5.437  -1.877  0.00  0.00    +0.022 C 
BRANCH  31  32
ATOM     32  C   UNL     1      -5.293   4.643  -0.974  0.00  0.00    +0.119 C 
BRANCH  32  33
ATOM     33  C   UNL     1      -5.590   5.428   0.236  0.00  0.00    +0.063 C 
ATOM     34  N   UNL     1      -5.818   6.033   1.170  0.00  0.00    -0.197 NA
ENDBRANCH  32  33
ENDBRANCH  31  32
ENDBRANCH  18  31
TORSDOF 7
