REMARK  Name = ZINC12003206
REMARK  12 active torsions:
REMARK  status: ('A' for Active; 'I' for Inactive)
REMARK    1  A    between atoms: C_1  and  N_61
REMARK    2  A    between atoms: C_4  and  C_7
REMARK    3  A    between atoms: C_7  and  N_63
REMARK    4  A    between atoms: C_8  and  C_9
REMARK    5  A    between atoms: C_8  and  N_63
REMARK    6  A    between atoms: C_9  and  C_10
REMARK    7  A    between atoms: C_13  and  O_16
REMARK    8  A    between atoms: O_16  and  C_17
REMARK    9  A    between atoms: C_18  and  C_19
REMARK   10  A    between atoms: C_18  and  N_63
REMARK   11  A    between atoms: N_24  and  C_25
REMARK   12  A    between atoms: N_24  and  C_26
REMARK                            x       y       z     vdW  Elec       q    Type
REMARK                         _______ _______ _______ _____ _____    ______ ____
ROOT
ATOM      1  N   UNL     1       0.649   5.590   1.488  0.00  0.00    +0.383 N 
ATOM      2  H   UNL     1      -0.175   6.003   1.036  0.00  0.00    -0.081 HD
ENDROOT
BRANCH   1   3
ATOM      3  C   UNL     1       0.520   5.740   2.953  0.00  0.00    -0.075 C 
BRANCH   3   7
ATOM      4  C   UNL     1      -1.845  10.574   4.880  0.00  0.00    -0.096 C 
ATOM      5  C   UNL     1      -1.361   9.098   3.023  0.00  0.00    -0.079 C 
ATOM      6  C   UNL     1      -1.071   7.644   2.645  0.00  0.00    -0.017 C 
ATOM      7  C   UNL     1       0.254   7.212   3.277  0.00  0.00    -0.031 C 
ATOM      8  C   UNL     1       0.171   7.395   4.795  0.00  0.00    -0.017 C 
ATOM      9  C   UNL     1      -0.155   8.856   5.111  0.00  0.00    -0.079 C 
ATOM     10  N   UNL     1      -1.454   9.202   4.495  0.00  0.00    +0.378 N 
ATOM     11  H   UNL     1      -2.167   8.545   4.830  0.00  0.00    -0.082 HD
ENDBRANCH   3   7
ENDBRANCH   1   3
BRANCH   1  12
ATOM     12  C   UNL     1       0.725   4.157   1.133  0.00  0.00    -0.074 C 
BRANCH  12  13
ATOM     13  C   UNL     1       0.484   4.011  -0.371  0.00  0.00    +0.016 C 
BRANCH  13  14
ATOM     14  C   UNL     1       0.403   2.549  -0.727  0.00  0.00    -0.049 A 
ATOM     15  C   UNL     1      -0.788   1.865  -0.573  0.00  0.00    +0.007 A 
ATOM     16  C   UNL     1      -0.864   0.525  -0.898  0.00  0.00    +0.046 A 
ATOM     17  C   UNL     1       0.256  -0.135  -1.381  0.00  0.00    +0.120 A 
ATOM     18  C   UNL     1       1.451   0.553  -1.535  0.00  0.00    +0.046 A 
ATOM     19  C   UNL     1       1.522   1.893  -1.208  0.00  0.00    +0.007 A 
BRANCH  17  20
ATOM     20  O   UNL     1       0.184  -1.454  -1.702  0.00  0.00    -0.495 OA
ATOM     21  C   UNL     1       1.377  -2.068  -2.193  0.00  0.00    +0.277 C 
ENDBRANCH  17  20
ENDBRANCH  13  14
ENDBRANCH  12  13
ENDBRANCH   1  12
BRANCH   1  22
ATOM     22  C   UNL     1       1.860   6.293   1.014  0.00  0.00    -0.032 C 
BRANCH  22  23
ATOM     23  C   UNL     1       3.083   5.782   1.730  0.00  0.00    +0.013 A 
ATOM     24  C   UNL     1       3.967   4.824   1.357  0.00  0.00    +0.140 A 
ATOM     25  N   UNL     1       4.975   4.550   2.163  0.00  0.00    -0.213 NA
ATOM     26  C   UNL     1       5.121   5.181   3.313  0.00  0.00    +0.162 A 
ATOM     27  S   UNL     1       3.764   6.265   3.310  0.00  0.00    -0.058 S 
ATOM     28  N   UNL     1       6.105   5.020   4.276  0.00  0.00    -0.316 N 
ATOM     29  C   UNL     1       7.172   4.037   4.076  0.00  0.00    +0.131 C 
ATOM     30  C   UNL     1       6.077   5.834   5.494  0.00  0.00    +0.131 C 
ATOM     31 CL   UNL     1       3.779   3.982  -0.150  0.00  0.00    -0.061 Cl
ENDBRANCH  22  23
ENDBRANCH   1  22
TORSDOF 8
