REMARK  Name = ZINC25389595
REMARK  5 active torsions:
REMARK  status: ('A' for Active; 'I' for Inactive)
REMARK    1  A    between atoms: C_1  and  C_2
REMARK    2  A    between atoms: C_4  and  C_15
REMARK    3  A    between atoms: C_5  and  C_14
REMARK    4  A    between atoms: N_6  and  C_7
REMARK    5  A    between atoms: N_16  and  N_17
REMARK                            x       y       z     vdW  Elec       q    Type
REMARK                         _______ _______ _______ _____ _____    ______ ____
ROOT
ATOM      1  C   UNL     1       4.882  11.481   0.019  0.00  0.00    +0.064 C 
ATOM      2  C   UNL     1       4.187  10.144   0.018  0.00  0.00    +0.022 A 
ATOM      3  C   UNL     1       2.854   9.955   0.029  0.00  0.00    +0.032 A 
ATOM      4  C   UNL     1       2.636   8.506   0.023  0.00  0.00    +0.016 A 
ATOM      5  C   UNL     1       3.875   7.932   0.014  0.00  0.00    +0.030 A 
ATOM      6  N   UNL     1       4.805   8.927   0.005  0.00  0.00    -0.317 N 
ATOM      7  C   UNL     1       4.164   6.453   0.010  0.00  0.00    +0.064 C 
ENDROOT
BRANCH   6   8
ATOM      8  C   UNL     1       6.193   8.730  -0.009  0.00  0.00    +0.047 A 
ATOM      9  C   UNL     1       6.799   8.131  -1.105  0.00  0.00    +0.027 A 
ATOM     10  C   UNL     1       8.167   7.943  -1.118  0.00  0.00    +0.016 A 
ATOM     11  C   UNL     1       8.932   8.342  -0.037  0.00  0.00    +0.014 A 
ATOM     12  C   UNL     1       8.330   8.935   1.058  0.00  0.00    +0.016 A 
ATOM     13  C   UNL     1       6.963   9.130   1.075  0.00  0.00    +0.027 A 
ATOM     14  I   UNL     1      11.006   8.047  -0.058  0.00  0.00    -0.044 I 
ENDBRANCH   6   8
BRANCH   4  15
ATOM     15  C   UNL     1       1.338   7.806   0.032  0.00  0.00    +0.140 C 
ATOM     16  N   UNL     1       1.300   6.509   0.025  0.00  0.00    -0.189 NA
BRANCH  16  17
ATOM     17  N   UNL     1       0.066   5.845   0.033  0.00  0.00    -0.220 N 
ATOM     18  C   UNL     1       0.025   4.455   0.026  0.00  0.00    +0.157 A 
ATOM     19  C   UNL     1      -1.204   3.801   0.034  0.00  0.00    +0.084 A 
ATOM     20  C   UNL     1      -1.230   2.417   0.021  0.00  0.00    +0.045 A 
ATOM     21  C   UNL     1      -0.021   1.732   0.012  0.00  0.00    +0.061 A 
ATOM     22  C   UNL     1       1.161   2.446   0.004  0.00  0.00    +0.133 A 
ATOM     23  N   UNL     1       1.155   3.765   0.012  0.00  0.00    -0.236 NA
ATOM     24 CL   UNL     1       0.002  -0.004   0.002  0.00  0.00    -0.082 Cl
ATOM     25 CL   UNL     1      -2.684   4.708   0.053  0.00  0.00    -0.080 Cl
ATOM     26  H   UNL     1      -0.870   6.422   0.045  0.00  0.00    +0.176 HD
ENDBRANCH  16  17
ENDBRANCH   4  15
TORSDOF 3
