REMARK  Name = ZINC09634090
REMARK  6 active torsions:
REMARK  status: ('A' for Active; 'I' for Inactive)
REMARK    1  A    between atoms: C_4  and  C_7
REMARK    2  A    between atoms: C_8  and  C_17
REMARK    3  A    between atoms: N_18  and  N_19
REMARK    4  A    between atoms: C_20  and  C_22
REMARK    5  A    between atoms: C_26  and  S_28
REMARK    6  A    between atoms: S_28  and  N_31
REMARK                            x       y       z     vdW  Elec       q    Type
REMARK                         _______ _______ _______ _____ _____    ______ ____
ROOT
ATOM      1  C   UNL     1      -1.204   2.244   0.020  0.00  0.00    +0.141 C 
ATOM      2  N   UNL     1      -1.067   3.538   0.027  0.00  0.00    -0.187 NA
ENDROOT
BRANCH   1   4
ATOM      3  C   UNL     1       0.002  -0.004   0.002  0.00  0.00    +0.056 A 
ATOM      4  C   UNL     1      -0.017   1.381   0.010  0.00  0.00    +0.028 A 
ATOM      5  C   UNL     1       1.390   1.815  -0.002  0.00  0.00    +0.009 A 
ATOM      6  C   UNL     1       2.012   3.063  -0.002  0.00  0.00    +0.010 A 
ATOM      7  C   UNL     1       3.387   3.140  -0.015  0.00  0.00    +0.001 A 
ATOM      8  C   UNL     1       4.153   1.983  -0.028  0.00  0.00    +0.002 A 
ATOM      9  C   UNL     1       3.553   0.744  -0.028  0.00  0.00    +0.026 A 
ATOM     10  C   UNL     1       2.165   0.642  -0.015  0.00  0.00    +0.048 A 
ATOM     11  N   UNL     1       1.304  -0.435  -0.013  0.00  0.00    -0.354 N 
ATOM     12  H   UNL     1       1.581  -1.365  -0.021  0.00  0.00    +0.166 HD
BRANCH   3  16
ATOM     13  C   UNL     1      -3.423  -2.512   0.021  0.00  0.00    +0.000 A 
ATOM     14  C   UNL     1      -2.373  -2.786  -0.839  0.00  0.00    +0.001 A 
ATOM     15  C   UNL     1      -1.258  -1.975  -0.851  0.00  0.00    +0.010 A 
ATOM     16  C   UNL     1      -1.188  -0.876   0.009  0.00  0.00    -0.001 A 
ATOM     17  C   UNL     1      -2.248  -0.610   0.879  0.00  0.00    +0.010 A 
ATOM     18  C   UNL     1      -3.361  -1.425   0.875  0.00  0.00    +0.001 A 
ENDBRANCH   3  16
ENDBRANCH   1   4
BRANCH   2  19
ATOM     19  N   UNL     1      -2.200   4.362   0.037  0.00  0.00    -0.203 N 
ATOM     20  C   UNL     1      -2.058   5.702   0.043  0.00  0.00    +0.263 C 
ATOM     21  O   UNL     1      -0.946   6.196   0.040  0.00  0.00    -0.268 OA
ATOM     22  H   UNL     1      -3.086   3.968   0.039  0.00  0.00    +0.178 HD
BRANCH  20  23
ATOM     23  C   UNL     1      -3.253   6.572   0.054  0.00  0.00    +0.040 A 
ATOM     24  C   UNL     1      -4.530   6.008   0.051  0.00  0.00    +0.013 A 
ATOM     25  C   UNL     1      -5.641   6.825   0.066  0.00  0.00    +0.003 A 
ATOM     26  C   UNL     1      -5.492   8.201   0.073  0.00  0.00    +0.028 A 
ATOM     27  C   UNL     1      -4.229   8.766   0.070  0.00  0.00    +0.106 A 
ATOM     28  C   UNL     1      -3.109   7.960   0.061  0.00  0.00    +0.041 A 
BRANCH  27  29
ATOM     29  S   UNL     1      -4.051  10.519   0.078  0.00  0.00    +0.061 S 
ATOM     30  O   UNL     1      -5.246  11.047   0.638  0.00  0.00    -0.153 OA
ATOM     31  O   UNL     1      -2.768  10.794   0.624  0.00  0.00    -0.153 OA
BRANCH  29  32
ATOM     32  N   UNL     1      -4.008  11.014  -1.501  0.00  0.00    -0.177 NA
ATOM     33  C   UNL     1      -2.798  11.155  -2.323  0.00  0.00    +0.109 C 
ATOM     34  C   UNL     1      -3.242  11.664  -3.711  0.00  0.00    +0.018 C 
ATOM     35  C   UNL     1      -4.613  12.327  -3.413  0.00  0.00    +0.018 C 
ATOM     36  C   UNL     1      -5.178  11.393  -2.315  0.00  0.00    +0.109 C 
ENDBRANCH  29  32
ENDBRANCH  27  29
ENDBRANCH  20  23
ENDBRANCH   2  19
TORSDOF 6
