REMARK  Name = ZINC43218877
REMARK  11 active torsions:
REMARK  status: ('A' for Active; 'I' for Inactive)
REMARK    1  A    between atoms: C_1  and  C_2
REMARK    2  A    between atoms: C_2  and  C_3
REMARK    3  A    between atoms: C_6  and  N_9
REMARK    4  A    between atoms: C_14  and  C_31
REMARK    5  A    between atoms: C_17  and  C_22
REMARK    6  A    between atoms: C_17  and  C_28
REMARK    7  A    between atoms: C_34  and  O_40
REMARK    8  A    between atoms: C_35  and  C_39
REMARK    9  A    between atoms: C_36  and  O_37
REMARK   10  A    between atoms: O_37  and  C_38
REMARK   11  A    between atoms: O_40  and  C_41
REMARK                            x       y       z     vdW  Elec       q    Type
REMARK                         _______ _______ _______ _____ _____    ______ ____
ROOT
ATOM      1  N   UNL     1       2.789  -2.095  -4.591  0.00  0.00    -0.210 N 
ATOM      2  C   UNL     1       2.097  -2.251  -5.766  0.00  0.00    +0.229 C 
ATOM      3  O   UNL     1       0.954  -1.921  -6.001  0.00  0.00    -0.275 OA
ATOM      4  C   UNL     1       3.029  -2.893  -6.660  0.00  0.00    +0.078 C 
ATOM      5  C   UNL     1       3.264  -3.103  -8.099  0.00  0.00    -0.023 C 
ATOM      6  N   UNL     1       4.646  -3.695  -8.109  0.00  0.00    +0.398 N 
ATOM      7  C   UNL     1       5.329  -3.284  -6.846  0.00  0.00    +0.074 C 
ATOM      8  C   UNL     1       4.397  -2.237  -6.216  0.00  0.00    +0.090 C 
ATOM      9  C   UNL     1       4.132  -2.301  -4.738  0.00  0.00    +0.229 C 
ATOM     10  O   UNL     1       4.942  -2.498  -3.858  0.00  0.00    -0.275 OA
ATOM     11  H   UNL     1       4.586  -4.701  -8.153  0.00  0.00    -0.083 HD
ATOM     12  H   UNL     1       5.161  -3.347  -8.904  0.00  0.00    -0.083 HD
ENDROOT
BRANCH   5  13
ATOM     13  C   UNL     1       2.260  -4.069  -8.673  0.00  0.00    -0.018 A 
ATOM     14  C   UNL     1       2.567  -5.414  -8.760  0.00  0.00    +0.009 A 
ATOM     15  C   UNL     1       1.649  -6.302  -9.285  0.00  0.00    +0.046 A 
ATOM     16  C   UNL     1       0.415  -5.846  -9.727  0.00  0.00    +0.126 A 
ATOM     17  C   UNL     1       0.104  -4.497  -9.641  0.00  0.00    +0.033 A 
ATOM     18  C   UNL     1       1.025  -3.609  -9.108  0.00  0.00    +0.128 A 
ATOM     19  C   UNL     1      -1.235  -3.999 -10.121  0.00  0.00    +0.051 C 
BRANCH  18  20
ATOM     20  O   UNL     1       0.722  -2.287  -9.017  0.00  0.00    -0.495 OA
ATOM     21  C   UNL     1       1.058  -1.466 -10.137  0.00  0.00    +0.277 C 
ENDBRANCH  18  20
BRANCH  16  22
ATOM     22  O   UNL     1      -0.488  -6.720 -10.245  0.00  0.00    -0.495 OA
ATOM     23  C   UNL     1      -0.100  -8.094 -10.303  0.00  0.00    +0.277 C 
ENDBRANCH  16  22
ENDBRANCH   5  13
BRANCH   1  27
ATOM     24  C   UNL     1       0.991  -1.087  -0.968  0.00  0.00    -0.048 A 
ATOM     25  C   UNL     1       0.218  -1.230  -2.106  0.00  0.00    +0.005 A 
ATOM     26  C   UNL     1       0.811  -1.564  -3.307  0.00  0.00    +0.024 A 
ATOM     27  C   UNL     1       2.184  -1.756  -3.372  0.00  0.00    +0.044 A 
ATOM     28  C   UNL     1       2.958  -1.612  -2.228  0.00  0.00    +0.024 A 
ATOM     29  C   UNL     1       2.359  -1.273  -1.030  0.00  0.00    +0.005 A 
BRANCH  24  31
ATOM     30  C   UNL     1       0.296   0.800   0.483  0.00  0.00    +0.009 C 
ATOM     31  C   UNL     1       0.340  -0.723   0.342  0.00  0.00    +0.032 C 
ENDBRANCH  24  31
ENDBRANCH   1  27
BRANCH   7  32
ATOM     32  C   UNL     1       5.506  -4.473  -5.938  0.00  0.00    -0.047 A 
ATOM     33  C   UNL     1       6.519  -4.479  -4.997  0.00  0.00    +0.003 A 
ATOM     34  C   UNL     1       6.682  -5.570  -4.164  0.00  0.00    +0.000 A 
ATOM     35  C   UNL     1       5.833  -6.655  -4.272  0.00  0.00    +0.000 A 
ATOM     36  C   UNL     1       4.820  -6.649  -5.213  0.00  0.00    +0.000 A 
ATOM     37  C   UNL     1       4.654  -5.556  -6.043  0.00  0.00    +0.003 A 
ENDBRANCH   7  32
BRANCH   7  38
ATOM     38  C   UNL     1       6.664  -2.657  -7.155  0.00  0.00    +0.350 C 
ATOM     39  O   UNL     1       7.047  -2.576  -8.309  0.00  0.00    -0.248 OA
ATOM     40  O   UNL     1       7.362  -2.232  -6.250  0.00  0.00    -0.248 OA
ENDBRANCH   7  38
TORSDOF 7
