REMARK  Name = ZINC12245107
REMARK  10 active torsions:
REMARK  status: ('A' for Active; 'I' for Inactive)
REMARK    1  A    between atoms: C_1  and  O_2
REMARK    2  A    between atoms: O_2  and  C_3
REMARK    3  A    between atoms: C_6  and  O_25
REMARK    4  A    between atoms: C_7  and  C_9
REMARK    5  A    between atoms: C_12  and  O_24
REMARK    6  A    between atoms: C_13  and  C_15
REMARK    7  A    between atoms: C_15  and  N_53
REMARK    8  A    between atoms: C_20  and  C_22
REMARK    9  A    between atoms: C_22  and  O_23
REMARK   10  A    between atoms: O_25  and  C_26
REMARK                            x       y       z     vdW  Elec       q    Type
REMARK                         _______ _______ _______ _____ _____    ______ ____
ROOT
ATOM      1  C   UNL     1       0.478  -1.174  -0.156  0.00  0.00    -0.014 A 
ATOM      2  C   UNL     1       1.793  -0.714  -0.114  0.00  0.00    +0.012 A 
ATOM      3  C   UNL     1       2.047   0.640  -0.051  0.00  0.00    +0.046 A 
ATOM      4  C   UNL     1       0.994   1.545  -0.030  0.00  0.00    +0.118 A 
ATOM      5  C   UNL     1      -0.317   1.090  -0.072  0.00  0.00    -0.022 A 
ATOM      6  C   UNL     1      -0.577  -0.263  -0.135  0.00  0.00    +0.014 A 
ENDROOT
BRANCH   1  11
ATOM      7  C   UNL     1      -0.960  -4.570   0.591  0.00  0.00    +0.121 A 
ATOM      8  C   UNL     1      -0.313  -5.353  -0.355  0.00  0.00    +0.049 A 
ATOM      9  C   UNL     1       0.588  -4.782  -1.234  0.00  0.00    +0.050 A 
ATOM     10  C   UNL     1       0.846  -3.422  -1.178  0.00  0.00    +0.128 A 
ATOM     11  C   UNL     1       0.201  -2.630  -0.224  0.00  0.00    +0.027 A 
ATOM     12  C   UNL     1      -0.706  -3.211   0.659  0.00  0.00    +0.057 A 
BRANCH   7  14
ATOM     13  C   UNL     1      -2.060  -6.546   1.327  0.00  0.00    +0.277 C 
ATOM     14  O   UNL     1      -1.845  -5.139   1.452  0.00  0.00    -0.495 OA
ENDBRANCH   7  14
BRANCH  10  15
ATOM     15  O   UNL     1       1.727  -2.860  -2.047  0.00  0.00    -0.494 OA
ATOM     16  C   UNL     1       2.349  -3.731  -2.995  0.00  0.00    +0.277 C 
ENDBRANCH  10  15
ENDBRANCH   1  11
BRANCH   4  17
ATOM     17  O   UNL     1       1.247   2.878   0.032  0.00  0.00    -0.507 OA
ATOM     18  H   UNL     1       1.305   3.227   0.932  0.00  0.00    +0.292 HD
ENDBRANCH   4  17
BRANCH   5  19
ATOM     19  C   UNL     1      -1.456   2.076  -0.056  0.00  0.00    -0.039 C 
BRANCH  19  25
ATOM     20  C   UNL     1      -1.931   1.538   2.256  0.00  0.00    -0.078 C 
ATOM     21  C   UNL     1      -1.952   2.107   3.677  0.00  0.00    -0.019 C 
ATOM     22  C   UNL     1      -3.009   3.212   3.763  0.00  0.00    -0.003 C 
ATOM     23  C   UNL     1      -2.691   4.293   2.726  0.00  0.00    -0.013 C 
ATOM     24  C   UNL     1      -2.648   3.661   1.333  0.00  0.00    -0.042 C 
ATOM     25  N   UNL     1      -1.595   2.623   1.310  0.00  0.00    +0.386 N 
ATOM     26  H   UNL     1      -0.704   3.047   1.591  0.00  0.00    -0.081 HD
BRANCH  24  27
ATOM     27  C   UNL     1      -2.311   4.734   0.296  0.00  0.00    +0.140 C 
BRANCH  27  28
ATOM     28  O   UNL     1      -1.075   5.361   0.645  0.00  0.00    -0.397 OA
ATOM     29  H   UNL     1      -0.798   6.054   0.029  0.00  0.00    +0.209 HD
ENDBRANCH  27  28
ENDBRANCH  24  27
ENDBRANCH  19  25
ENDBRANCH   5  19
TORSDOF 8
