REMARK  Name = ZINC33812459
REMARK  7 active torsions:
REMARK  status: ('A' for Active; 'I' for Inactive)
REMARK    1  A    between atoms: C_1  and  C_2
REMARK    2  A    between atoms: C_3  and  C_25
REMARK    3  A    between atoms: C_4  and  N_12
REMARK    4  A    between atoms: N_5  and  C_11
REMARK    5  A    between atoms: C_8  and  C_9
REMARK    6  A    between atoms: N_15  and  C_18
REMARK    7  A    between atoms: N_29  and  C_33
REMARK                            x       y       z     vdW  Elec       q    Type
REMARK                         _______ _______ _______ _____ _____    ______ ____
ROOT
ATOM      1  C   UNL     1       2.524   4.471  -0.226  0.00  0.00    +0.046 C 
ATOM      2  C   UNL     1       1.338   3.552  -0.088  0.00  0.00    -0.017 A 
ATOM      3  C   UNL     1       0.055   4.072   0.152  0.00  0.00    +0.019 A 
ATOM      4  C   UNL     1      -1.035   3.194   0.277  0.00  0.00    +0.112 A 
ATOM      5  N   UNL     1      -0.856   1.853   0.162  0.00  0.00    -0.298 N 
ATOM      6  C   UNL     1       0.363   1.330  -0.062  0.00  0.00    +0.270 A 
ATOM      7  O   UNL     1       0.494   0.122  -0.155  0.00  0.00    -0.266 OA
ATOM      8  C   UNL     1       1.495   2.173  -0.196  0.00  0.00    +0.120 A 
ATOM      9  C   UNL     1      -2.010   0.960   0.290  0.00  0.00    +0.154 C 
ENDROOT
BRANCH   3  10
ATOM     10  C   UNL     1      -0.145   5.518   0.270  0.00  0.00    +0.032 C 
ATOM     11  C   UNL     1       0.380   6.193   1.328  0.00  0.00    +0.077 C 
ATOM     12  C   UNL     1       0.314   7.585   1.641  0.00  0.00    +0.258 C 
ATOM     13  O   UNL     1      -0.277   8.364   0.915  0.00  0.00    -0.269 OA
ATOM     14  N   UNL     1       0.911   8.002   2.745  0.00  0.00    -0.258 N 
ATOM     15  C   UNL     1       1.572   7.138   3.547  0.00  0.00    +0.120 C 
ATOM     16  S   UNL     1       2.413   7.456   5.004  0.00  0.00    -0.027 S 
ATOM     17  S   UNL     1       1.347   5.581   2.701  0.00  0.00    -0.061 S 
ATOM     18  C   UNL     1       0.859   9.422   3.101  0.00  0.00    +0.139 C 
ENDBRANCH   3  10
BRANCH   4  19
ATOM     19  N   UNL     1      -2.283   3.693   0.509  0.00  0.00    -0.313 N 
ATOM     20  C   UNL     1      -2.750   4.496  -0.630  0.00  0.00    +0.125 C 
ATOM     21  C   UNL     1      -4.181   4.970  -0.364  0.00  0.00    +0.124 C 
ATOM     22  N   UNL     1      -4.211   5.756   0.878  0.00  0.00    -0.327 N 
ATOM     23  C   UNL     1      -3.743   4.953   2.017  0.00  0.00    +0.124 C 
ATOM     24  C   UNL     1      -2.313   4.479   1.751  0.00  0.00    +0.125 C 
BRANCH  22  25
ATOM     25  C   UNL     1      -5.490   6.267   1.116  0.00  0.00    +0.030 A 
ATOM     26  C   UNL     1      -6.141   5.983   2.309  0.00  0.00    +0.026 A 
ATOM     27  C   UNL     1      -7.403   6.493   2.545  0.00  0.00    +0.040 A 
ATOM     28  C   UNL     1      -8.023   7.279   1.588  0.00  0.00    +0.124 A 
ATOM     29  C   UNL     1      -7.377   7.559   0.396  0.00  0.00    +0.040 A 
ATOM     30  C   UNL     1      -6.113   7.056   0.158  0.00  0.00    +0.026 A 
ATOM     31  F   UNL     1      -9.259   7.773   1.819  0.00  0.00    -0.205 F 
ENDBRANCH  22  25
ENDBRANCH   4  19
BRANCH   8  32
ATOM     32  C   UNL     1       2.789   1.611  -0.439  0.00  0.00    +0.105 C 
ATOM     33  N   UNL     1       3.816   1.165  -0.632  0.00  0.00    -0.191 NA
ENDBRANCH   8  32
TORSDOF 4
