REMARK  Name = ZINC12389214
REMARK  5 active torsions:
REMARK  status: ('A' for Active; 'I' for Inactive)
REMARK    1  A    between atoms: C_1  and  C_2
REMARK    2  A    between atoms: C_16  and  O_20
REMARK    3  A    between atoms: O_20  and  C_21
REMARK    4  A    between atoms: C_21  and  C_22
REMARK    5  A    between atoms: N_24  and  C_25
REMARK                            x       y       z     vdW  Elec       q    Type
REMARK                         _______ _______ _______ _____ _____    ______ ____
ROOT
ATOM      1  C   UNL     1       9.266  -2.144  -4.720  0.00  0.00    +0.109 C 
ATOM      2  C   UNL     1       9.309  -2.340  -3.226  0.00  0.00    +0.212 C 
ATOM      3  O   UNL     1      10.015  -3.202  -2.748  0.00  0.00    -0.276 OA
ATOM      4  N   UNL     1       8.563  -1.556  -2.422  0.00  0.00    -0.301 N 
ATOM      5  C   UNL     1       8.686  -1.651  -0.961  0.00  0.00    +0.111 C 
ATOM      6  C   UNL     1       8.969  -0.254  -0.399  0.00  0.00    +0.067 C 
ATOM      7  C   UNL     1       7.886   0.714  -0.878  0.00  0.00    +0.120 C 
ATOM      8  C   UNL     1       7.907   0.794  -2.406  0.00  0.00    +0.067 C 
ATOM      9  C   UNL     1       7.612  -0.592  -2.990  0.00  0.00    +0.111 C 
ATOM     10  C   UNL     1       8.160   2.109  -0.297  0.00  0.00    +0.127 C 
ATOM     11  C   UNL     1       7.046   3.021  -0.779  0.00  0.00    +0.170 C 
ATOM     12  O   UNL     1       7.262   4.162  -1.130  0.00  0.00    -0.292 OA
ATOM     13  C   UNL     1       5.691   2.450  -0.798  0.00  0.00    +0.059 A 
ATOM     14  C   UNL     1       4.574   3.269  -0.986  0.00  0.00    +0.018 A 
ATOM     15  C   UNL     1       3.325   2.718  -1.014  0.00  0.00    +0.046 A 
ATOM     16  C   UNL     1       3.159   1.345  -0.843  0.00  0.00    +0.125 A 
ATOM     17  C   UNL     1       4.258   0.520  -0.653  0.00  0.00    +0.092 A 
ATOM     18  C   UNL     1       5.533   1.063  -0.628  0.00  0.00    +0.135 A 
ATOM     19  O   UNL     1       6.606   0.261  -0.439  0.00  0.00    -0.484 OA
ENDROOT
BRANCH  16  20
ATOM     20  O   UNL     1       1.913   0.810  -0.867  0.00  0.00    -0.483 OA
BRANCH  20  21
ATOM     21  C   UNL     1       0.823   1.712  -1.066  0.00  0.00    +0.324 C 
BRANCH  21  22
ATOM     22  C   UNL     1      -0.473   0.943  -1.064  0.00  0.00    +0.255 C 
ATOM     23  O   UNL     1      -0.464  -0.260  -0.908  0.00  0.00    -0.272 OA
ATOM     24  N   UNL     1      -1.641   1.591  -1.242  0.00  0.00    -0.281 N 
ATOM     25  H   UNL     1      -1.655   2.559  -1.306  0.00  0.00    +0.155 HD
BRANCH  24  26
ATOM     26  C   UNL     1      -2.837   0.867  -1.334  0.00  0.00    +0.052 A 
ATOM     27  C   UNL     1      -2.938  -0.386  -0.745  0.00  0.00    +0.026 A 
ATOM     28  C   UNL     1      -4.117  -1.098  -0.836  0.00  0.00    +0.022 A 
ATOM     29  C   UNL     1      -5.199  -0.564  -1.514  0.00  0.00    +0.042 A 
ATOM     30  C   UNL     1      -5.102   0.685  -2.102  0.00  0.00    +0.041 A 
ATOM     31  C   UNL     1      -3.925   1.404  -2.010  0.00  0.00    +0.064 A 
ATOM     32 CL   UNL     1      -3.806   2.973  -2.742  0.00  0.00    -0.082 Cl
ATOM     33 CL   UNL     1      -6.681  -1.462  -1.627  0.00  0.00    -0.083 Cl
ENDBRANCH  24  26
ENDBRANCH  21  22
ENDBRANCH  20  21
ENDBRANCH  16  20
TORSDOF 4
