REMARK  Name = ZINC07573066
REMARK  4 active torsions:
REMARK  status: ('A' for Active; 'I' for Inactive)
REMARK    1  A    between atoms: C_5  and  C_7
REMARK    2  A    between atoms: C_7  and  S_8
REMARK    3  A    between atoms: S_8  and  C_9
REMARK    4  A    between atoms: N_17  and  C_18
REMARK                            x       y       z     vdW  Elec       q    Type
REMARK                         _______ _______ _______ _____ _____    ______ ____
ROOT
ATOM      1  C   UNL     1       8.129   4.024  -0.052  0.00  0.00    +0.160 A 
ATOM      2  N   UNL     1       6.977   4.668  -0.038  0.00  0.00    -0.133 NA
ATOM      3  N   UNL     1       5.798   3.960  -0.031  0.00  0.00    -0.125 NA
ATOM      4  C   UNL     1       5.824   2.642  -0.038  0.00  0.00    +0.190 A 
ATOM      5  S   UNL     1       7.581   2.324  -0.048  0.00  0.00    -0.024 S 
ATOM      6  N   UNL     1       4.763   1.739  -0.033  0.00  0.00    -0.247 N 
ATOM      7  C   UNL     1       3.493   2.191  -0.019  0.00  0.00    +0.310 C 
ATOM      8  O   UNL     1       3.273   3.387  -0.011  0.00  0.00    -0.252 OA
ATOM      9  N   UNL     1       2.467   1.317  -0.014  0.00  0.00    -0.263 N 
ATOM     10  H   UNL     1       4.939   0.785  -0.039  0.00  0.00    +0.158 HD
ATOM     11  H   UNL     1       2.643   0.363  -0.020  0.00  0.00    +0.157 HD
ENDROOT
BRANCH   9  12
ATOM     12  C   UNL     1       1.150   1.785   0.001  0.00  0.00    +0.073 A 
ATOM     13  C   UNL     1      -0.013   1.076   0.008  0.00  0.00    +0.031 A 
ATOM     14  C   UNL     1      -1.212   1.764   0.017  0.00  0.00    +0.009 A 
ATOM     15  C   UNL     1      -1.195   3.118   0.029  0.00  0.00    +0.047 A 
ATOM     16  S   UNL     1       0.555   3.468   0.015  0.00  0.00    -0.082 S 
ENDBRANCH   9  12
BRANCH   1  17
ATOM     17  S   UNL     1       9.769   4.669  -0.063  0.00  0.00    -0.092 S 
BRANCH  17  18
ATOM     18  C   UNL     1       9.534   6.467  -0.052  0.00  0.00    +0.114 C 
BRANCH  18  23
ATOM     19  C   UNL     1      12.737   8.083   1.125  0.00  0.00    +0.000 A 
ATOM     20  C   UNL     1      13.344   8.402  -0.075  0.00  0.00    +0.003 A 
ATOM     21  C   UNL     1      12.719   8.096  -1.269  0.00  0.00    +0.038 A 
ATOM     22  C   UNL     1      11.485   7.469  -1.263  0.00  0.00    +0.127 A 
ATOM     23  C   UNL     1      10.878   7.150  -0.060  0.00  0.00    -0.002 A 
ATOM     24  C   UNL     1      11.502   7.462   1.133  0.00  0.00    +0.007 A 
ATOM     25  F   UNL     1      10.873   7.170  -2.430  0.00  0.00    -0.205 F 
ENDBRANCH  18  23
ENDBRANCH  17  18
ENDBRANCH   1  17
TORSDOF 4
