REMARK  Name = ZINC05100338
REMARK  9 active torsions:
REMARK  status: ('A' for Active; 'I' for Inactive)
REMARK    1  A    between atoms: C_1  and  C_2
REMARK    2  A    between atoms: C_2  and  C_3
REMARK    3  A    between atoms: C_3  and  C_5
REMARK    4  A    between atoms: C_3  and  N_6
REMARK    5  A    between atoms: C_7  and  C_9
REMARK    6  A    between atoms: N_20  and  C_23
REMARK    7  A    between atoms: C_21  and  N_22
REMARK    8  A    between atoms: C_23  and  C_24
REMARK    9  A    between atoms: C_24  and  C_25
REMARK                            x       y       z     vdW  Elec       q    Type
REMARK                         _______ _______ _______ _____ _____    ______ ____
ROOT
ATOM      1  C   UNL     1      -2.480   1.367  -2.848  0.00  0.00    +0.103 A 
ATOM      2  C   UNL     1      -2.176   1.040  -4.250  0.00  0.00    +0.122 A 
ATOM      3  C   UNL     1      -3.170   1.770  -5.043  0.00  0.00    +0.162 A 
ATOM      4  N   UNL     1      -3.152   1.668  -6.355  0.00  0.00    -0.226 NA
ATOM      5  C   UNL     1      -2.234   0.898  -6.952  0.00  0.00    +0.092 A 
ATOM      6  C   UNL     1      -2.207   0.784  -8.354  0.00  0.00    +0.030 A 
ATOM      7  C   UNL     1      -1.272  -0.002  -8.952  0.00  0.00    +0.002 A 
ATOM      8  C   UNL     1      -0.332  -0.700  -8.196  0.00  0.00    +0.002 A 
ATOM      9  C   UNL     1      -0.326  -0.615  -6.838  0.00  0.00    +0.030 A 
ATOM     10  C   UNL     1      -1.278   0.187  -6.183  0.00  0.00    +0.090 A 
ATOM     11  N   UNL     1      -1.282   0.278  -4.848  0.00  0.00    -0.241 NA
ATOM     12  N   UNL     1      -3.965   2.462  -4.153  0.00  0.00    -0.312 N 
ATOM     13  C   UNL     1      -3.569   2.232  -2.872  0.00  0.00    +0.112 A 
ENDROOT
BRANCH   1  15
ATOM     14  N   UNL     1      -0.721   1.571  -1.179  0.00  0.00    -0.309 N 
ATOM     15  C   UNL     1      -1.773   0.883  -1.664  0.00  0.00    +0.250 C 
ATOM     16  O   UNL     1      -2.135  -0.143  -1.116  0.00  0.00    -0.270 OA
ATOM     17  H   UNL     1      -0.433   2.388  -1.615  0.00  0.00    +0.149 HD
BRANCH  14  18
ATOM     18  C   UNL     1      -0.013   1.086   0.008  0.00  0.00    +0.070 C 
ATOM     19  C   UNL     1      -0.729   1.579   1.267  0.00  0.00    +0.028 C 
BRANCH  18  21
ATOM     20  C   UNL     1       2.176   1.022  -1.195  0.00  0.00    +0.005 C 
ATOM     21  C   UNL     1       1.423   1.615  -0.003  0.00  0.00    +0.018 C 
ENDBRANCH  18  21
ENDBRANCH  14  18
ENDBRANCH   1  15
BRANCH  13  22
ATOM     22  N   UNL     1      -4.159   2.776  -1.761  0.00  0.00    -0.344 N 
ATOM     23  H   UNL     1      -3.818   2.565  -0.878  0.00  0.00    +0.144 HD
ATOM     24  H   UNL     1      -4.917   3.373  -1.858  0.00  0.00    +0.144 HD
ENDBRANCH  13  22
BRANCH  12  25
ATOM     25  C   UNL     1      -5.084   3.327  -4.535  0.00  0.00    +0.129 C 
BRANCH  25  26
ATOM     26  C   UNL     1      -4.576   4.755  -4.744  0.00  0.00    +0.052 C 
BRANCH  26  27
ATOM     27  C   UNL     1      -5.727   5.645  -5.137  0.00  0.00    -0.072 C 
ATOM     28  C   UNL     1      -6.326   6.312  -4.203  0.00  0.00    -0.028 C 
ATOM     29  C   UNL     1      -7.491   7.228  -4.438  0.00  0.00    +0.027 C 
ATOM     30  C   UNL     1      -7.588   7.587  -5.923  0.00  0.00    +0.004 C 
ATOM     31  C   UNL     1      -7.512   6.292  -6.741  0.00  0.00    +0.005 C 
ATOM     32  C   UNL     1      -6.104   5.708  -6.588  0.00  0.00    +0.030 C 
ENDBRANCH  26  27
ENDBRANCH  25  26
ENDBRANCH  12  25
TORSDOF 7
