REMARK  Name = ZINC09313116
REMARK  18 active torsions:
REMARK  status: ('A' for Active; 'I' for Inactive)
REMARK    1  A    between atoms: C_1  and  C_2
REMARK    2  A    between atoms: C_2  and  C_3
REMARK    3  A    between atoms: C_3  and  O_4
REMARK    4  A    between atoms: O_4  and  C_5
REMARK    5  A    between atoms: C_8  and  C_14
REMARK    6  A    between atoms: C_10  and  O_11
REMARK    7  A    between atoms: O_11  and  C_12
REMARK    8  A    between atoms: C_12  and  C_13
REMARK    9  A    between atoms: C_17  and  C_18
REMARK   10  A    between atoms: C_17  and  O_29
REMARK   11  A    between atoms: C_25  and  C_28
REMARK   12  A    between atoms: N_34  and  C_35
REMARK   13  A    between atoms: C_35  and  C_36
REMARK   14  A    between atoms: C_36  and  N_79
REMARK   15  A    between atoms: C_37  and  C_38
REMARK   16  A    between atoms: C_37  and  N_79
REMARK   17  A    between atoms: C_39  and  C_40
REMARK   18  A    between atoms: C_39  and  N_79
REMARK                            x       y       z     vdW  Elec       q    Type
REMARK                         _______ _______ _______ _____ _____    ______ ____
ROOT
ATOM      1  C   UNL     1      -0.245   1.558  -5.451  0.00  0.00    +0.144 C 
ATOM      2  C   UNL     1      -1.303   2.036  -6.418  0.00  0.00    +0.071 C 
ATOM      3  C   UNL     1      -1.358   1.791  -7.776  0.00  0.00    +0.133 C 
ATOM      4  C   UNL     1      -2.216   2.784  -5.659  0.00  0.00    +0.249 C 
ATOM      5  O   UNL     1      -3.212   3.340  -6.085  0.00  0.00    -0.282 OA
ATOM      6  C   UNL     1      -1.758   2.779  -4.244  0.00  0.00    +0.288 C 
ATOM      7  O   UNL     1      -2.325   3.336  -3.326  0.00  0.00    -0.266 OA
ATOM      8  N   UNL     1      -0.623   2.068  -4.129  0.00  0.00    -0.285 N 
ENDROOT
BRANCH   3   9
ATOM      9  C   UNL     1      -2.533   2.215  -8.553  0.00  0.00    +0.017 A 
ATOM     10  C   UNL     1      -3.822   1.868  -8.130  0.00  0.00    +0.015 A 
ATOM     11  C   UNL     1      -4.918   2.273  -8.853  0.00  0.00    +0.046 A 
ATOM     12  C   UNL     1      -4.759   3.022 -10.021  0.00  0.00    +0.124 A 
ATOM     13  C   UNL     1      -3.474   3.353 -10.444  0.00  0.00    -0.002 A 
ATOM     14  C   UNL     1      -2.371   2.963  -9.727  0.00  0.00    +0.019 A 
ATOM     15  C   UNL     1      -3.621   4.137 -11.735  0.00  0.00    +0.083 C 
ATOM     16  C   UNL     1      -5.084   3.827 -12.131  0.00  0.00    +0.175 C 
ATOM     17  O   UNL     1      -5.698   3.520 -10.868  0.00  0.00    -0.488 OA
ATOM     18  C   UNL     1      -5.147   2.623 -13.072  0.00  0.00    +0.052 C 
ENDBRANCH   3   9
BRANCH   1  22
ATOM     19  C   UNL     1       3.581   3.106  -6.572  0.00  0.00    +0.162 A 
ATOM     20  C   UNL     1       2.663   3.920  -5.928  0.00  0.00    +0.050 A 
ATOM     21  C   UNL     1       1.427   3.417  -5.567  0.00  0.00    +0.009 A 
ATOM     22  C   UNL     1       1.104   2.102  -5.847  0.00  0.00    -0.019 A 
ATOM     23  C   UNL     1       2.017   1.283  -6.484  0.00  0.00    +0.055 A 
ATOM     24  C   UNL     1       3.256   1.782  -6.854  0.00  0.00    +0.162 A 
BRANCH  19  25
ATOM     25  O   UNL     1       4.797   3.600  -6.929  0.00  0.00    -0.488 OA
BRANCH  25  26
ATOM     26  C   UNL     1       5.061   4.967  -6.609  0.00  0.00    +0.229 C 
BRANCH  26  28
ATOM     27  C   UNL     1       6.750   6.803  -6.741  0.00  0.00    +0.007 C 
ATOM     28  C   UNL     1       6.467   5.339  -7.084  0.00  0.00    +0.038 C 
ENDBRANCH  26  28
ENDBRANCH  25  26
ENDBRANCH  19  25
BRANCH  24  29
ATOM     29  O   UNL     1       4.153   0.980  -7.486  0.00  0.00    -0.489 OA
BRANCH  29  30
ATOM     30  C   UNL     1       3.751  -0.367  -7.742  0.00  0.00    +0.226 C 
ATOM     31  C   UNL     1       4.883  -1.111  -8.454  0.00  0.00    +0.048 C 
ENDBRANCH  29  30
ENDBRANCH  24  29
ENDBRANCH   1  22
BRANCH   3  32
ATOM     32  O   UNL     1      -0.333   1.163  -8.390  0.00  0.00    -0.506 OA
ATOM     33  H   UNL     1      -0.536   1.068  -9.365  0.00  0.00    +0.292 HD
ENDBRANCH   3  32
BRANCH   8  34
ATOM     34  C   UNL     1       0.119   1.844  -2.886  0.00  0.00    +0.090 C 
BRANCH  34  35
ATOM     35  C   UNL     1      -0.394   0.572  -2.208  0.00  0.00    -0.060 C 
BRANCH  35  36
ATOM     36  N   UNL     1       0.334   0.387  -0.935  0.00  0.00    +0.380 N 
ATOM     37  H   UNL     1       0.364   1.283  -0.434  0.00  0.00    -0.082 HD
BRANCH  36  38
ATOM     38  C   UNL     1      -0.365  -0.609  -0.094  0.00  0.00    -0.082 C 
ATOM     39  C   UNL     1      -1.634   0.031   0.473  0.00  0.00    -0.017 C 
ENDBRANCH  36  38
BRANCH  36  40
ATOM     40  C   UNL     1       1.716  -0.061  -1.204  0.00  0.00    -0.082 C 
ATOM     41  C   UNL     1       2.509  -0.029   0.105  0.00  0.00    -0.017 C 
ENDBRANCH  36  40
ENDBRANCH  35  36
ENDBRANCH  34  35
ENDBRANCH   8  34
TORSDOF 13
