REMARK  Name = ZINC12031330
REMARK  8 active torsions:
REMARK  status: ('A' for Active; 'I' for Inactive)
REMARK    1  A    between atoms: C_1  and  C_2
REMARK    2  A    between atoms: C_4  and  C_13
REMARK    3  A    between atoms: C_17  and  O_19
REMARK    4  A    between atoms: C_24  and  C_25
REMARK    5  A    between atoms: C_24  and  N_58
REMARK    6  A    between atoms: C_28  and  C_30
REMARK    7  A    between atoms: C_30  and  O_31
REMARK    8  A    between atoms: O_31  and  C_32
REMARK                            x       y       z     vdW  Elec       q    Type
REMARK                         _______ _______ _______ _____ _____    ______ ____
ROOT
ATOM      1  C   UNL     1       3.718   3.201  -0.000  0.00  0.00    +0.004 A 
ATOM      2  C   UNL     1       3.256   2.530  -1.134  0.00  0.00    +0.015 A 
ATOM      3  C   UNL     1       2.003   1.960  -1.124  0.00  0.00    -0.018 A 
ATOM      4  C   UNL     1       1.204   2.028   0.002  0.00  0.00    +0.163 A 
ATOM      5  C   UNL     1       1.655   2.706   1.134  0.00  0.00    +0.159 A 
ATOM      6  C   UNL     1       2.908   3.290   1.131  0.00  0.00    +0.059 A 
ATOM      7  O   UNL     1      -0.017   1.429   0.010  0.00  0.00    -0.490 OA
ATOM      8  C   UNL     1       0.002  -0.004   0.002  0.00  0.00    +0.211 C 
ATOM      9  C   UNL     1       0.111  -0.529  -1.414  0.00  0.00    -0.036 C 
ATOM     10  C   UNL     1       1.480   1.250  -2.360  0.00  0.00    -0.038 C 
ATOM     11  N   UNL     1       1.402  -0.199  -2.052  0.00  0.00    +0.389 N 
ATOM     12  H   UNL     1       2.162  -0.439  -1.404  0.00  0.00    -0.081 HD
ENDROOT
BRANCH   1  16
ATOM     13  C   UNL     1       7.253   5.783   2.387  0.00  0.00    +0.044 C 
ATOM     14  C   UNL     1       6.751   5.058   1.165  0.00  0.00    -0.039 A 
ATOM     15  C   UNL     1       5.513   4.487   1.151  0.00  0.00    +0.032 A 
ATOM     16  C   UNL     1       5.066   3.817   0.001  0.00  0.00    +0.072 A 
ATOM     17  N   UNL     1       5.822   3.717  -1.076  0.00  0.00    -0.247 NA
ATOM     18  C   UNL     1       7.041   4.262  -1.121  0.00  0.00    +0.075 A 
ATOM     19  C   UNL     1       7.549   4.952   0.009  0.00  0.00    +0.004 A 
ATOM     20  C   UNL     1       8.834   5.516  -0.043  0.00  0.00    +0.013 A 
ATOM     21  C   UNL     1       9.578   5.395  -1.176  0.00  0.00    +0.039 A 
ATOM     22  C   UNL     1       9.081   4.717  -2.289  0.00  0.00    +0.125 A 
ATOM     23  C   UNL     1       7.839   4.157  -2.273  0.00  0.00    +0.066 A 
ATOM     24  F   UNL     1       9.843   4.613  -3.400  0.00  0.00    -0.205 F 
ENDBRANCH   1  16
BRANCH   5  25
ATOM     25  O   UNL     1       0.864   2.792   2.236  0.00  0.00    -0.503 OA
ATOM     26  H   UNL     1       0.285   3.567   2.246  0.00  0.00    +0.292 HD
ENDBRANCH   5  25
BRANCH  11  27
ATOM     27  C   UNL     1       1.565  -0.983  -3.287  0.00  0.00    -0.003 C 
BRANCH  27  28
ATOM     28  C   UNL     1       1.742  -2.432  -2.912  0.00  0.00    +0.089 A 
ATOM     29  C   UNL     1       0.756  -3.339  -2.791  0.00  0.00    +0.043 A 
ATOM     30  C   UNL     1       1.367  -4.562  -2.428  0.00  0.00    +0.047 A 
ATOM     31  C   UNL     1       2.689  -4.328  -2.349  0.00  0.00    +0.131 A 
ATOM     32  O   UNL     1       2.911  -3.038  -2.648  0.00  0.00    -0.464 OA
BRANCH  31  33
ATOM     33  C   UNL     1       3.743  -5.344  -1.991  0.00  0.00    +0.233 C 
BRANCH  33  34
ATOM     34  O   UNL     1       4.211  -5.984  -3.180  0.00  0.00    -0.375 OA
ATOM     35  C   UNL     1       5.219  -6.971  -2.950  0.00  0.00    +0.194 C 
ENDBRANCH  33  34
ENDBRANCH  31  33
ENDBRANCH  27  28
ENDBRANCH  11  27
TORSDOF 6
