REMARK  Name = ZINC12309641
REMARK  12 active torsions:
REMARK  status: ('A' for Active; 'I' for Inactive)
REMARK    1  A    between atoms: C_1  and  C_2
REMARK    2  A    between atoms: C_2  and  C_3
REMARK    3  A    between atoms: C_3  and  C_4
REMARK    4  A    between atoms: C_10  and  N_11
REMARK    5  A    between atoms: N_11  and  O_12
REMARK    6  A    between atoms: O_12  and  C_13
REMARK    7  A    between atoms: C_13  and  C_14
REMARK    8  A    between atoms: N_16  and  C_17
REMARK    9  A    between atoms: C_20  and  O_23
REMARK   10  A    between atoms: O_23  and  C_24
REMARK   11  A    between atoms: N_30  and  C_35
REMARK   12  A    between atoms: N_33  and  C_34
REMARK                            x       y       z     vdW  Elec       q    Type
REMARK                         _______ _______ _______ _____ _____    ______ ____
ROOT
ATOM      1  N   UNL     1      -1.098   6.123   0.289  0.00  0.00    -0.264 N 
ATOM      2  H   UNL     1      -1.185   7.150  -0.097  0.00  0.00    +0.194 HD
ENDROOT
BRANCH   1   9
ATOM      3  C   UNL     1       1.275   6.067  -0.269  0.00  0.00    -0.005 A 
ATOM      4  C   UNL     1       2.388   5.317  -0.258  0.00  0.00    +0.090 A 
ATOM      5  N   UNL     1       2.357   3.982   0.043  0.00  0.00    -0.347 N 
ATOM      6  H   UNL     1       3.291   3.447   0.272  0.00  0.00    +0.167 HD
ATOM      7  C   UNL     1       1.196   3.275   0.073  0.00  0.00    +0.129 A 
ATOM      8  C   UNL     1      -0.024   3.946   0.082  0.00  0.00    +0.106 A 
ATOM      9  C   UNL     1      -0.014   5.421   0.049  0.00  0.00    +0.082 A 
ATOM     10  C   UNL     1      -1.227   3.204   0.122  0.00  0.00    +0.268 A 
ATOM     11  O   UNL     1      -2.305   3.770   0.135  0.00  0.00    -0.267 OA
ATOM     12  N   UNL     1      -1.157   1.855   0.142  0.00  0.00    -0.263 N 
ATOM     13  C   UNL     1       0.031   1.228   0.134  0.00  0.00    +0.333 A 
ATOM     14  O   UNL     1       0.057   0.012   0.155  0.00  0.00    -0.246 OA
ATOM     15  N   UNL     1       1.194   1.904   0.098  0.00  0.00    -0.282 N 
ATOM     16  C   UNL     1       2.463   1.173   0.086  0.00  0.00    +0.155 C 
ATOM     17  C   UNL     1      -2.392   1.067   0.177  0.00  0.00    +0.157 C 
BRANCH   3  18
ATOM     18  C   UNL     1       1.339   7.537  -0.598  0.00  0.00    +0.038 C 
BRANCH  18  20
ATOM     19  C   UNL     1       2.759   9.590  -0.495  0.00  0.00    +0.004 C 
ATOM     20  C   UNL     1       2.693   8.098  -0.161  0.00  0.00    +0.001 C 
ENDBRANCH  18  20
ENDBRANCH   3  18
ENDBRANCH   1   9
BRANCH   1  21
ATOM     21  O   UNL     1      -2.154   5.560   1.046  0.00  0.00    -0.265 OA
BRANCH  21  22
ATOM     22  C   UNL     1      -3.268   6.435   1.230  0.00  0.00    +0.288 C 
BRANCH  22  23
ATOM     23  C   UNL     1      -4.326   5.736   2.045  0.00  0.00    +0.246 C 
ATOM     24  O   UNL     1      -4.144   4.600   2.430  0.00  0.00    -0.273 OA
ATOM     25  N   UNL     1      -5.476   6.373   2.345  0.00  0.00    -0.284 N 
ATOM     26  H   UNL     1      -5.680   7.367   1.922  0.00  0.00    +0.155 HD
BRANCH  25  27
ATOM     27  C   UNL     1      -6.410   5.768   3.197  0.00  0.00    +0.034 A 
ATOM     28  C   UNL     1      -7.768   5.966   2.990  0.00  0.00    +0.027 A 
ATOM     29  C   UNL     1      -8.688   5.367   3.828  0.00  0.00    +0.048 A 
ATOM     30  C   UNL     1      -8.255   4.574   4.881  0.00  0.00    +0.130 A 
ATOM     31  C   UNL     1      -6.898   4.380   5.090  0.00  0.00    +0.048 A 
ATOM     32  C   UNL     1      -5.977   4.975   4.251  0.00  0.00    +0.027 A 
BRANCH  30  33
ATOM     33  O   UNL     1      -9.161   3.989   5.708  0.00  0.00    -0.406 OA
BRANCH  33  34
ATOM     34  C   UNL     1     -10.543   4.232   5.433  0.00  0.00    +0.575 C 
ATOM     35  F   UNL     1     -10.851   3.769   4.150  0.00  0.00    -0.133 F 
ATOM     36  F   UNL     1     -11.330   3.559   6.373  0.00  0.00    -0.133 F 
ATOM     37  F   UNL     1     -10.798   5.606   5.508  0.00  0.00    -0.133 F 
ENDBRANCH  33  34
ENDBRANCH  30  33
ENDBRANCH  25  27
ENDBRANCH  22  23
ENDBRANCH  21  22
ENDBRANCH   1  21
TORSDOF 9
