REMARK  Name = ZINC12914449
REMARK  6 active torsions:
REMARK  status: ('A' for Active; 'I' for Inactive)
REMARK    1  A    between atoms: C_1  and  C_2
REMARK    2  A    between atoms: C_3  and  C_11
REMARK    3  A    between atoms: C_7  and  N_8
REMARK    4  A    between atoms: N_13  and  C_14
REMARK    5  A    between atoms: C_14  and  C_16
REMARK    6  A    between atoms: C_14  and  C_23
REMARK                            x       y       z     vdW  Elec       q    Type
REMARK                         _______ _______ _______ _____ _____    ______ ____
ROOT
ATOM      1  C   UNL     1       1.774   2.857  -1.832  0.00  0.00    +0.245 C 
ATOM      2  O   UNL     1       2.218   3.069  -0.720  0.00  0.00    -0.270 OA
ATOM      3  N   UNL     1       0.442   2.800  -2.026  0.00  0.00    -0.304 N 
ATOM      4  H   UNL     1       0.087   2.630  -2.912  0.00  0.00    +0.150 HD
ENDROOT
BRANCH   1   7
ATOM      5  C   UNL     1       4.615   3.266  -1.461  0.00  0.00    +0.047 C 
ATOM      6  C   UNL     1       4.068   2.855  -2.804  0.00  0.00    -0.008 A 
ATOM      7  C   UNL     1       2.696   2.661  -2.971  0.00  0.00    +0.042 A 
ATOM      8  C   UNL     1       2.197   2.286  -4.219  0.00  0.00    +0.013 A 
ATOM      9  C   UNL     1       3.063   2.104  -5.278  0.00  0.00    +0.003 A 
ATOM     10  C   UNL     1       4.423   2.293  -5.104  0.00  0.00    +0.033 A 
ATOM     11  C   UNL     1       4.923   2.666  -3.869  0.00  0.00    +0.130 A 
BRANCH  11  12
ATOM     12  N   UNL     1       6.379   2.866  -3.692  0.00  0.00    +0.057 N 
ATOM     13  O   UNL     1       7.121   2.826  -4.657  0.00  0.00    -0.126 OA
ATOM     14  O   UNL     1       6.835   3.071  -2.582  0.00  0.00    -0.126 OA
ENDBRANCH  11  12
ENDBRANCH   1   7
BRANCH   3  15
ATOM     15  C   UNL     1      -0.472   2.994  -0.897  0.00  0.00    +0.107 C 
BRANCH  15  16
ATOM     16  C   UNL     1      -1.801   3.489  -1.406  0.00  0.00    -0.027 A 
ATOM     17  C   UNL     1      -2.330   2.972  -2.573  0.00  0.00    +0.007 A 
ATOM     18  C   UNL     1      -3.552   3.422  -3.037  0.00  0.00    +0.020 A 
ATOM     19  C   UNL     1      -4.240   4.399  -2.339  0.00  0.00    +0.041 A 
ATOM     20  C   UNL     1      -3.707   4.920  -1.174  0.00  0.00    +0.020 A 
ATOM     21  C   UNL     1      -2.487   4.465  -0.708  0.00  0.00    +0.007 A 
ATOM     22 CL   UNL     1      -5.771   4.969  -2.925  0.00  0.00    -0.084 Cl
ENDBRANCH  15  16
BRANCH  15  23
ATOM     23  C   UNL     1      -0.669   1.664  -0.166  0.00  0.00    +0.014 C 
ATOM     24  C   UNL     1       0.571   0.994   0.429  0.00  0.00    +0.006 C 
ATOM     25  C   UNL     1      -0.457   1.653   1.350  0.00  0.00    +0.006 C 
ENDBRANCH  15  23
ENDBRANCH   3  15
TORSDOF 5
