REMARK  Name = ZINC00896107
REMARK  9 active torsions:
REMARK  status: ('A' for Active; 'I' for Inactive)
REMARK    1  A    between atoms: C_1  and  C_2
REMARK    2  A    between atoms: C_8  and  C_10
REMARK    3  A    between atoms: C_10  and  C_12
REMARK    4  A    between atoms: C_10  and  N_22
REMARK    5  A    between atoms: C_12  and  C_13
REMARK    6  A    between atoms: C_16  and  N_19
REMARK    7  A    between atoms: C_23  and  C_25
REMARK    8  A    between atoms: C_25  and  C_26
REMARK    9  A    between atoms: C_25  and  C_32
REMARK                            x       y       z     vdW  Elec       q    Type
REMARK                         _______ _______ _______ _____ _____    ______ ____
ROOT
ATOM      1  C   UNL     1       0.130  -1.454   0.774  0.00  0.00    +0.163 C 
ENDROOT
BRANCH   1   9
ATOM      2  C   UNL     1      -2.830  -4.376   6.862  0.00  0.00    +0.066 C 
ATOM      3  C   UNL     1      -2.015  -3.361   6.102  0.00  0.00    +0.047 A 
ATOM      4  C   UNL     1      -1.412  -2.333   6.747  0.00  0.00    +0.071 A 
ATOM      5  S   UNL     1      -0.624  -1.498   5.378  0.00  0.00    -0.060 S 
ATOM      6  C   UNL     1      -1.161  -2.569   4.121  0.00  0.00    +0.165 A 
ATOM      7  N   UNL     1      -1.877  -3.449   4.794  0.00  0.00    -0.230 NA
ATOM      8  N   UNL     1      -0.907  -2.511   2.756  0.00  0.00    -0.263 N 
ATOM      9  C   UNL     1      -0.146  -1.518   2.254  0.00  0.00    +0.239 C 
ATOM     10  O   UNL     1       0.316  -0.675   2.994  0.00  0.00    -0.273 OA
ATOM     11  H   UNL     1      -1.276  -3.185   2.164  0.00  0.00    +0.157 HD
ENDBRANCH   1   9
BRANCH   1  12
ATOM     12  N   UNL     1       0.973  -0.292   0.484  0.00  0.00    -0.303 N 
ATOM     13  C   UNL     1       0.411   0.919   0.300  0.00  0.00    +0.225 C 
ATOM     14  O   UNL     1      -0.793   1.046   0.369  0.00  0.00    -0.275 OA
ATOM     15  H   UNL     1       1.936  -0.394   0.424  0.00  0.00    +0.149 HD
BRANCH  13  16
ATOM     16  C   UNL     1       1.278   2.115   0.001  0.00  0.00    +0.135 C 
BRANCH  16  17
ATOM     17  C   UNL     1       2.047   1.873  -1.272  0.00  0.00    -0.031 A 
ATOM     18  C   UNL     1       3.418   2.049  -1.297  0.00  0.00    +0.005 A 
ATOM     19  C   UNL     1       4.123   1.821  -2.464  0.00  0.00    +0.000 A 
ATOM     20  C   UNL     1       3.456   1.428  -3.609  0.00  0.00    +0.000 A 
ATOM     21  C   UNL     1       2.084   1.258  -3.586  0.00  0.00    +0.000 A 
ATOM     22  C   UNL     1       1.380   1.480  -2.418  0.00  0.00    +0.005 A 
ENDBRANCH  16  17
BRANCH  16  23
ATOM     23  C   UNL     1       0.411   3.337  -0.160  0.00  0.00    -0.031 A 
ATOM     24  C   UNL     1      -0.637   3.326  -1.060  0.00  0.00    +0.005 A 
ATOM     25  C   UNL     1      -1.436   4.446  -1.204  0.00  0.00    +0.000 A 
ATOM     26  C   UNL     1      -1.179   5.579  -0.456  0.00  0.00    +0.000 A 
ATOM     27  C   UNL     1      -0.127   5.591   0.441  0.00  0.00    +0.000 A 
ATOM     28  C   UNL     1       0.669   4.470   0.589  0.00  0.00    +0.005 A 
ENDBRANCH  16  23
ENDBRANCH  13  16
ENDBRANCH   1  12
BRANCH   1  29
ATOM     29  C   UNL     1       0.851  -2.730   0.335  0.00  0.00    +0.067 C 
BRANCH  29  30
ATOM     30  C   UNL     1       1.018  -2.723  -1.163  0.00  0.00    -0.045 A 
ATOM     31  C   UNL     1       0.043  -3.279  -1.970  0.00  0.00    +0.006 A 
ATOM     32  C   UNL     1       0.193  -3.268  -3.344  0.00  0.00    +0.033 A 
ATOM     33  C   UNL     1       1.323  -2.709  -3.911  0.00  0.00    +0.126 A 
ATOM     34  C   UNL     1       2.301  -2.158  -3.104  0.00  0.00    +0.033 A 
ATOM     35  C   UNL     1       2.148  -2.164  -1.730  0.00  0.00    +0.006 A 
BRANCH  33  36
ATOM     36  N   UNL     1       1.487  -2.701  -5.382  0.00  0.00    +0.056 N 
ATOM     37  O   UNL     1       2.482  -2.208  -5.881  0.00  0.00    -0.126 OA
ATOM     38  O   UNL     1       0.625  -3.187  -6.093  0.00  0.00    -0.126 OA
ENDBRANCH  33  36
ENDBRANCH  29  30
ENDBRANCH   1  29
TORSDOF 8
