REMARK  Name = ZINC35693624
REMARK  14 active torsions:
REMARK  status: ('A' for Active; 'I' for Inactive)
REMARK    1  A    between atoms: C_1  and  C_2
REMARK    2  A    between atoms: C_3  and  C_31
REMARK    3  A    between atoms: C_4  and  C_23
REMARK    4  A    between atoms: C_7  and  C_12
REMARK    5  A    between atoms: C_13  and  N_15
REMARK    6  A    between atoms: N_15  and  C_16
REMARK    7  A    between atoms: C_16  and  C_17
REMARK    8  A    between atoms: C_17  and  N_18
REMARK    9  A    between atoms: C_26  and  O_29
REMARK   10  A    between atoms: O_29  and  C_30
REMARK   11  A    between atoms: C_31  and  O_33
REMARK   12  A    between atoms: O_33  and  C_34
REMARK   13  A    between atoms: C_34  and  C_35
REMARK   14  A    between atoms: C_34  and  C_36
REMARK                            x       y       z     vdW  Elec       q    Type
REMARK                         _______ _______ _______ _____ _____    ______ ____
ROOT
ATOM      1  C   UNL     1       0.342   1.176   0.865  0.00  0.00    +0.066 C 
ATOM      2  C   UNL     1       0.265  -0.282   0.492  0.00  0.00    +0.053 C 
ATOM      3  C   UNL     1      -0.964  -0.912   0.438  0.00  0.00    +0.082 C 
ATOM      4  C   UNL     1      -0.989  -2.376   0.058  0.00  0.00    +0.150 C 
ATOM      5  N   UNL     1       0.319  -3.023  -0.229  0.00  0.00    -0.267 N 
ATOM      6  C   UNL     1       0.534  -4.338  -0.593  0.00  0.00    +0.048 C 
ATOM      7  C   UNL     1       1.809  -4.728  -0.810  0.00  0.00    +0.072 C 
ATOM      8  S   UNL     1       2.713  -3.224  -0.499  0.00  0.00    -0.060 S 
ATOM      9  C   UNL     1       1.421  -2.221  -0.120  0.00  0.00    +0.166 C 
ATOM     10  N   UNL     1       1.373  -0.948   0.212  0.00  0.00    -0.230 NA
ENDROOT
BRANCH   4  11
ATOM     11  C   UNL     1      -1.644  -3.136   1.183  0.00  0.00    -0.022 A 
ATOM     12  C   UNL     1      -0.958  -3.349   2.364  0.00  0.00    +0.009 A 
ATOM     13  C   UNL     1      -1.556  -4.046   3.396  0.00  0.00    +0.046 A 
ATOM     14  C   UNL     1      -2.847  -4.532   3.246  0.00  0.00    +0.120 A 
ATOM     15  C   UNL     1      -3.534  -4.316   2.060  0.00  0.00    +0.046 A 
ATOM     16  C   UNL     1      -2.933  -3.614   1.033  0.00  0.00    +0.009 A 
BRANCH  14  17
ATOM     17  O   UNL     1      -3.438  -5.218   4.260  0.00  0.00    -0.495 OA
ATOM     18  C   UNL     1      -4.769  -5.688   4.036  0.00  0.00    +0.277 C 
ENDBRANCH  14  17
ENDBRANCH   4  11
BRANCH   6  19
ATOM     19  C   UNL     1      -0.585  -5.280  -0.737  0.00  0.00    +0.091 C 
ATOM     20  C   UNL     1      -0.342  -6.585  -0.964  0.00  0.00    +0.239 C 
ATOM     21  O   UNL     1       0.930  -7.052  -0.937  0.00  0.00    -0.271 OA
BRANCH  20  22
ATOM     22  N   UNL     1      -1.391  -7.450  -1.226  0.00  0.00    -0.314 N 
ATOM     23  H   UNL     1      -2.306  -7.132  -1.172  0.00  0.00    +0.149 HD
BRANCH  22  24
ATOM     24  C   UNL     1      -1.119  -8.844  -1.584  0.00  0.00    +0.086 C 
BRANCH  24  25
ATOM     25  C   UNL     1      -2.432  -9.544  -1.940  0.00  0.00    -0.060 C 
BRANCH  25  26
ATOM     26  N   UNL     1      -2.160 -10.943  -2.299  0.00  0.00    +0.381 N 
ATOM     27  C   UNL     1      -1.720 -11.702  -1.101  0.00  0.00    -0.079 C 
ATOM     28  C   UNL     1      -2.021 -13.173  -1.484  0.00  0.00    -0.020 C 
ATOM     29  C   UNL     1      -3.346 -13.061  -2.272  0.00  0.00    -0.020 C 
ATOM     30  C   UNL     1      -3.400 -11.601  -2.761  0.00  0.00    -0.079 C 
ATOM     31  H   UNL     1      -1.454 -10.986  -3.018  0.00  0.00    -0.082 HD
ENDBRANCH  25  26
ENDBRANCH  24  25
ENDBRANCH  22  24
ENDBRANCH  20  22
ENDBRANCH   6  19
BRANCH   3  32
ATOM     32  C   UNL     1      -2.146  -0.220   0.727  0.00  0.00    +0.339 C 
ATOM     33  O   UNL     1      -2.102   0.960   1.032  0.00  0.00    -0.245 OA
BRANCH  32  34
ATOM     34  O   UNL     1      -3.335  -0.859   0.668  0.00  0.00    -0.459 OA
BRANCH  34  35
ATOM     35  C   UNL     1      -4.500  -0.090   0.975  0.00  0.00    +0.171 C 
ATOM     36  C   UNL     1      -5.042   0.547  -0.306  0.00  0.00    +0.052 C 
ATOM     37  C   UNL     1      -5.568  -1.003   1.582  0.00  0.00    +0.052 C 
ENDBRANCH  34  35
ENDBRANCH  32  34
ENDBRANCH   3  32
TORSDOF 10
