REMARK  Name = ZINC08825975
REMARK  5 active torsions:
REMARK  status: ('A' for Active; 'I' for Inactive)
REMARK    1  A    between atoms: C_4  and  S_19
REMARK    2  A    between atoms: C_5  and  C_7
REMARK    3  A    between atoms: S_19  and  C_20
REMARK    4  A    between atoms: C_20  and  C_21
REMARK    5  A    between atoms: N_23  and  C_24
REMARK                            x       y       z     vdW  Elec       q    Type
REMARK                         _______ _______ _______ _____ _____    ______ ____
ROOT
ATOM      1  C   UNL     1      -3.754   6.666   6.529  0.00  0.00    +0.001 A 
ATOM      2  C   UNL     1      -3.545   5.340   6.183  0.00  0.00    +0.001 A 
ATOM      3  C   UNL     1      -2.888   5.019   5.014  0.00  0.00    +0.015 A 
ATOM      4  C   UNL     1      -2.420   6.027   4.178  0.00  0.00    +0.020 A 
ATOM      5  C   UNL     1      -2.631   7.371   4.527  0.00  0.00    +0.050 A 
ATOM      6  C   UNL     1      -3.303   7.679   5.712  0.00  0.00    +0.014 A 
ENDROOT
BRANCH   5   7
ATOM      7  C   UNL     1      -2.146   8.450   3.647  0.00  0.00    +0.251 C 
ATOM      8  O   UNL     1      -1.561   8.177   2.616  0.00  0.00    -0.270 OA
ATOM      9  N   UNL     1      -2.350   9.738   3.986  0.00  0.00    -0.261 N 
ATOM     10  C   UNL     1      -1.894  10.755   3.157  0.00  0.00    +0.165 A 
ATOM     11  N   UNL     1      -1.242  10.663   2.016  0.00  0.00    -0.229 NA
ATOM     12  C   UNL     1      -0.869  11.737   1.325  0.00  0.00    +0.054 A 
ATOM     13  C   UNL     1      -1.190  12.938   1.871  0.00  0.00    +0.014 A 
ATOM     14  S   UNL     1      -2.028  12.476   3.363  0.00  0.00    -0.057 S 
ATOM     15  C   UNL     1      -0.897  14.297   1.331  0.00  0.00    +0.044 C 
ATOM     16  C   UNL     1       0.156  14.156   0.220  0.00  0.00    +0.006 C 
ATOM     17  C   UNL     1      -0.264  13.018  -0.714  0.00  0.00    +0.006 C 
ATOM     18  C   UNL     1      -0.119  11.672  -0.001  0.00  0.00    +0.056 C 
ATOM     19  H   UNL     1      -2.817   9.955   4.808  0.00  0.00    +0.157 HD
ENDBRANCH   5   7
BRANCH   4  20
ATOM     20  S   UNL     1      -1.573   5.620   2.687  0.00  0.00    -0.115 S 
BRANCH  20  21
ATOM     21  C   UNL     1      -1.549   3.806   2.677  0.00  0.00    +0.170 C 
BRANCH  21  22
ATOM     22  C   UNL     1      -0.843   3.320   1.438  0.00  0.00    +0.224 C 
ATOM     23  O   UNL     1      -0.401   4.119   0.639  0.00  0.00    -0.275 OA
ATOM     24  N   UNL     1      -0.704   1.998   1.216  0.00  0.00    -0.309 N 
ATOM     25  H   UNL     1      -1.058   1.359   1.854  0.00  0.00    +0.149 HD
BRANCH  24  26
ATOM     26  C   UNL     1      -0.019   1.526   0.010  0.00  0.00    +0.035 C 
ATOM     27  C   UNL     1       1.417   2.055  -0.000  0.00  0.00    +0.029 C 
ATOM     28  C   UNL     1       2.133   1.562  -1.259  0.00  0.00    -0.008 C 
ATOM     29  C   UNL     1       2.154   0.032  -1.268  0.00  0.00    +0.007 C 
ATOM     30  C   UNL     1       0.718  -0.497  -1.257  0.00  0.00    -0.008 C 
ATOM     31  C   UNL     1       0.002  -0.004   0.002  0.00  0.00    +0.029 C 
ATOM     32  C   UNL     1      -0.022   0.009  -2.496  0.00  0.00    +0.007 C 
ATOM     33  C   UNL     1      -0.043   1.539  -2.488  0.00  0.00    -0.008 C 
ATOM     34  C   UNL     1       1.393   2.069  -2.499  0.00  0.00    +0.007 C 
ATOM     35  C   UNL     1      -0.759   2.033  -1.229  0.00  0.00    +0.029 C 
ENDBRANCH  24  26
ENDBRANCH  21  22
ENDBRANCH  20  21
ENDBRANCH   4  20
TORSDOF 5
