REMARK  Name = ZINC38743514
REMARK  6 active torsions:
REMARK  status: ('A' for Active; 'I' for Inactive)
REMARK    1  A    between atoms: C_1  and  O_2
REMARK    2  A    between atoms: O_2  and  C_3
REMARK    3  A    between atoms: C_6  and  C_9
REMARK    4  A    between atoms: C_11  and  C_15
REMARK    5  A    between atoms: C_23  and  C_25
REMARK    6  A    between atoms: C_26  and  C_27
REMARK                            x       y       z     vdW  Elec       q    Type
REMARK                         _______ _______ _______ _____ _____    ______ ____
ROOT
ATOM      1  C   UNL     1       4.670  -4.702  -5.639  0.00  0.00    +0.206 C 
ATOM      2  N   UNL     1       5.550  -3.918  -4.740  0.00  0.00    -0.231 NA
ATOM      3  N   UNL     1       6.711  -3.503  -5.546  0.00  0.00    -0.224 NA
ATOM      4  C   UNL     1       6.182  -3.527  -6.925  0.00  0.00    +0.240 C 
ATOM      5  N   UNL     1       5.405  -4.811  -6.920  0.00  0.00    -0.206 N 
ATOM      6  N   UNL     1       5.683  -5.633  -7.990  0.00  0.00    -0.174 NA
ATOM      7  C   UNL     1       6.736  -5.477  -8.747  0.00  0.00    +0.118 C 
ATOM      8  S   UNL     1       7.491  -3.936  -8.138  0.00  0.00    -0.063 S 
ATOM      9  H   UNL     1       5.064  -3.117  -4.366  0.00  0.00    +0.143 HD
ATOM     10  H   UNL     1       7.014  -2.575  -5.291  0.00  0.00    +0.144 HD
ENDROOT
BRANCH   1  13
ATOM     11  C   UNL     1       2.496  -2.494  -4.366  0.00  0.00    +0.091 C 
ATOM     12  C   UNL     1       2.595  -3.827  -4.537  0.00  0.00    +0.034 C 
ATOM     13  C   UNL     1       3.343  -3.970  -5.850  0.00  0.00    +0.190 C 
ATOM     14  N   UNL     1       3.575  -2.575  -6.259  0.00  0.00    -0.176 NA
ATOM     15  N   UNL     1       3.080  -1.838  -5.403  0.00  0.00    -0.154 NA
BRANCH  11  19
ATOM     16  C   UNL     1       0.606  -0.607  -1.056  0.00  0.00    +0.120 A 
ATOM     17  C   UNL     1       1.173   0.164  -2.062  0.00  0.00    +0.046 A 
ATOM     18  C   UNL     1       1.786  -0.445  -3.136  0.00  0.00    +0.013 A 
ATOM     19  C   UNL     1       1.837  -1.836  -3.211  0.00  0.00    +0.002 A 
ATOM     20  C   UNL     1       1.267  -2.607  -2.199  0.00  0.00    +0.013 A 
ATOM     21  C   UNL     1       0.659  -1.993  -1.125  0.00  0.00    +0.046 A 
BRANCH  16  23
ATOM     22  C   UNL     1      -0.017   1.425   0.010  0.00  0.00    +0.277 C 
ATOM     23  O   UNL     1       0.002  -0.004   0.002  0.00  0.00    -0.495 OA
ENDBRANCH  16  23
ENDBRANCH  11  19
ENDBRANCH   1  13
BRANCH   7  24
ATOM     24  C   UNL     1       7.198  -6.336  -9.841  0.00  0.00    +0.037 C 
ATOM     25  C   UNL     1       6.504  -7.444 -10.167  0.00  0.00    +0.010 C 
BRANCH  25  26
ATOM     26  C   UNL     1       6.968  -8.307 -11.265  0.00  0.00    -0.025 A 
ATOM     27  C   UNL     1       8.133  -7.983 -11.969  0.00  0.00    +0.008 A 
ATOM     28  C   UNL     1       8.562  -8.797 -12.996  0.00  0.00    +0.001 A 
ATOM     29  C   UNL     1       7.843  -9.931 -13.332  0.00  0.00    +0.000 A 
ATOM     30  C   UNL     1       6.689 -10.257 -12.641  0.00  0.00    +0.001 A 
ATOM     31  C   UNL     1       6.251  -9.457 -11.607  0.00  0.00    +0.008 A 
ENDBRANCH  25  26
ENDBRANCH   7  24
TORSDOF 5
