REMARK  Name = ZINC34255985
REMARK  9 active torsions:
REMARK  status: ('A' for Active; 'I' for Inactive)
REMARK    1  A    between atoms: C_1  and  C_2
REMARK    2  A    between atoms: C_2  and  C_3
REMARK    3  A    between atoms: C_3  and  C_4
REMARK    4  A    between atoms: C_4  and  N_5
REMARK    5  A    between atoms: C_10  and  C_25
REMARK    6  A    between atoms: C_13  and  C_18
REMARK    7  A    between atoms: C_13  and  C_22
REMARK    8  A    between atoms: C_18  and  C_20
REMARK    9  A    between atoms: C_18  and  O_21
REMARK                            x       y       z     vdW  Elec       q    Type
REMARK                         _______ _______ _______ _____ _____    ______ ____
ROOT
ATOM      1  N   UNL     1       1.427  -2.590  -2.766  0.00  0.00    -0.242 N 
ATOM      2  C   UNL     1       0.898  -2.888  -3.997  0.00  0.00    +0.224 C 
ATOM      3  O   UNL     1      -0.207  -2.615  -4.415  0.00  0.00    -0.275 OA
ATOM      4  C   UNL     1       1.952  -3.597  -4.685  0.00  0.00    +0.077 C 
ATOM      5  C   UNL     1       2.352  -3.978  -6.047  0.00  0.00    -0.025 C 
ATOM      6  N   UNL     1       3.812  -4.303  -5.926  0.00  0.00    +0.397 N 
ATOM      7  C   UNL     1       4.232  -3.978  -4.524  0.00  0.00    +0.074 C 
ATOM      8  C   UNL     1       3.240  -2.860  -4.141  0.00  0.00    +0.088 C 
ATOM      9  C   UNL     1       2.779  -2.776  -2.712  0.00  0.00    +0.225 C 
ATOM     10  O   UNL     1       3.467  -2.860  -1.718  0.00  0.00    -0.275 OA
ATOM     11  H   UNL     1       3.961  -5.284  -6.110  0.00  0.00    -0.083 HD
ATOM     12  H   UNL     1       4.342  -3.747  -6.580  0.00  0.00    -0.083 HD
ENDROOT
BRANCH   5  13
ATOM     13  C   UNL     1       2.143  -2.829  -6.999  0.00  0.00    -0.039 A 
ATOM     14  C   UNL     1       3.172  -1.940  -7.247  0.00  0.00    +0.023 A 
ATOM     15  C   UNL     1       2.979  -0.885  -8.121  0.00  0.00    +0.043 A 
ATOM     16  C   UNL     1       1.757  -0.719  -8.747  0.00  0.00    +0.041 A 
ATOM     17  C   UNL     1       0.728  -1.609  -8.500  0.00  0.00    +0.061 A 
ATOM     18  C   UNL     1       0.922  -2.668  -7.629  0.00  0.00    +0.061 A 
ATOM     19 CL   UNL     1      -0.368  -3.788  -7.324  0.00  0.00    -0.082 Cl
ATOM     20 CL   UNL     1      -0.807  -1.401  -9.286  0.00  0.00    -0.082 Cl
ATOM     21 CL   UNL     1       4.272   0.232  -8.430  0.00  0.00    -0.083 Cl
ENDBRANCH   5  13
BRANCH   7  22
ATOM     22  C   UNL     1       5.647  -3.459  -4.497  0.00  0.00    +0.349 C 
ATOM     23  O   UNL     1       6.287  -3.381  -5.532  0.00  0.00    -0.248 OA
ATOM     24  O   UNL     1       6.151  -3.118  -3.441  0.00  0.00    -0.248 OA
ENDBRANCH   7  22
BRANCH   7  25
ATOM     25  C   UNL     1       4.085  -5.202  -3.617  0.00  0.00    +0.112 C 
ATOM     26  C   UNL     1       4.903  -6.362  -4.188  0.00  0.00    +0.037 C 
BRANCH  25  27
ATOM     27  O   UNL     1       4.559  -4.883  -2.307  0.00  0.00    -0.393 OA
ATOM     28  H   UNL     1       5.488  -4.617  -2.279  0.00  0.00    +0.210 HD
ENDBRANCH  25  27
ENDBRANCH   7  25
BRANCH   1  29
ATOM     29  C   UNL     1       0.627  -2.118  -1.633  0.00  0.00    +0.116 C 
BRANCH  29  30
ATOM     30  C   UNL     1       0.554  -0.590  -1.662  0.00  0.00    +0.019 C 
BRANCH  30  32
ATOM     31  C   UNL     1      -0.355   1.430  -0.507  0.00  0.00    +0.004 C 
ATOM     32  C   UNL     1      -0.281  -0.098  -0.478  0.00  0.00    -0.002 C 
ENDBRANCH  30  32
ENDBRANCH  29  30
ENDBRANCH   1  29
TORSDOF 7
