REMARK  Name = ZINC25601645
REMARK  10 active torsions:
REMARK  status: ('A' for Active; 'I' for Inactive)
REMARK    1  A    between atoms: C_1  and  C_2
REMARK    2  A    between atoms: C_2  and  C_3
REMARK    3  A    between atoms: C_4  and  C_28
REMARK    4  A    between atoms: C_6  and  C_8
REMARK    5  A    between atoms: N_10  and  N_11
REMARK    6  A    between atoms: C_12  and  C_14
REMARK    7  A    between atoms: C_14  and  S_15
REMARK    8  A    between atoms: S_15  and  C_16
REMARK    9  A    between atoms: N_20  and  C_21
REMARK   10  A    between atoms: C_24  and  C_27
REMARK                            x       y       z     vdW  Elec       q    Type
REMARK                         _______ _______ _______ _____ _____    ______ ____
ROOT
ATOM      1  N   UNL     1      -4.931   1.652   0.034  0.00  0.00    -0.233 N 
ATOM      2  C   UNL     1      -5.967   2.514   0.043  0.00  0.00    +0.239 C 
ATOM      3  O   UNL     1      -5.761   3.709   0.049  0.00  0.00    -0.273 OA
ATOM      4  H   UNL     1      -5.117   0.568   0.029  0.00  0.00    +0.173 HD
ENDROOT
BRANCH   1   7
ATOM      5  C   UNL     1      -2.580   1.276   0.021  0.00  0.00    +0.267 C 
ATOM      6  O   UNL     1      -2.786   0.076   0.015  0.00  0.00    -0.268 OA
ATOM      7  N   UNL     1      -3.616   2.137   0.030  0.00  0.00    -0.230 N 
ATOM      8  H   UNL     1      -3.430   3.221   0.035  0.00  0.00    +0.173 HD
BRANCH   5  12
ATOM      9  C   UNL     1       1.077   3.165   0.009  0.00  0.00    -0.007 A 
ATOM     10  C   UNL     1       1.149   1.808   0.001  0.00  0.00    -0.040 A 
ATOM     11  C   UNL     1      -0.013   1.076   0.008  0.00  0.00    +0.024 A 
ATOM     12  C   UNL     1      -1.205   1.783   0.017  0.00  0.00    +0.076 A 
ATOM     13  S   UNL     1      -0.629   3.471   0.027  0.00  0.00    -0.088 S 
ATOM     14  C   UNL     1       2.487   1.115  -0.015  0.00  0.00    +0.044 C 
BRANCH   9  16
ATOM     15  C   UNL     1       2.576   4.507  -1.441  0.00  0.00    +0.009 C 
ATOM     16  C   UNL     1       2.207   4.162   0.003  0.00  0.00    +0.039 C 
ENDBRANCH   9  16
ENDBRANCH   5  12
ENDBRANCH   1   7
BRANCH   2  17
ATOM     17  C   UNL     1      -7.380   1.993   0.047  0.00  0.00    +0.174 C 
BRANCH  17  18
ATOM     18  S   UNL     1      -8.537   3.385   0.060  0.00  0.00    -0.076 S 
BRANCH  18  19
ATOM     19  C   UNL     1     -10.067   2.511   0.062  0.00  0.00    +0.196 A 
ATOM     20  N   UNL     1     -10.222   1.208   0.050  0.00  0.00    -0.122 NA
ATOM     21  N   UNL     1     -11.474   0.915   0.059  0.00  0.00    -0.137 NA
ATOM     22  C   UNL     1     -12.189   2.005   0.068  0.00  0.00    +0.230 A 
ATOM     23  N   UNL     1     -11.319   3.063   0.071  0.00  0.00    -0.277 N 
BRANCH  23  24
ATOM     24  C   UNL     1     -11.644   4.427   0.081  0.00  0.00    +0.050 A 
ATOM     25  C   UNL     1     -11.055   5.276   1.007  0.00  0.00    +0.026 A 
ATOM     26  C   UNL     1     -11.373   6.620   1.011  0.00  0.00    +0.005 A 
ATOM     27  C   UNL     1     -12.285   7.118   0.100  0.00  0.00    -0.050 A 
ATOM     28  C   UNL     1     -12.879   6.274  -0.821  0.00  0.00    +0.005 A 
ATOM     29  C   UNL     1     -12.561   4.930  -0.833  0.00  0.00    +0.026 A 
ATOM     30  C   UNL     1     -12.635   8.584   0.110  0.00  0.00    +0.044 C 
ENDBRANCH  23  24
ENDBRANCH  18  19
ENDBRANCH  17  18
ENDBRANCH   2  17
TORSDOF 7
