REMARK  Name = ZINC63293512
REMARK  7 active torsions:
REMARK  status: ('A' for Active; 'I' for Inactive)
REMARK    1  A    between atoms: C_1  and  C_2
REMARK    2  A    between atoms: C_3  and  C_28
REMARK    3  A    between atoms: C_10  and  C_13
REMARK    4  A    between atoms: C_13  and  C_14
REMARK    5  A    between atoms: C_14  and  C_15
REMARK    6  A    between atoms: N_17  and  C_18
REMARK    7  A    between atoms: C_18  and  C_19
REMARK                            x       y       z     vdW  Elec       q    Type
REMARK                         _______ _______ _______ _____ _____    ______ ____
ROOT
ATOM      1  C   UNL     1       0.091  -2.543   5.919  0.00  0.00    +0.103 C 
ENDROOT
BRANCH   1   2
ATOM      2  C   UNL     1       0.115  -3.474   7.104  0.00  0.00    +0.214 C 
ATOM      3  O   UNL     1       0.129  -4.674   6.931  0.00  0.00    -0.276 OA
ATOM      4  N   UNL     1       0.119  -2.973   8.355  0.00  0.00    -0.311 N 
ATOM      5  H   UNL     1       0.107  -2.013   8.493  0.00  0.00    +0.149 HD
BRANCH   4   6
ATOM      6  C   UNL     1       0.142  -3.878   9.506  0.00  0.00    +0.140 C 
BRANCH   6   7
ATOM      7  C   UNL     1       0.143  -3.072  10.779  0.00  0.00    -0.016 A 
ATOM      8  C   UNL     1       1.287  -2.859  11.445  0.00  0.00    +0.051 A 
ATOM      9  S   UNL     1       0.778  -1.879  12.845  0.00  0.00    -0.096 S 
ATOM     10  C   UNL     1      -0.959  -1.782  12.496  0.00  0.00    +0.020 A 
ATOM     11  C   UNL     1      -1.097  -2.511  11.295  0.00  0.00    -0.006 A 
ATOM     12  C   UNL     1      -2.403  -2.606  10.758  0.00  0.00    +0.009 A 
ATOM     13  C   UNL     1      -3.455  -2.012  11.382  0.00  0.00    +0.001 A 
ATOM     14  C   UNL     1      -3.292  -1.296  12.559  0.00  0.00    +0.001 A 
ATOM     15  C   UNL     1      -2.034  -1.188  13.121  0.00  0.00    +0.015 A 
ENDBRANCH   6   7
ENDBRANCH   4   6
ENDBRANCH   1   2
BRANCH   1  16
ATOM     16  C   UNL     1       0.090  -3.361   4.627  0.00  0.00    +0.083 C 
BRANCH  16  26
ATOM     17  C   UNL     1      -0.018   1.503   0.010  0.00  0.00    +0.045 C 
ATOM     18  C   UNL     1       0.002  -0.004   0.002  0.00  0.00    -0.026 A 
ATOM     19  C   UNL     1       0.006  -0.677  -1.159  0.00  0.00    -0.008 A 
ATOM     20  S   UNL     1       0.031  -2.384  -0.644  0.00  0.00    -0.075 S 
ATOM     21  C   UNL     1       0.036  -2.139   1.112  0.00  0.00    +0.092 A 
ATOM     22  C   UNL     1       0.024  -0.745   1.249  0.00  0.00    +0.075 A 
ATOM     23  C   UNL     1       0.030  -0.253   2.645  0.00  0.00    +0.282 A 
ATOM     24  O   UNL     1       0.016   0.945   2.879  0.00  0.00    -0.265 OA
ATOM     25  N   UNL     1       0.051  -1.143   3.648  0.00  0.00    -0.195 NA
ATOM     26  C   UNL     1       0.067  -2.430   3.442  0.00  0.00    +0.112 A 
ATOM     27  N   UNL     1       0.052  -2.952   2.199  0.00  0.00    -0.337 N 
ATOM     28  H   UNL     1       0.064  -3.914   2.080  0.00  0.00    +0.168 HD
ATOM     29  C   UNL     1      -0.008  -0.124  -2.561  0.00  0.00    +0.052 C 
ENDBRANCH  16  26
ENDBRANCH   1  16
TORSDOF 5
