REMARK  Name = ZINC43722182
REMARK  9 active torsions:
REMARK  status: ('A' for Active; 'I' for Inactive)
REMARK    1  A    between atoms: C_1  and  C_2
REMARK    2  A    between atoms: C_2  and  C_4
REMARK    3  A    between atoms: C_2  and  O_32
REMARK    4  A    between atoms: C_4  and  O_31
REMARK    5  A    between atoms: C_9  and  C_30
REMARK    6  A    between atoms: C_11  and  O_29
REMARK    7  A    between atoms: C_19  and  C_28
REMARK    8  A    between atoms: C_20  and  C_27
REMARK    9  A    between atoms: C_23  and  O_26
REMARK                            x       y       z     vdW  Elec       q    Type
REMARK                         _______ _______ _______ _____ _____    ______ ____
ROOT
ATOM      1  C   UNL     1       0.182  -0.553   1.302  0.00  0.00    +0.097 C 
ATOM      2  C   UNL     1       1.591   0.099   1.319  0.00  0.00    +0.038 C 
ATOM      3  C   UNL     1       2.615  -1.061   1.131  0.00  0.00    +0.007 C 
ATOM      4  C   UNL     1       1.742  -2.124   0.457  0.00  0.00    +0.001 C 
ATOM      5  C   UNL     1       0.468  -2.067   1.323  0.00  0.00    +0.005 C 
ATOM      6  C   UNL     1      -0.567  -2.981   0.730  0.00  0.00    +0.041 C 
ATOM      7  C   UNL     1      -0.055  -4.431   0.654  0.00  0.00    +0.119 C 
ATOM      8  C   UNL     1       1.427  -4.573   0.946  0.00  0.00    +0.027 C 
ATOM      9  C   UNL     1       2.285  -3.512   0.278  0.00  0.00    -0.001 C 
ATOM     10  C   UNL     1       3.726  -3.630   0.760  0.00  0.00    +0.005 C 
ATOM     11  C   UNL     1       4.279  -5.039   0.598  0.00  0.00    +0.007 C 
ATOM     12  C   UNL     1       3.291  -6.011  -0.033  0.00  0.00    -0.024 C 
ATOM     13  C   UNL     1       1.948  -5.983   0.679  0.00  0.00    -0.021 C 
ATOM     14  C   UNL     1       0.960  -6.849  -0.094  0.00  0.00    +0.010 C 
ATOM     15  C   UNL     1       1.444  -8.294  -0.141  0.00  0.00    +0.032 C 
ATOM     16  C   UNL     1       2.902  -8.470  -0.510  0.00  0.00    +0.115 C 
ATOM     17  C   UNL     1       3.857  -7.438   0.060  0.00  0.00    +0.038 C 
ATOM     18  C   UNL     1       2.119  -6.623   2.080  0.00  0.00    +0.012 C 
ATOM     19  C   UNL     1       3.169  -5.709  -1.533  0.00  0.00    +0.012 C 
ATOM     20  C   UNL     1       0.723  -2.401   2.797  0.00  0.00    +0.014 C 
ENDROOT
BRANCH   1  22
ATOM     21  C   UNL     1      -0.840   1.372   0.093  0.00  0.00    +0.040 C 
ATOM     22  C   UNL     1      -0.587  -0.137   0.056  0.00  0.00    +0.144 C 
BRANCH  22  23
ATOM     23  O   UNL     1      -1.837  -0.828   0.014  0.00  0.00    -0.389 OA
ATOM     24  H   UNL     1      -2.409  -0.653   0.774  0.00  0.00    +0.210 HD
ENDBRANCH  22  23
ENDBRANCH   1  22
BRANCH  16  25
ATOM     25  O   UNL     1       3.047  -8.568  -1.931  0.00  0.00    -0.392 OA
ATOM     26  H   UNL     1       2.569  -9.310  -2.325  0.00  0.00    +0.210 HD
ENDBRANCH  16  25
BRANCH   7  27
ATOM     27  O   UNL     1      -0.805  -5.208   1.603  0.00  0.00    -0.391 OA
ATOM     28  H   UNL     1      -1.758  -5.216   1.440  0.00  0.00    +0.210 HD
ENDBRANCH   7  27
BRANCH   1  29
ATOM     29  O   UNL     1      -0.538  -0.189   2.482  0.00  0.00    -0.385 OA
ATOM     30  H   UNL     1      -0.712   0.760   2.560  0.00  0.00    +0.210 HD
ENDBRANCH   1  29
TORSDOF 5
