REMARK  Name = ZINC25589491
REMARK  9 active torsions:
REMARK  status: ('A' for Active; 'I' for Inactive)
REMARK    1  A    between atoms: C_1  and  C_2
REMARK    2  A    between atoms: C_2  and  C_3
REMARK    3  A    between atoms: C_4  and  C_19
REMARK    4  A    between atoms: C_5  and  N_18
REMARK    5  A    between atoms: C_7  and  S_9
REMARK    6  A    between atoms: S_9  and  C_10
REMARK    7  A    between atoms: C_10  and  C_11
REMARK    8  A    between atoms: C_13  and  C_16
REMARK    9  A    between atoms: C_16  and  C_17
REMARK                            x       y       z     vdW  Elec       q    Type
REMARK                         _______ _______ _______ _____ _____    ______ ____
ROOT
ATOM      1  C   UNL     1      -0.043   1.256   2.593  0.00  0.00    +0.055 A 
ATOM      2  C   UNL     1       1.025   2.047   3.012  0.00  0.00    +0.043 A 
ATOM      3  C   UNL     1       1.856   1.557   4.036  0.00  0.00    +0.129 A 
ATOM      4  N   UNL     1       1.593   0.366   4.561  0.00  0.00    -0.207 NA
ATOM      5  C   UNL     1       0.565  -0.351   4.131  0.00  0.00    +0.191 A 
ATOM      6  N   UNL     1      -0.241   0.083   3.171  0.00  0.00    -0.226 NA
ENDROOT
BRANCH   2   7
ATOM      7  C   UNL     1       1.279   3.371   2.394  0.00  0.00    -0.013 A 
ATOM      8  C   UNL     1       1.711   3.454   1.071  0.00  0.00    +0.010 A 
ATOM      9  C   UNL     1       1.941   4.689   0.499  0.00  0.00    +0.020 A 
ATOM     10  C   UNL     1       1.754   5.843   1.240  0.00  0.00    +0.041 A 
ATOM     11  C   UNL     1       1.330   5.766   2.556  0.00  0.00    +0.020 A 
ATOM     12  C   UNL     1       1.092   4.537   3.135  0.00  0.00    +0.010 A 
ATOM     13 CL   UNL     1       2.052   7.393   0.517  0.00  0.00    -0.084 Cl
ENDBRANCH   2   7
BRANCH   3  14
ATOM     14  N   UNL     1       2.930   2.304   4.489  0.00  0.00    -0.343 N 
ATOM     15  H   UNL     1       3.573   1.911   5.290  0.00  0.00    +0.144 HD
ATOM     16  H   UNL     1       3.139   3.289   4.047  0.00  0.00    +0.144 HD
ENDBRANCH   3  14
BRANCH   1  18
ATOM     17  C   UNL     1      -2.103   2.550   2.113  0.00  0.00    +0.010 C 
ATOM     18  C   UNL     1      -0.964   1.733   1.500  0.00  0.00    +0.053 C 
ENDBRANCH   1  18
BRANCH   5  19
ATOM     19  S   UNL     1       0.257  -1.926   4.859  0.00  0.00    -0.076 S 
BRANCH  19  20
ATOM     20  C   UNL     1       1.609  -1.987   6.061  0.00  0.00    +0.176 C 
BRANCH  20  21
ATOM     21  C   UNL     1       1.545  -3.284   6.824  0.00  0.00    +0.238 A 
ATOM     22  N   UNL     1       2.127  -4.413   6.497  0.00  0.00    -0.195 NA
ATOM     23  C   UNL     1       1.794  -5.286   7.465  0.00  0.00    +0.172 A 
ATOM     24  N   UNL     1       1.034  -4.657   8.311  0.00  0.00    -0.061 NA
ATOM     25  O   UNL     1       0.879  -3.506   7.962  0.00  0.00    -0.337 OA
BRANCH  23  26
ATOM     26  C   UNL     1       2.219  -6.729   7.548  0.00  0.00    +0.076 C 
ATOM     27  C   UNL     1       1.198  -7.605   6.819  0.00  0.00    +0.012 C 
ENDBRANCH  23  26
ENDBRANCH  20  21
ENDBRANCH  19  20
ENDBRANCH   5  19
TORSDOF 7
