REMARK  Name = ZINC39623232
REMARK  6 active torsions:
REMARK  status: ('A' for Active; 'I' for Inactive)
REMARK    1  A    between atoms: C_1  and  C_2
REMARK    2  A    between atoms: C_4  and  C_11
REMARK    3  A    between atoms: C_5  and  C_7
REMARK    4  A    between atoms: C_15  and  C_24
REMARK    5  A    between atoms: N_26  and  C_27
REMARK    6  A    between atoms: C_27  and  C_28
REMARK                            x       y       z     vdW  Elec       q    Type
REMARK                         _______ _______ _______ _____ _____    ______ ____
ROOT
ATOM      1  C   UNL     1      -1.363  -3.414  -0.013  0.00  0.00    +0.250 C 
ATOM      2  O   UNL     1      -0.806  -4.489  -0.120  0.00  0.00    -0.270 OA
ATOM      3  N   UNL     1      -2.705  -3.358   0.096  0.00  0.00    -0.296 N 
ATOM      4  C   UNL     1      -3.565  -2.151   0.117  0.00  0.00    +0.121 C 
ATOM      5  C   UNL     1      -4.807  -2.543  -0.714  0.00  0.00    +0.100 C 
ATOM      6  C   UNL     1      -4.861  -4.078  -0.639  0.00  0.00    -0.004 C 
ATOM      7  C   UNL     1      -3.655  -4.490   0.217  0.00  0.00    +0.115 C 
ATOM      8  C   UNL     1      -4.739  -4.681  -2.036  0.00  0.00    -0.010 C 
ATOM      9  C   UNL     1      -4.853  -6.205  -1.941  0.00  0.00    -0.082 C 
ATOM     10  N   UNL     1      -6.144  -6.564  -1.342  0.00  0.00    +0.379 N 
ATOM     11  C   UNL     1      -6.215  -6.060   0.035  0.00  0.00    -0.082 C 
ATOM     12  C   UNL     1      -6.159  -4.530   0.024  0.00  0.00    -0.010 C 
ATOM     13  H   UNL     1      -6.891  -6.159  -1.886  0.00  0.00    -0.086 HD
ATOM     14  H   UNL     1      -6.243  -7.569  -1.337  0.00  0.00    -0.086 HD
ENDROOT
BRANCH   1  18
ATOM     15  C   UNL     1       0.160   1.388   0.796  0.00  0.00    +0.086 C 
ATOM     16  C   UNL     1       0.083  -0.053   0.363  0.00  0.00    +0.103 A 
ATOM     17  C   UNL     1      -0.942  -0.885   0.605  0.00  0.00    +0.058 A 
ATOM     18  C   UNL     1      -0.570  -2.171  -0.003  0.00  0.00    +0.087 A 
ATOM     19  C   UNL     1       0.661  -1.974  -0.555  0.00  0.00    +0.220 A 
ATOM     20  O   UNL     1       1.027  -0.709  -0.330  0.00  0.00    -0.455 OA
BRANCH  19  21
ATOM     21  C   UNL     1       1.470  -3.007  -1.298  0.00  0.00    +0.451 C 
ATOM     22  F   UNL     1       1.153  -2.955  -2.660  0.00  0.00    -0.163 F 
ATOM     23  F   UNL     1       2.833  -2.744  -1.127  0.00  0.00    -0.163 F 
ATOM     24  F   UNL     1       1.173  -4.279  -0.798  0.00  0.00    -0.163 F 
ENDBRANCH  19  21
ENDBRANCH   1  18
BRANCH   5  25
ATOM     25  C   UNL     1      -6.052  -1.942  -0.113  0.00  0.00    +0.218 C 
ATOM     26  O   UNL     1      -6.083  -1.666   1.067  0.00  0.00    -0.275 OA
ATOM     27  N   UNL     1      -7.130  -1.712  -0.888  0.00  0.00    -0.311 N 
ATOM     28  H   UNL     1      -7.106  -1.932  -1.832  0.00  0.00    +0.149 HD
BRANCH  27  29
ATOM     29  C   UNL     1      -8.340  -1.127  -0.304  0.00  0.00    +0.141 C 
BRANCH  29  30
ATOM     30  C   UNL     1      -9.390  -0.973  -1.373  0.00  0.00    -0.012 A 
ATOM     31  C   UNL     1      -9.594   0.257  -1.970  0.00  0.00    +0.006 A 
ATOM     32  C   UNL     1     -10.557   0.399  -2.951  0.00  0.00    +0.000 A 
ATOM     33  C   UNL     1     -11.318  -0.690  -3.336  0.00  0.00    +0.001 A 
ATOM     34  C   UNL     1     -11.115  -1.920  -2.740  0.00  0.00    +0.020 A 
ATOM     35  C   UNL     1     -10.147  -2.064  -1.762  0.00  0.00    +0.046 A 
ATOM     36 CL   UNL     1      -9.887  -3.611  -1.018  0.00  0.00    -0.083 Cl
ENDBRANCH  29  30
ENDBRANCH  27  29
ENDBRANCH   5  25
TORSDOF 5
