REMARK  Name = ZINC08968219
REMARK  9 active torsions:
REMARK  status: ('A' for Active; 'I' for Inactive)
REMARK    1  A    between atoms: C_1  and  C_2
REMARK    2  A    between atoms: N_4  and  C_5
REMARK    3  A    between atoms: C_8  and  S_11
REMARK    4  A    between atoms: S_11  and  N_14
REMARK    5  A    between atoms: N_14  and  C_15
REMARK    6  A    between atoms: C_15  and  C_16
REMARK    7  A    between atoms: C_16  and  C_18
REMARK    8  A    between atoms: C_16  and  S_25
REMARK    9  A    between atoms: S_25  and  C_28
REMARK                            x       y       z     vdW  Elec       q    Type
REMARK                         _______ _______ _______ _____ _____    ______ ____
ROOT
ATOM      1  C   UNL     1      -4.931   4.568   2.759  0.00  0.00    +0.137 C 
ENDROOT
BRANCH   1   2
ATOM      2  N   UNL     1      -5.734   3.587   2.024  0.00  0.00    -0.188 NA
ATOM      3  H   UNL     1      -6.438   3.098   2.478  0.00  0.00    +0.148 HD
BRANCH   2   4
ATOM      4  S   UNL     1      -5.439   3.313   0.418  0.00  0.00    +0.058 S 
ATOM      5  O   UNL     1      -5.379   4.588  -0.207  0.00  0.00    -0.153 OA
ATOM      6  O   UNL     1      -6.351   2.304   0.004  0.00  0.00    -0.153 OA
BRANCH   4  10
ATOM      7  C   UNL     1      -1.292   1.520   0.104  0.00  0.00    +0.033 A 
ATOM      8  C   UNL     1      -1.460   2.897   0.055  0.00  0.00    +0.025 A 
ATOM      9  C   UNL     1      -2.727   3.441   0.145  0.00  0.00    +0.030 A 
ATOM     10  C   UNL     1      -3.826   2.615   0.295  0.00  0.00    +0.105 A 
ATOM     11  C   UNL     1      -3.662   1.243   0.349  0.00  0.00    +0.030 A 
ATOM     12  C   UNL     1      -2.398   0.693   0.255  0.00  0.00    +0.025 A 
BRANCH   7  16
ATOM     13  C   UNL     1       2.335   1.031  -0.773  0.00  0.00    +0.109 C 
ATOM     14  C   UNL     1       0.924   1.561  -0.759  0.00  0.00    +0.214 C 
ATOM     15  O   UNL     1       0.631   2.523  -1.436  0.00  0.00    -0.276 OA
ATOM     16  N   UNL     1      -0.011   0.966   0.007  0.00  0.00    -0.286 N 
ATOM     17  H   UNL     1       0.203   0.151   0.488  0.00  0.00    +0.155 HD
ENDBRANCH   7  16
ENDBRANCH   4  10
ENDBRANCH   2   4
ENDBRANCH   1   2
BRANCH   1  18
ATOM     18  C   UNL     1      -5.623   4.905   4.081  0.00  0.00    +0.182 C 
BRANCH  18  19
ATOM     19  C   UNL     1      -4.797   5.914   4.837  0.00  0.00    -0.022 A 
ATOM     20  C   UNL     1      -3.502   5.606   5.212  0.00  0.00    +0.008 A 
ATOM     21  C   UNL     1      -2.743   6.532   5.901  0.00  0.00    +0.038 A 
ATOM     22  C   UNL     1      -3.282   7.765   6.225  0.00  0.00    +0.123 A 
ATOM     23  C   UNL     1      -4.581   8.070   5.855  0.00  0.00    +0.038 A 
ATOM     24  C   UNL     1      -5.337   7.145   5.161  0.00  0.00    +0.008 A 
ATOM     25  F   UNL     1      -2.542   8.669   6.903  0.00  0.00    -0.205 F 
ENDBRANCH  18  19
BRANCH  18  26
ATOM     26  S   UNL     1      -5.794   3.397   5.075  0.00  0.00    +0.011 S 
ATOM     27  O   UNL     1      -6.270   3.719   6.375  0.00  0.00    -0.168 OA
ATOM     28  O   UNL     1      -6.415   2.374   4.309  0.00  0.00    -0.168 OA
BRANCH  26  29
ATOM     29  C   UNL     1      -4.144   2.832   5.328  0.00  0.00    +0.126 A 
ATOM     30  C   UNL     1      -3.284   3.131   6.331  0.00  0.00    +0.035 A 
ATOM     31  C   UNL     1      -2.024   2.563   6.325  0.00  0.00    +0.009 A 
ATOM     32  C   UNL     1      -1.686   1.722   5.317  0.00  0.00    +0.047 A 
ATOM     33  S   UNL     1      -3.176   1.709   4.333  0.00  0.00    -0.078 S 
ENDBRANCH  26  29
ENDBRANCH  18  26
ENDBRANCH   1  18
TORSDOF 8
