REMARK  Name = ZINC47952242
REMARK  6 active torsions:
REMARK  status: ('A' for Active; 'I' for Inactive)
REMARK    1  A    between atoms: C_8  and  C_11
REMARK    2  A    between atoms: C_11  and  N_12
REMARK    3  A    between atoms: N_15  and  C_16
REMARK    4  A    between atoms: C_16  and  C_17
REMARK    5  A    between atoms: C_17  and  C_19
REMARK    6  A    between atoms: C_17  and  N_24
REMARK                            x       y       z     vdW  Elec       q    Type
REMARK                         _______ _______ _______ _____ _____    ______ ____
ROOT
ATOM      1  N   UNL     1       5.198  -3.249  -0.216  0.00  0.00    -0.296 N 
ATOM      2  C   UNL     1       6.056  -4.206   0.189  0.00  0.00    +0.300 C 
ATOM      3  O   UNL     1       5.642  -5.178   0.791  0.00  0.00    -0.253 OA
ATOM      4  N   UNL     1       7.372  -4.086  -0.073  0.00  0.00    -0.301 N 
ATOM      5  H   UNL     1       5.528  -2.473  -0.696  0.00  0.00    +0.150 HD
ATOM      6  H   UNL     1       7.703  -3.311  -0.553  0.00  0.00    +0.150 HD
ENDROOT
BRANCH   1   7
ATOM      7  C   UNL     1       3.767  -3.379   0.070  0.00  0.00    +0.150 C 
BRANCH   7  15
ATOM      8  C   UNL     1      -0.130   1.182   0.343  0.00  0.00    +0.000 A 
ATOM      9  C   UNL     1       1.043   1.884   0.553  0.00  0.00    +0.004 A 
ATOM     10  C   UNL     1       2.260   1.234   0.518  0.00  0.00    +0.046 A 
ATOM     11  C   UNL     1       2.317  -0.135   0.271  0.00  0.00    +0.124 A 
ATOM     12  C   UNL     1       1.133  -0.828   0.054  0.00  0.00    -0.002 A 
ATOM     13  C   UNL     1      -0.081  -0.178   0.093  0.00  0.00    +0.007 A 
ATOM     14  C   UNL     1       1.506  -2.274  -0.209  0.00  0.00    +0.085 C 
ATOM     15  C   UNL     1       3.022  -2.167  -0.494  0.00  0.00    +0.195 C 
ATOM     16  O   UNL     1       3.393  -0.966   0.205  0.00  0.00    -0.487 OA
ENDBRANCH   7  15
ENDBRANCH   1   7
BRANCH   4  17
ATOM     17  C   UNL     1       8.305  -5.127   0.367  0.00  0.00    +0.095 C 
BRANCH  17  18
ATOM     18  C   UNL     1       9.704  -4.817  -0.167  0.00  0.00    -0.013 C 
BRANCH  18  19
ATOM     19  N   UNL     1      10.663  -5.787   0.380  0.00  0.00    +0.386 N 
ATOM     20  C   UNL     1      12.032  -5.487  -0.113  0.00  0.00    -0.078 C 
ATOM     21  C   UNL     1      12.944  -6.171   0.936  0.00  0.00    -0.020 C 
ATOM     22  C   UNL     1      12.190  -5.925   2.263  0.00  0.00    -0.020 C 
ATOM     23  C   UNL     1      10.729  -5.663   1.853  0.00  0.00    -0.078 C 
ATOM     24  H   UNL     1      10.396  -6.725   0.121  0.00  0.00    -0.081 HD
ENDBRANCH  18  19
BRANCH  18  25
ATOM     25  C   UNL     1       9.700  -4.910  -1.671  0.00  0.00    -0.022 A 
ATOM     26  C   UNL     1       9.634  -3.914  -2.588  0.00  0.00    +0.009 A 
ATOM     27  C   UNL     1       9.645  -4.237  -3.932  0.00  0.00    +0.008 A 
ATOM     28  C   UNL     1       9.720  -5.542  -4.293  0.00  0.00    +0.045 A 
ATOM     29  S   UNL     1       9.787  -6.361  -2.708  0.00  0.00    -0.103 S 
ENDBRANCH  18  25
ENDBRANCH  17  18
ENDBRANCH   4  17
TORSDOF 6
