REMARK  Name = ZINC46550271
REMARK  11 active torsions:
REMARK  status: ('A' for Active; 'I' for Inactive)
REMARK    1  A    between atoms: C_1  and  C_2
REMARK    2  A    between atoms: C_2  and  C_3
REMARK    3  A    between atoms: C_6  and  C_9
REMARK    4  A    between atoms: C_9  and  C_11
REMARK    5  A    between atoms: C_9  and  N_14
REMARK    6  A    between atoms: C_11  and  C_12
REMARK    7  A    between atoms: C_11  and  C_13
REMARK    8  A    between atoms: C_15  and  C_17
REMARK    9  A    between atoms: C_18  and  C_19
REMARK   10  A    between atoms: C_22  and  C_25
REMARK   11  A    between atoms: N_27  and  C_28
REMARK                            x       y       z     vdW  Elec       q    Type
REMARK                         _______ _______ _______ _____ _____    ______ ____
ROOT
ATOM      1  N   UNL     1      -5.578  -3.005  -1.015  0.00  0.00    -0.305 N 
ATOM      2  C   UNL     1      -6.529  -3.954  -0.909  0.00  0.00    +0.237 C 
ATOM      3  O   UNL     1      -7.256  -3.980   0.067  0.00  0.00    -0.271 OA
ATOM      4  H   UNL     1      -4.998  -2.985  -1.793  0.00  0.00    +0.150 HD
ENDROOT
BRANCH   2   5
ATOM      5  C   UNL     1      -6.688  -4.955  -1.968  0.00  0.00    +0.068 C 
ATOM      6  C   UNL     1      -7.639  -5.904  -1.861  0.00  0.00    +0.013 C 
BRANCH   6   7
ATOM      7  C   UNL     1      -7.799  -6.909  -2.925  0.00  0.00    -0.025 A 
ATOM      8  C   UNL     1      -6.960  -6.883  -4.044  0.00  0.00    +0.008 A 
ATOM      9  C   UNL     1      -7.109  -7.824  -5.038  0.00  0.00    +0.013 A 
ATOM     10  C   UNL     1      -8.099  -8.804  -4.929  0.00  0.00    +0.037 A 
ATOM     11  C   UNL     1      -8.938  -8.830  -3.812  0.00  0.00    +0.013 A 
ATOM     12  C   UNL     1      -8.786  -7.894  -2.815  0.00  0.00    +0.008 A 
BRANCH  10  13
ATOM     13  C   UNL     1      -8.260  -9.813  -5.998  0.00  0.00    +0.244 C 
ATOM     14  O   UNL     1      -7.531  -9.790  -6.970  0.00  0.00    -0.270 OA
ATOM     15  N   UNL     1      -9.215 -10.759  -5.894  0.00  0.00    -0.314 N 
ATOM     16  C   UNL     1      -9.374 -11.759  -6.952  0.00  0.00    +0.128 C 
ATOM     17  H   UNL     1      -9.797 -10.777  -5.118  0.00  0.00    +0.149 HD
ENDBRANCH  10  13
ENDBRANCH   6   7
ENDBRANCH   2   5
BRANCH   1  18
ATOM     18  C   UNL     1      -5.419  -2.005   0.043  0.00  0.00    +0.106 C 
BRANCH  18  22
ATOM     19  C   UNL     1      -1.412  -0.526   0.013  0.00  0.00    -0.048 A 
ATOM     20  C   UNL     1      -2.051  -0.766   1.215  0.00  0.00    +0.004 A 
ATOM     21  C   UNL     1      -3.348  -1.244   1.225  0.00  0.00    +0.006 A 
ATOM     22  C   UNL     1      -4.006  -1.482   0.032  0.00  0.00    -0.027 A 
ATOM     23  C   UNL     1      -3.367  -1.241  -1.170  0.00  0.00    +0.006 A 
ATOM     24  C   UNL     1      -2.072  -0.758  -1.179  0.00  0.00    +0.004 A 
BRANCH  19  26
ATOM     25  C   UNL     1      -0.019   1.526   0.010  0.00  0.00    +0.009 C 
ATOM     26  C   UNL     1       0.002  -0.004   0.002  0.00  0.00    +0.032 C 
ENDBRANCH  19  26
ENDBRANCH  18  22
BRANCH  18  27
ATOM     27  C   UNL     1      -6.392  -0.849  -0.198  0.00  0.00    +0.008 C 
ATOM     28  C   UNL     1      -7.827  -1.379  -0.187  0.00  0.00    +0.009 C 
ATOM     29  C   UNL     1      -6.226   0.196   0.908  0.00  0.00    +0.009 C 
ENDBRANCH  18  27
ENDBRANCH   1  18
TORSDOF 7
