REMARK  Name = ZINC12634098
REMARK  6 active torsions:
REMARK  status: ('A' for Active; 'I' for Inactive)
REMARK    1  A    between atoms: C_1  and  O_2
REMARK    2  A    between atoms: O_2  and  C_3
REMARK    3  A    between atoms: C_8  and  O_9
REMARK    4  A    between atoms: O_9  and  C_10
REMARK    5  A    between atoms: C_21  and  C_22
REMARK    6  A    between atoms: C_25  and  C_28
REMARK                            x       y       z     vdW  Elec       q    Type
REMARK                         _______ _______ _______ _____ _____    ______ ____
ROOT
ATOM      1  C   UNL     1       0.520  -1.071  -0.920  0.00  0.00    +0.162 A 
ATOM      2  C   UNL     1       0.981  -0.239  -1.920  0.00  0.00    +0.064 A 
ATOM      3  C   UNL     1       1.626  -0.786  -3.029  0.00  0.00    +0.069 A 
ATOM      4  C   UNL     1       1.801  -2.188  -3.130  0.00  0.00    +0.082 A 
ATOM      5  C   UNL     1       1.333  -3.013  -2.104  0.00  0.00    +0.078 A 
ATOM      6  C   UNL     1       0.703  -2.456  -1.009  0.00  0.00    +0.164 A 
ATOM      7  N   UNL     1       2.405  -2.700  -4.220  0.00  0.00    -0.229 NA
ATOM      8  C   UNL     1       2.852  -1.939  -5.187  0.00  0.00    +0.140 A 
ATOM      9  N   UNL     1       2.769  -0.555  -5.136  0.00  0.00    -0.293 N 
ATOM     10  C   UNL     1       2.141   0.058  -4.116  0.00  0.00    +0.262 A 
ATOM     11  O   UNL     1       2.004   1.268  -4.094  0.00  0.00    -0.267 OA
ATOM     12  C   UNL     1       3.412   0.222  -6.207  0.00  0.00    +0.127 C 
ATOM     13  C   UNL     1       2.595   0.131  -7.487  0.00  0.00    +0.022 C 
ATOM     14  C   UNL     1       3.038  -1.049  -8.348  0.00  0.00    +0.006 C 
ATOM     15  C   UNL     1       2.713  -2.375  -7.701  0.00  0.00    +0.039 C 
ATOM     16  C   UNL     1       3.453  -2.519  -6.391  0.00  0.00    -0.004 C 
ATOM     17  C   UNL     1       4.635  -3.163  -6.332  0.00  0.00    +0.015 C 
ENDROOT
BRANCH  17  18
ATOM     18  C   UNL     1       5.131  -3.900  -7.506  0.00  0.00    -0.025 A 
ATOM     19  C   UNL     1       5.008  -3.349  -8.785  0.00  0.00    +0.008 A 
ATOM     20  C   UNL     1       5.476  -4.044  -9.880  0.00  0.00    +0.013 A 
ATOM     21  C   UNL     1       6.066  -5.285  -9.715  0.00  0.00    +0.055 A 
ATOM     22  C   UNL     1       6.192  -5.838  -8.452  0.00  0.00    +0.013 A 
ATOM     23  C   UNL     1       5.734  -5.152  -7.347  0.00  0.00    +0.008 A 
BRANCH  21  24
ATOM     24  C   UNL     1       6.575  -6.039 -10.917  0.00  0.00    +0.417 C 
ATOM     25  F   UNL     1       7.910  -5.693 -11.153  0.00  0.00    -0.166 F 
ATOM     26  F   UNL     1       6.484  -7.414 -10.678  0.00  0.00    -0.166 F 
ATOM     27  F   UNL     1       5.803  -5.708 -12.036  0.00  0.00    -0.166 F 
ENDBRANCH  21  24
ENDBRANCH  17  18
BRANCH   1  29
ATOM     28  C   UNL     1      -0.266   0.878   0.192  0.00  0.00    +0.277 C 
ATOM     29  O   UNL     1      -0.111  -0.542   0.162  0.00  0.00    -0.491 OA
ENDBRANCH   1  29
BRANCH   6  30
ATOM     30  O   UNL     1       0.253  -3.259  -0.011  0.00  0.00    -0.491 OA
ATOM     31  C   UNL     1       0.470  -4.663  -0.161  0.00  0.00    +0.277 C 
ENDBRANCH   6  30
TORSDOF 4
