REMARK  Name = ZINC08000932
REMARK  4 active torsions:
REMARK  status: ('A' for Active; 'I' for Inactive)
REMARK    1  A    between atoms: C_3  and  C_6
REMARK    2  A    between atoms: C_15  and  C_16
REMARK    3  A    between atoms: C_15  and  N_42
REMARK    4  A    between atoms: N_18  and  C_19
REMARK                            x       y       z     vdW  Elec       q    Type
REMARK                         _______ _______ _______ _____ _____    ______ ____
ROOT
ATOM      1  C   UNL     1       7.227   4.060   0.140  0.00  0.00    +0.002 C 
ATOM      2  C   UNL     1       8.361   3.046   0.255  0.00  0.00    -0.046 A 
ATOM      3  C   UNL     1       9.662   3.281  -0.184  0.00  0.00    +0.010 A 
ATOM      4  C   UNL     1      10.608   2.323  -0.044  0.00  0.00    +0.045 A 
ATOM      5  S   UNL     1       9.686   1.006   0.737  0.00  0.00    -0.101 S 
ATOM      6  C   UNL     1       8.120   1.828   0.816  0.00  0.00    -0.010 A 
ATOM      7  C   UNL     1       6.817   1.340   1.362  0.00  0.00    +0.024 C 
ATOM      8  C   UNL     1       5.886   2.555   1.508  0.00  0.00    -0.072 C 
ATOM      9  N   UNL     1       5.942   3.331   0.246  0.00  0.00    +0.393 N 
ATOM     10  H   UNL     1       5.864   2.681  -0.545  0.00  0.00    -0.080 HD
ENDROOT
BRANCH   1  13
ATOM     11  C   UNL     1       7.730   6.390  -2.832  0.00  0.00    +0.008 A 
ATOM     12  C   UNL     1       7.778   5.966  -1.517  0.00  0.00    +0.010 A 
ATOM     13  C   UNL     1       7.289   4.742  -1.203  0.00  0.00    -0.019 A 
ATOM     14  S   UNL     1       6.742   4.143  -2.794  0.00  0.00    -0.103 S 
ATOM     15  C   UNL     1       7.195   5.569  -3.768  0.00  0.00    +0.045 A 
ENDBRANCH   1  13
BRANCH   9  16
ATOM     16  C   UNL     1       4.818   4.285   0.193  0.00  0.00    +0.020 C 
BRANCH  16  17
ATOM     17  C   UNL     1       3.531   3.508   0.088  0.00  0.00    +0.201 C 
ATOM     18  O   UNL     1       3.553   2.296   0.082  0.00  0.00    -0.278 OA
ATOM     19  N   UNL     1       2.355   4.161   0.001  0.00  0.00    -0.285 N 
ATOM     20  H   UNL     1       2.340   5.129  -0.059  0.00  0.00    +0.155 HD
BRANCH  19  21
ATOM     21  C   UNL     1       1.153   3.441  -0.002  0.00  0.00    +0.072 A 
ATOM     22  C   UNL     1       1.090   2.196  -0.613  0.00  0.00    +0.064 A 
ATOM     23  C   UNL     1      -0.098   1.488  -0.615  0.00  0.00    +0.125 A 
ATOM     24  C   UNL     1      -1.225   2.022  -0.013  0.00  0.00    +0.041 A 
ATOM     25  C   UNL     1      -1.164   3.260   0.600  0.00  0.00    +0.043 A 
ATOM     26  C   UNL     1       0.021   3.973   0.605  0.00  0.00    +0.145 A 
ATOM     27  F   UNL     1       0.079   5.184   1.201  0.00  0.00    -0.204 F 
ATOM     28  F   UNL     1      -0.161   0.276  -1.209  0.00  0.00    -0.205 F 
ENDBRANCH  19  21
ENDBRANCH  16  17
ENDBRANCH   9  16
TORSDOF 4
