REMARK  Name = ZINC40949126
REMARK  10 active torsions:
REMARK  status: ('A' for Active; 'I' for Inactive)
REMARK    1  A    between atoms: C_1  and  C_2
REMARK    2  A    between atoms: C_2  and  C_3
REMARK    3  A    between atoms: C_3  and  C_4
REMARK    4  A    between atoms: C_4  and  C_5
REMARK    5  A    between atoms: C_8  and  C_11
REMARK    6  A    between atoms: N_13  and  C_14
REMARK    7  A    between atoms: C_15  and  C_25
REMARK    8  A    between atoms: C_20  and  C_24
REMARK    9  A    between atoms: C_25  and  O_27
REMARK   10  A    between atoms: O_27  and  C_28
REMARK                            x       y       z     vdW  Elec       q    Type
REMARK                         _______ _______ _______ _____ _____    ______ ____
ROOT
ATOM      1  C   UNL     1       0.123  -4.757  -4.894  0.00  0.00    +0.221 C 
ATOM      2  O   UNL     1      -0.862  -4.050  -4.884  0.00  0.00    -0.275 OA
ATOM      3  N   UNL     1      -0.009  -6.097  -4.839  0.00  0.00    -0.279 N 
ATOM      4  H   UNL     1       0.780  -6.663  -4.847  0.00  0.00    +0.155 HD
ENDROOT
BRANCH   3   5
ATOM      5  C   UNL     1      -1.270  -6.667  -4.772  0.00  0.00    +0.086 A 
ATOM      6  C   UNL     1      -1.595  -8.014  -4.704  0.00  0.00    +0.091 A 
ATOM      7  C   UNL     1      -3.006  -8.354  -4.641  0.00  0.00    -0.021 A 
ATOM      8  C   UNL     1      -3.833  -7.287  -4.656  0.00  0.00    -0.004 A 
ATOM      9  S   UNL     1      -2.756  -5.886  -4.746  0.00  0.00    -0.077 S 
ATOM     10  C   UNL     1      -5.329  -7.307  -4.601  0.00  0.00    +0.046 C 
ATOM     11  C   UNL     1      -5.776  -8.704  -4.146  0.00  0.00    -0.009 C 
ATOM     12  C   UNL     1      -5.025  -9.757  -4.965  0.00  0.00    +0.008 C 
ATOM     13  C   UNL     1      -3.548  -9.774  -4.564  0.00  0.00    +0.037 C 
ATOM     14  C   UNL     1      -7.282  -8.857  -4.366  0.00  0.00    +0.008 C 
BRANCH   6  15
ATOM     15  C   UNL     1      -0.559  -9.050  -4.698  0.00  0.00    +0.342 C 
ATOM     16  O   UNL     1      -0.092  -9.436  -3.643  0.00  0.00    -0.245 OA
BRANCH  15  17
ATOM     17  O   UNL     1      -0.123  -9.575  -5.861  0.00  0.00    -0.464 OA
ATOM     18  C   UNL     1       0.889 -10.580  -5.780  0.00  0.00    +0.280 C 
ENDBRANCH  15  17
ENDBRANCH   6  15
ENDBRANCH   3   5
BRANCH   1  22
ATOM     19  C   UNL     1       1.455  -2.521  -2.524  0.00  0.00    -0.011 C 
ATOM     20  C   UNL     1       0.648  -2.120  -3.760  0.00  0.00    +0.004 C 
ATOM     21  C   UNL     1       1.364  -2.614  -5.019  0.00  0.00    +0.013 C 
ATOM     22  C   UNL     1       1.495  -4.137  -4.967  0.00  0.00    +0.075 C 
ATOM     23  C   UNL     1       2.302  -4.538  -3.731  0.00  0.00    +0.013 C 
ATOM     24  C   UNL     1       1.586  -4.044  -2.472  0.00  0.00    +0.004 C 
BRANCH  19  25
ATOM     25  C   UNL     1       0.739  -2.027  -1.265  0.00  0.00    +0.003 C 
BRANCH  25  26
ATOM     26  C   UNL     1       0.718  -0.497  -1.257  0.00  0.00    +0.000 C 
BRANCH  26  28
ATOM     27  C   UNL     1      -0.019   1.526   0.010  0.00  0.00    +0.004 C 
ATOM     28  C   UNL     1       0.002  -0.004   0.002  0.00  0.00    -0.003 C 
ENDBRANCH  26  28
ENDBRANCH  25  26
ENDBRANCH  19  25
ENDBRANCH   1  22
TORSDOF 7
