REMARK  Name = ZINC55063717
REMARK  11 active torsions:
REMARK  status: ('A' for Active; 'I' for Inactive)
REMARK    1  A    between atoms: C_1  and  C_2
REMARK    2  A    between atoms: C_2  and  C_3
REMARK    3  A    between atoms: C_3  and  C_5
REMARK    4  A    between atoms: C_3  and  N_6
REMARK    5  A    between atoms: N_9  and  C_12
REMARK    6  A    between atoms: C_12  and  C_14
REMARK    7  A    between atoms: C_12  and  C_20
REMARK    8  A    between atoms: C_17  and  C_19
REMARK    9  A    between atoms: C_20  and  C_22
REMARK   10  A    between atoms: C_20  and  N_24
REMARK   11  A    between atoms: C_22  and  C_23
REMARK                            x       y       z     vdW  Elec       q    Type
REMARK                         _______ _______ _______ _____ _____    ______ ____
ROOT
ATOM      1  C   UNL     1      -1.228   1.226  -6.400  0.00  0.00    +0.079 C 
ENDROOT
BRANCH   1   5
ATOM      2  N   UNL     1      -0.387  -0.323  -2.558  0.00  0.00    +0.383 N 
ATOM      3  C   UNL     1      -0.204   1.119  -2.777  0.00  0.00    -0.063 C 
ATOM      4  C   UNL     1      -0.998   1.551  -4.011  0.00  0.00    +0.066 C 
ATOM      5  N   UNL     1      -0.528   0.797  -5.182  0.00  0.00    -0.300 NA
ATOM      6  C   UNL     1      -0.681  -0.649  -4.967  0.00  0.00    +0.066 C 
ATOM      7  C   UNL     1       0.110  -1.063  -3.724  0.00  0.00    -0.063 C 
ATOM      8  H   UNL     1      -1.367  -0.521  -2.426  0.00  0.00    -0.081 HD
BRANCH   2   9
ATOM      9  C   UNL     1       0.361  -0.734  -1.362  0.00  0.00    -0.072 C 
ATOM     10  C   UNL     1       1.861  -0.572  -1.617  0.00  0.00    -0.013 C 
BRANCH   9  12
ATOM     11  C   UNL     1      -1.421  -2.338  -0.659  0.00  0.00    +0.002 C 
ATOM     12  C   UNL     1       0.053  -2.199  -1.047  0.00  0.00    -0.019 C 
ENDBRANCH   9  12
ENDBRANCH   2   9
ENDBRANCH   1   5
BRANCH   1  13
ATOM     13  C   UNL     1      -1.047   2.710  -6.588  0.00  0.00    +0.006 A 
ATOM     14  C   UNL     1      -1.948   3.634  -7.001  0.00  0.00    +0.013 A 
ATOM     15  C   UNL     1      -1.556   4.956  -7.100  0.00  0.00    +0.011 A 
ATOM     16  C   UNL     1      -0.281   5.288  -6.781  0.00  0.00    -0.013 A 
ATOM     17  S   UNL     1       0.408   3.708  -6.317  0.00  0.00    -0.097 S 
ATOM     18  C   UNL     1       0.381   6.642  -6.806  0.00  0.00    +0.051 C 
ENDBRANCH   1  13
BRANCH   1  19
ATOM     19  C   UNL     1      -0.650   0.484  -7.607  0.00  0.00    -0.053 C 
BRANCH  19  20
ATOM     20  N   UNL     1       0.772   0.821  -7.754  0.00  0.00    +0.381 N 
ATOM     21  H   UNL     1       1.270   0.546  -6.921  0.00  0.00    -0.090 HD
ATOM     22  H   UNL     1       1.153   0.332  -8.550  0.00  0.00    -0.090 HD
ATOM     23  H   UNL     1       0.870   1.815  -7.892  0.00  0.00    -0.090 HD
ENDBRANCH  19  20
BRANCH  19  24
ATOM     24  C   UNL     1      -1.406   0.901  -8.871  0.00  0.00    -0.018 C 
ATOM     25  C   UNL     1      -0.905   0.078 -10.059  0.00  0.00    +0.002 C 
ENDBRANCH  19  24
ENDBRANCH   1  19
TORSDOF 7
