REMARK  Name = ZINC09240896
REMARK  16 active torsions:
REMARK  status: ('A' for Active; 'I' for Inactive)
REMARK    1  A    between atoms: C_1  and  C_2
REMARK    2  A    between atoms: C_2  and  N_70
REMARK    3  A    between atoms: C_3  and  C_4
REMARK    4  A    between atoms: C_3  and  N_70
REMARK    5  A    between atoms: C_5  and  C_6
REMARK    6  A    between atoms: C_5  and  N_70
REMARK    7  A    between atoms: C_6  and  N_7
REMARK    8  A    between atoms: C_8  and  C_29
REMARK    9  A    between atoms: C_11  and  C_12
REMARK   10  A    between atoms: C_11  and  O_24
REMARK   11  A    between atoms: C_15  and  O_19
REMARK   12  A    between atoms: C_16  and  C_18
REMARK   13  A    between atoms: O_19  and  C_20
REMARK   14  A    between atoms: C_20  and  C_21
REMARK   15  A    between atoms: C_21  and  C_22
REMARK   16  A    between atoms: C_21  and  C_23
REMARK                            x       y       z     vdW  Elec       q    Type
REMARK                         _______ _______ _______ _____ _____    ______ ____
ROOT
ATOM      1  N   UNL     1      -3.693   2.968   0.377  0.00  0.00    -0.285 N 
ATOM      2  C   UNL     1      -2.629   2.001   0.093  0.00  0.00    +0.144 C 
ATOM      3  C   UNL     1      -1.379   2.802  -0.187  0.00  0.00    +0.071 C 
ATOM      4  C   UNL     1      -0.129   2.307  -0.503  0.00  0.00    +0.133 C 
ATOM      5  C   UNL     1      -1.742   4.151  -0.055  0.00  0.00    +0.249 C 
ATOM      6  O   UNL     1      -1.002   5.107  -0.200  0.00  0.00    -0.282 OA
ATOM      7  C   UNL     1      -3.188   4.210   0.290  0.00  0.00    +0.288 C 
ATOM      8  O   UNL     1      -3.819   5.232   0.471  0.00  0.00    -0.266 OA
ENDROOT
BRANCH   2   9
ATOM      9  C   UNL     1      -2.993   1.174  -1.114  0.00  0.00    -0.021 A 
ATOM     10  C   UNL     1      -2.691  -0.175  -1.143  0.00  0.00    +0.007 A 
ATOM     11  C   UNL     1      -3.023  -0.934  -2.249  0.00  0.00    +0.022 A 
ATOM     12  C   UNL     1      -3.659  -0.345  -3.327  0.00  0.00    +0.059 A 
ATOM     13  C   UNL     1      -3.961   1.006  -3.297  0.00  0.00    +0.060 A 
ATOM     14  C   UNL     1      -3.633   1.763  -2.188  0.00  0.00    +0.027 A 
ATOM     15 CL   UNL     1      -4.759   1.747  -4.649  0.00  0.00    -0.082 Cl
ATOM     16 CL   UNL     1      -4.077  -1.298  -4.717  0.00  0.00    -0.082 Cl
ENDBRANCH   2   9
BRANCH   4  17
ATOM     17  C   UNL     1       0.946   3.226  -0.906  0.00  0.00    +0.017 A 
ATOM     18  C   UNL     1       0.763   4.087  -1.995  0.00  0.00    +0.015 A 
ATOM     19  C   UNL     1       1.769   4.949  -2.365  0.00  0.00    +0.046 A 
ATOM     20  C   UNL     1       2.972   4.958  -1.666  0.00  0.00    +0.123 A 
ATOM     21  C   UNL     1       3.162   4.101  -0.588  0.00  0.00    -0.008 A 
ATOM     22  C   UNL     1       2.159   3.239  -0.207  0.00  0.00    +0.018 A 
ATOM     23  C   UNL     1       4.467   4.116   0.164  0.00  0.00    +0.047 C 
BRANCH  20  24
ATOM     24  O   UNL     1       3.964   5.806  -2.038  0.00  0.00    -0.491 OA
BRANCH  24  25
ATOM     25  C   UNL     1       3.703   6.660  -3.154  0.00  0.00    +0.232 C 
BRANCH  25  26
ATOM     26  C   UNL     1       4.927   7.537  -3.422  0.00  0.00    +0.020 C 
ATOM     27  C   UNL     1       4.696   8.361  -4.691  0.00  0.00    +0.010 C 
ATOM     28  C   UNL     1       5.149   8.478  -2.237  0.00  0.00    +0.010 C 
ENDBRANCH  25  26
ENDBRANCH  24  25
ENDBRANCH  20  24
ENDBRANCH   4  17
BRANCH   4  29
ATOM     29  O   UNL     1       0.105   0.978  -0.447  0.00  0.00    -0.506 OA
ATOM     30  H   UNL     1       1.053   0.795  -0.705  0.00  0.00    +0.292 HD
ENDBRANCH   4  29
BRANCH   1  31
ATOM     31  C   UNL     1      -5.082   2.635   0.703  0.00  0.00    +0.090 C 
BRANCH  31  32
ATOM     32  C   UNL     1      -5.227   2.479   2.218  0.00  0.00    -0.060 C 
BRANCH  32  33
ATOM     33  N   UNL     1      -6.627   2.122   2.529  0.00  0.00    +0.380 N 
ATOM     34  H   UNL     1      -6.902   1.318   1.954  0.00  0.00    -0.082 HD
BRANCH  33  36
ATOM     35  C   UNL     1      -6.207   0.339   4.147  0.00  0.00    -0.017 C 
ATOM     36  C   UNL     1      -6.750   1.756   3.956  0.00  0.00    -0.082 C 
ENDBRANCH  33  36
BRANCH  33  37
ATOM     37  C   UNL     1      -7.518   3.260   2.221  0.00  0.00    -0.082 C 
ATOM     38  C   UNL     1      -8.963   2.758   2.188  0.00  0.00    -0.017 C 
ENDBRANCH  33  37
ENDBRANCH  32  33
ENDBRANCH  31  32
ENDBRANCH   1  31
TORSDOF 11
