REMARK  Name = ZINC04701589
REMARK  4 active torsions:
REMARK  status: ('A' for Active; 'I' for Inactive)
REMARK    1  A    between atoms: C_1  and  C_2
REMARK    2  A    between atoms: C_2  and  C_11
REMARK    3  A    between atoms: N_3  and  C_4
REMARK    4  A    between atoms: C_8  and  O_10
REMARK                            x       y       z     vdW  Elec       q    Type
REMARK                         _______ _______ _______ _____ _____    ______ ____
ROOT
ATOM      1  C   UNL     1       1.675   5.124   1.736  0.00  0.00    +0.066 C 
ATOM      2  C   UNL     1       0.736   5.873   0.827  0.00  0.00    +0.053 C 
ATOM      3  N   UNL     1      -0.064   5.217   0.031  0.00  0.00    -0.252 NA
ENDROOT
BRANCH   2   4
ATOM      4  C   UNL     1       0.721   7.340   0.835  0.00  0.00    +0.081 A 
ATOM      5  C   UNL     1       1.560   8.050   1.679  0.00  0.00    +0.028 A 
ATOM      6  C   UNL     1       1.515   9.467   1.650  0.00  0.00    +0.018 A 
ATOM      7  C   UNL     1       2.355  10.216   2.487  0.00  0.00    +0.011 A 
ATOM      8  C   UNL     1       2.303  11.580   2.458  0.00  0.00    +0.001 A 
ATOM      9  C   UNL     1       1.423  12.233   1.605  0.00  0.00    +0.004 A 
ATOM     10  C   UNL     1       0.589  11.516   0.774  0.00  0.00    +0.047 A 
ATOM     11  C   UNL     1       0.623  10.126   0.785  0.00  0.00    +0.139 A 
ATOM     12  O   UNL     1      -0.196   9.427  -0.030  0.00  0.00    -0.422 OA
ATOM     13  C   UNL     1      -0.190   8.084  -0.046  0.00  0.00    +0.346 A 
ATOM     14  O   UNL     1      -0.939   7.482  -0.792  0.00  0.00    -0.244 OA
ENDBRANCH   2   4
BRANCH   3  15
ATOM     15  C   UNL     1      -0.049   3.849   0.023  0.00  0.00    +0.068 A 
ATOM     16  C   UNL     1       1.167   3.160   0.008  0.00  0.00    +0.028 A 
ATOM     17  C   UNL     1       1.177   1.781   0.000  0.00  0.00    +0.006 A 
ATOM     18  C   UNL     1      -0.013   1.076   0.008  0.00  0.00    +0.045 A 
ATOM     19  C   UNL     1      -1.226   1.751   0.017  0.00  0.00    +0.119 A 
ATOM     20  C   UNL     1      -1.249   3.135   0.031  0.00  0.00    +0.073 A 
BRANCH  19  21
ATOM     21  O   UNL     1      -2.392   1.052   0.019  0.00  0.00    -0.507 OA
ATOM     22  H   UNL     1      -2.725   0.845   0.903  0.00  0.00    +0.292 HD
ENDBRANCH  19  21
ENDBRANCH   3  15
TORSDOF 3
