REMARK  Name = ZINC13500188
REMARK  15 active torsions:
REMARK  status: ('A' for Active; 'I' for Inactive)
REMARK    1  A    between atoms: C_1  and  C_2
REMARK    2  A    between atoms: C_2  and  C_3
REMARK    3  A    between atoms: C_3  and  C_4
REMARK    4  A    between atoms: C_4  and  C_6
REMARK    5  A    between atoms: C_4  and  N_75
REMARK    6  A    between atoms: N_10  and  C_11
REMARK    7  A    between atoms: C_11  and  C_12
REMARK    8  A    between atoms: C_11  and  C_13
REMARK    9  A    between atoms: C_11  and  C_14
REMARK   10  A    between atoms: C_15  and  C_16
REMARK   11  A    between atoms: C_15  and  N_75
REMARK   12  A    between atoms: C_20  and  O_28
REMARK   13  A    between atoms: O_28  and  C_29
REMARK   14  A    between atoms: C_29  and  C_30
REMARK   15  A    between atoms: C_31  and  N_75
REMARK                            x       y       z     vdW  Elec       q    Type
REMARK                         _______ _______ _______ _____ _____    ______ ____
ROOT
ATOM      1  N   UNL     1       4.481   0.004   1.038  0.00  0.00    +0.391 N 
ATOM      2  H   UNL     1       4.128   0.017   2.002  0.00  0.00    -0.080 HD
ENDROOT
BRANCH   1   3
ATOM      3  C   UNL     1       4.166  -1.305   0.428  0.00  0.00    -0.067 C 
ATOM      4  C   UNL     1       4.503  -1.297  -1.064  0.00  0.00    -0.015 C 
ATOM      5  C   UNL     1       4.166  -2.660  -1.671  0.00  0.00    -0.002 C 
ATOM      6  C   UNL     1       2.674  -2.946  -1.486  0.00  0.00    -0.000 C 
ATOM      7  C   UNL     1       2.337  -2.954   0.006  0.00  0.00    -0.002 C 
ATOM      8  C   UNL     1       2.675  -1.591   0.613  0.00  0.00    -0.015 C 
ENDBRANCH   1   3
BRANCH   1   9
ATOM      9  C   UNL     1       3.825   1.087   0.274  0.00  0.00    +0.003 C 
BRANCH   9  10
ATOM     10  C   UNL     1       4.546   1.325  -1.028  0.00  0.00    +0.139 A 
ATOM     11  N   UNL     1       5.838   1.244  -1.233  0.00  0.00    -0.115 NA
ATOM     12  N   UNL     1       6.062   1.518  -2.472  0.00  0.00    -0.023 NA
ATOM     13  N   UNL     1       4.947   1.772  -3.062  0.00  0.00    -0.043 NA
ATOM     14  N   UNL     1       3.989   1.664  -2.205  0.00  0.00    -0.226 N 
BRANCH  14  15
ATOM     15  C   UNL     1       2.562   1.871  -2.465  0.00  0.00    +0.059 C 
ATOM     16  C   UNL     1       2.375   2.418  -3.881  0.00  0.00    +0.036 C 
ATOM     17  C   UNL     1       1.821   0.539  -2.331  0.00  0.00    +0.036 C 
ATOM     18  C   UNL     1       2.000   2.871  -1.453  0.00  0.00    +0.036 C 
ENDBRANCH  14  15
ENDBRANCH   9  10
BRANCH   9  19
ATOM     19  C   UNL     1       3.852   2.366   1.113  0.00  0.00    -0.008 C 
BRANCH  19  21
ATOM     20  C   UNL     1       3.126   3.402   3.267  0.00  0.00    +0.004 C 
ATOM     21  C   UNL     1       3.004   2.169   2.371  0.00  0.00    -0.005 C 
ENDBRANCH  19  21
ENDBRANCH   9  19
ENDBRANCH   1   9
BRANCH   1  22
ATOM     22  C   UNL     1       5.943   0.214   1.058  0.00  0.00    -0.036 C 
BRANCH  22  23
ATOM     23  C   UNL     1       6.539  -0.638   2.149  0.00  0.00    +0.001 A 
ATOM     24  C   UNL     1       7.053  -1.856   1.850  0.00  0.00    +0.017 A 
ATOM     25  C   UNL     1       7.628  -2.658   2.932  0.00  0.00    +0.002 A 
ATOM     26  C   UNL     1       8.179  -3.919   2.682  0.00  0.00    +0.055 A 
ATOM     27  C   UNL     1       8.709  -4.650   3.726  0.00  0.00    +0.121 A 
ATOM     28  C   UNL     1       8.698  -4.137   5.021  0.00  0.00    +0.047 A 
ATOM     29  C   UNL     1       8.159  -2.897   5.279  0.00  0.00    +0.030 A 
ATOM     30  C   UNL     1       7.619  -2.143   4.242  0.00  0.00    +0.049 A 
ATOM     31  N   UNL     1       7.075  -0.897   4.481  0.00  0.00    -0.322 N 
ATOM     32  H   UNL     1       7.069  -0.543   5.384  0.00  0.00    +0.169 HD
ATOM     33  C   UNL     1       6.554  -0.167   3.480  0.00  0.00    +0.251 A 
ATOM     34  O   UNL     1       6.083   0.930   3.727  0.00  0.00    -0.268 OA
BRANCH  27  35
ATOM     35  O   UNL     1       9.245  -5.877   3.489  0.00  0.00    -0.492 OA
BRANCH  35  36
ATOM     36  C   UNL     1       9.777  -6.581   4.613  0.00  0.00    +0.225 C 
ATOM     37  C   UNL     1      10.332  -7.931   4.154  0.00  0.00    +0.048 C 
ENDBRANCH  35  36
ENDBRANCH  27  35
ENDBRANCH  22  23
ENDBRANCH   1  22
TORSDOF 10
