REMARK  Name = ZINC07049032
REMARK  9 active torsions:
REMARK  status: ('A' for Active; 'I' for Inactive)
REMARK    1  A    between atoms: C_1  and  C_2
REMARK    2  A    between atoms: C_4  and  N_26
REMARK    3  A    between atoms: C_6  and  S_8
REMARK    4  A    between atoms: S_8  and  C_9
REMARK    5  A    between atoms: C_9  and  C_11
REMARK    6  A    between atoms: C_9  and  C_12
REMARK    7  A    between atoms: N_14  and  C_15
REMARK    8  A    between atoms: C_15  and  C_17
REMARK    9  A    between atoms: C_15  and  C_18
REMARK                            x       y       z     vdW  Elec       q    Type
REMARK                         _______ _______ _______ _____ _____    ______ ____
ROOT
ATOM      1  C   UNL     1      -2.209  -0.209   2.006  0.00  0.00    +0.227 C 
ATOM      2  O   UNL     1      -1.234  -0.916   2.152  0.00  0.00    -0.275 OA
ATOM      3  N   UNL     1      -2.064   1.057   1.567  0.00  0.00    -0.308 N 
ATOM      4  H   UNL     1      -2.844   1.622   1.450  0.00  0.00    +0.149 HD
ENDROOT
BRANCH   1   5
ATOM      5  C   UNL     1      -3.583  -0.747   2.315  0.00  0.00    +0.137 C 
ATOM      6  C   UNL     1      -4.023  -0.258   3.697  0.00  0.00    +0.029 C 
BRANCH   5   7
ATOM      7  S   UNL     1      -3.539  -2.557   2.301  0.00  0.00    -0.074 S 
BRANCH   7  13
ATOM      8  C   UNL     1      -7.374  -5.909   2.806  0.00  0.00    +0.066 C 
ATOM      9  C   UNL     1      -6.931  -4.469   2.753  0.00  0.00    +0.044 A 
ATOM     10  C   UNL     1      -7.854  -3.450   2.883  0.00  0.00    +0.066 A 
ATOM     11  C   UNL     1      -7.402  -2.130   2.828  0.00  0.00    +0.121 A 
ATOM     12  N   UNL     1      -6.105  -1.899   2.652  0.00  0.00    -0.207 NA
ATOM     13  C   UNL     1      -5.251  -2.905   2.532  0.00  0.00    +0.191 A 
ATOM     14  N   UNL     1      -5.654  -4.168   2.575  0.00  0.00    -0.227 NA
BRANCH  11  15
ATOM     15  N   UNL     1      -8.293  -1.076   2.953  0.00  0.00    -0.343 N 
ATOM     16  H   UNL     1      -7.971  -0.162   2.913  0.00  0.00    +0.144 HD
ATOM     17  H   UNL     1      -9.238  -1.252   3.081  0.00  0.00    +0.144 HD
ENDBRANCH  11  15
ENDBRANCH   7  13
ENDBRANCH   5   7
ENDBRANCH   1   5
BRANCH   3  18
ATOM     18  C   UNL     1      -0.729   1.579   1.267  0.00  0.00    +0.102 C 
ATOM     19  C   UNL     1      -0.364   1.244  -0.181  0.00  0.00    +0.033 C 
BRANCH  18  20
ATOM     20  C   UNL     1      -0.721   3.075   1.453  0.00  0.00    -0.009 A 
ATOM     21  C   UNL     1      -1.889   3.797   1.294  0.00  0.00    +0.008 A 
ATOM     22  C   UNL     1      -1.883   5.168   1.465  0.00  0.00    +0.020 A 
ATOM     23  C   UNL     1      -0.707   5.819   1.795  0.00  0.00    +0.042 A 
ATOM     24  C   UNL     1       0.462   5.097   1.954  0.00  0.00    +0.040 A 
ATOM     25  C   UNL     1       0.454   3.724   1.789  0.00  0.00    +0.047 A 
ATOM     26 CL   UNL     1       1.919   2.816   1.996  0.00  0.00    -0.083 Cl
ATOM     27 CL   UNL     1      -0.699   7.542   2.009  0.00  0.00    -0.083 Cl
ENDBRANCH  18  20
ENDBRANCH   3  18
TORSDOF 6
