REMARK  Name = ZINC20060285
REMARK  9 active torsions:
REMARK  status: ('A' for Active; 'I' for Inactive)
REMARK    1  A    between atoms: C_1  and  C_2
REMARK    2  A    between atoms: C_9  and  C_17
REMARK    3  A    between atoms: C_14  and  C_16
REMARK    4  A    between atoms: N_19  and  C_32
REMARK    5  A    between atoms: C_21  and  C_22
REMARK    6  A    between atoms: C_25  and  O_30
REMARK    7  A    between atoms: C_26  and  O_28
REMARK    8  A    between atoms: O_28  and  C_29
REMARK    9  A    between atoms: O_30  and  C_31
REMARK                            x       y       z     vdW  Elec       q    Type
REMARK                         _______ _______ _______ _____ _____    ______ ____
ROOT
ATOM      1  C   UNL     1       2.183  -0.652   3.557  0.00  0.00    +0.040 A 
ATOM      2  C   UNL     1       2.894  -0.344   2.450  0.00  0.00    +0.122 A 
ATOM      3  N   UNL     1       4.105   0.126   2.851  0.00  0.00    -0.239 N 
ATOM      4  N   UNL     1       4.136   0.105   4.251  0.00  0.00    -0.166 NA
ATOM      5  C   UNL     1       2.980  -0.357   4.680  0.00  0.00    +0.100 A 
ENDROOT
BRANCH   1  14
ATOM      6  C   UNL     1      -0.114   0.350  -0.260  0.00  0.00    +0.045 C 
ATOM      7  C   UNL     1       0.230  -1.108  -0.094  0.00  0.00    -0.029 A 
ATOM      8  C   UNL     1       0.446  -1.900  -1.207  0.00  0.00    +0.005 A 
ATOM      9  C   UNL     1       0.764  -3.240  -1.071  0.00  0.00    +0.001 A 
ATOM     10  C   UNL     1       0.876  -3.805   0.187  0.00  0.00    +0.012 A 
ATOM     11  C   UNL     1       0.665  -3.020   1.308  0.00  0.00    +0.021 A 
ATOM     12  C   UNL     1       0.337  -1.655   1.172  0.00  0.00    +0.041 A 
ATOM     13  N   UNL     1       0.105  -0.895   2.318  0.00  0.00    -0.318 N 
ATOM     14  C   UNL     1       0.782  -1.208   3.584  0.00  0.00    +0.226 C 
ATOM     15  N   UNL     1       0.834  -2.662   3.754  0.00  0.00    -0.238 N 
ATOM     16  C   UNL     1       0.778  -3.533   2.686  0.00  0.00    +0.073 A 
ATOM     17  C   UNL     1       0.858  -4.789   3.174  0.00  0.00    +0.052 A 
ATOM     18  C   UNL     1       0.940  -4.699   4.569  0.00  0.00    +0.061 A 
ATOM     19  N   UNL     1       0.934  -3.425   4.910  0.00  0.00    -0.174 NA
ATOM     20  C   UNL     1       1.042  -5.863   5.520  0.00  0.00    +0.067 C 
ATOM     21  H   UNL     1      -0.512  -0.148   2.278  0.00  0.00    +0.148 HD
ENDBRANCH   1  14
BRANCH   5  22
ATOM     22  C   UNL     1       2.588  -0.540   6.099  0.00  0.00    +0.006 A 
ATOM     23  C   UNL     1       3.494  -1.080   7.010  0.00  0.00    +0.014 A 
ATOM     24  C   UNL     1       3.128  -1.250   8.330  0.00  0.00    +0.050 A 
ATOM     25  C   UNL     1       1.859  -0.884   8.753  0.00  0.00    +0.162 A 
ATOM     26  C   UNL     1       0.950  -0.344   7.847  0.00  0.00    +0.162 A 
ATOM     27  C   UNL     1       1.314  -0.167   6.524  0.00  0.00    +0.059 A 
BRANCH  26  28
ATOM     28  O   UNL     1      -0.294   0.014   8.264  0.00  0.00    -0.491 OA
ATOM     29  C   UNL     1      -1.175   0.561   7.281  0.00  0.00    +0.277 C 
ENDBRANCH  26  28
BRANCH  25  30
ATOM     30  O   UNL     1       1.502  -1.053  10.054  0.00  0.00    -0.491 OA
ATOM     31  C   UNL     1       2.484  -1.613  10.929  0.00  0.00    +0.277 C 
ENDBRANCH  25  30
ENDBRANCH   5  22
BRANCH   3  32
ATOM     32  C   UNL     1       5.140   0.556   2.010  0.00  0.00    +0.065 A 
ATOM     33  C   UNL     1       4.974   0.529   0.632  0.00  0.00    +0.028 A 
ATOM     34  C   UNL     1       5.996   0.954  -0.194  0.00  0.00    +0.002 A 
ATOM     35  C   UNL     1       7.185   1.405   0.351  0.00  0.00    +0.000 A 
ATOM     36  C   UNL     1       7.353   1.433   1.723  0.00  0.00    +0.002 A 
ATOM     37  C   UNL     1       6.332   1.016   2.554  0.00  0.00    +0.028 A 
ENDBRANCH   3  32
TORSDOF 5
