REMARK  Name = ZINC39211267
REMARK  13 active torsions:
REMARK  status: ('A' for Active; 'I' for Inactive)
REMARK    1  A    between atoms: C_1  and  C_2
REMARK    2  A    between atoms: C_5  and  S_8
REMARK    3  A    between atoms: S_8  and  N_11
REMARK    4  A    between atoms: N_11  and  C_12
REMARK    5  A    between atoms: C_12  and  C_14
REMARK    6  A    between atoms: C_12  and  C_17
REMARK    7  A    between atoms: C_14  and  C_15
REMARK    8  A    between atoms: C_14  and  C_16
REMARK    9  A    between atoms: C_17  and  O_19
REMARK   10  A    between atoms: O_19  and  C_20
REMARK   11  A    between atoms: C_20  and  C_21
REMARK   12  A    between atoms: N_23  and  C_24
REMARK   13  A    between atoms: C_29  and  C_30
REMARK                            x       y       z     vdW  Elec       q    Type
REMARK                         _______ _______ _______ _____ _____    ______ ____
ROOT
ATOM      1  C   UNL     1       2.530  -4.687   1.094  0.00  0.00    +0.187 C 
ENDROOT
BRANCH   1   2
ATOM      2  C   UNL     1       3.294  -3.385   0.844  0.00  0.00    +0.012 C 
ATOM      3  C   UNL     1       4.185  -3.076   2.049  0.00  0.00    +0.009 C 
ATOM      4  C   UNL     1       4.162  -3.535  -0.407  0.00  0.00    +0.009 C 
ENDBRANCH   1   2
BRANCH   1   5
ATOM      5  N   UNL     1       1.677  -4.982  -0.060  0.00  0.00    -0.176 NA
ATOM      6  H   UNL     1       2.043  -5.452  -0.825  0.00  0.00    +0.149 HD
BRANCH   5   7
ATOM      7  S   UNL     1       0.089  -4.513  -0.057  0.00  0.00    +0.059 S 
ATOM      8  O   UNL     1      -0.458  -4.939   1.184  0.00  0.00    -0.153 OA
ATOM      9  O   UNL     1      -0.455  -4.914  -1.307  0.00  0.00    -0.153 OA
BRANCH   7  14
ATOM     10  C   UNL     1       0.007   1.520   0.003  0.00  0.00    +0.044 C 
ATOM     11  C   UNL     1       0.028   0.013  -0.012  0.00  0.00    -0.050 A 
ATOM     12  C   UNL     1       0.040  -0.666  -1.216  0.00  0.00    +0.005 A 
ATOM     13  C   UNL     1       0.058  -2.049  -1.230  0.00  0.00    +0.029 A 
ATOM     14  C   UNL     1       0.066  -2.751  -0.039  0.00  0.00    +0.105 A 
ATOM     15  C   UNL     1       0.055  -2.072   1.165  0.00  0.00    +0.029 A 
ATOM     16  C   UNL     1       0.041  -0.690   1.178  0.00  0.00    +0.005 A 
ENDBRANCH   7  14
ENDBRANCH   5   7
ENDBRANCH   1   5
BRANCH   1  17
ATOM     17  C   UNL     1       3.511  -5.813   1.296  0.00  0.00    +0.327 C 
ATOM     18  O   UNL     1       3.498  -6.765   0.551  0.00  0.00    -0.249 OA
BRANCH  17  19
ATOM     19  O   UNL     1       4.398  -5.759   2.301  0.00  0.00    -0.454 OA
BRANCH  19  20
ATOM     20  C   UNL     1       5.298  -6.862   2.433  0.00  0.00    +0.328 C 
BRANCH  20  21
ATOM     21  C   UNL     1       6.212  -6.626   3.607  0.00  0.00    +0.255 C 
ATOM     22  O   UNL     1       6.104  -5.614   4.267  0.00  0.00    -0.272 OA
ATOM     23  N   UNL     1       7.150  -7.541   3.925  0.00  0.00    -0.282 N 
ATOM     24  H   UNL     1       7.185  -8.385   3.449  0.00  0.00    +0.155 HD
BRANCH  23  25
ATOM     25  C   UNL     1       8.074  -7.272   4.941  0.00  0.00    +0.036 A 
ATOM     26  C   UNL     1       8.386  -5.958   5.268  0.00  0.00    +0.024 A 
ATOM     27  C   UNL     1       9.297  -5.696   6.272  0.00  0.00    +0.017 A 
ATOM     28  C   UNL     1       9.900  -6.740   6.951  0.00  0.00    +0.018 A 
ATOM     29  C   UNL     1       9.591  -8.049   6.628  0.00  0.00    +0.020 A 
ATOM     30  C   UNL     1       8.676  -8.317   5.629  0.00  0.00    -0.028 A 
ATOM     31  C   UNL     1       8.335  -9.743   5.282  0.00  0.00    +0.046 C 
ATOM     32 BR   UNL     1      11.148  -6.376   8.324  0.00  0.00    -0.050 Br
ENDBRANCH  23  25
ENDBRANCH  20  21
ENDBRANCH  19  20
ENDBRANCH  17  19
ENDBRANCH   1  17
TORSDOF 9
