REMARK  Name = ZINC39293370
REMARK  6 active torsions:
REMARK  status: ('A' for Active; 'I' for Inactive)
REMARK    1  A    between atoms: C_1  and  C_2
REMARK    2  A    between atoms: C_2  and  C_4
REMARK    3  A    between atoms: C_2  and  N_10
REMARK    4  A    between atoms: C_19  and  O_34
REMARK    5  A    between atoms: C_30  and  O_31
REMARK    6  A    between atoms: O_31  and  C_32
REMARK                            x       y       z     vdW  Elec       q    Type
REMARK                         _______ _______ _______ _____ _____    ______ ____
ROOT
ATOM      1  N   UNL     1      -1.262  -0.337   2.429  0.00  0.00    -0.293 N 
ATOM      2  C   UNL     1       0.051  -0.633   2.355  0.00  0.00    +0.303 C 
ATOM      3  O   UNL     1       0.626  -0.585   1.285  0.00  0.00    -0.253 OA
ATOM      4  N   UNL     1       0.727  -0.983   3.468  0.00  0.00    -0.281 N 
ATOM      5  C   UNL     1      -0.021  -1.132   4.694  0.00  0.00    +0.111 C 
ATOM      6  C   UNL     1      -0.319  -2.568   5.029  0.00  0.00    +0.038 C 
ATOM      7  C   UNL     1       0.904  -3.330   5.502  0.00  0.00    +0.056 C 
ATOM      8  C   UNL     1       1.546  -2.643   6.664  0.00  0.00    -0.013 C 
ATOM      9  C   UNL     1       1.665  -3.133   7.851  0.00  0.00    +0.001 C 
ATOM     10  C   UNL     1       1.173  -4.490   8.245  0.00  0.00    +0.141 C 
ATOM     11  C   UNL     1       0.150  -5.021   7.262  0.00  0.00    +0.081 C 
ATOM     12  C   UNL     1       0.502  -4.774   5.822  0.00  0.00    +0.191 C 
ATOM     13  O   UNL     1       1.621  -5.556   5.389  0.00  0.00    -0.484 OA
ATOM     14  C   UNL     1       2.286  -4.871   4.432  0.00  0.00    +0.167 A 
ATOM     15  C   UNL     1       1.933  -3.513   4.410  0.00  0.00    +0.016 A 
ATOM     16  C   UNL     1       2.526  -2.630   3.557  0.00  0.00    -0.022 A 
ATOM     17  C   UNL     1       3.522  -3.131   2.709  0.00  0.00    +0.009 A 
ATOM     18  C   UNL     1       3.862  -4.463   2.697  0.00  0.00    +0.050 A 
ATOM     19  C   UNL     1       3.250  -5.374   3.550  0.00  0.00    +0.162 A 
ATOM     20  C   UNL     1       2.155  -1.191   3.358  0.00  0.00    +0.144 C 
ATOM     21  H   UNL     1      -1.738  -0.449   3.267  0.00  0.00    +0.151 HD
ENDROOT
BRANCH   1  23
ATOM     22  C   UNL     1      -2.435  -1.035   0.400  0.00  0.00    +0.033 C 
ATOM     23  C   UNL     1      -1.969   0.153   1.244  0.00  0.00    +0.102 C 
BRANCH  23  24
ATOM     24  C   UNL     1      -3.165   0.964   1.673  0.00  0.00    -0.027 A 
ATOM     25  C   UNL     1      -3.931   0.551   2.747  0.00  0.00    +0.005 A 
ATOM     26  C   UNL     1      -5.028   1.294   3.141  0.00  0.00    +0.000 A 
ATOM     27  C   UNL     1      -5.359   2.451   2.460  0.00  0.00    +0.000 A 
ATOM     28  C   UNL     1      -4.593   2.864   1.386  0.00  0.00    +0.000 A 
ATOM     29  C   UNL     1      -3.494   2.123   0.995  0.00  0.00    +0.005 A 
ENDBRANCH  23  24
ENDBRANCH   1  23
BRANCH  19  30
ATOM     30  O   UNL     1       3.573  -6.695   3.529  0.00  0.00    -0.491 OA
ATOM     31  C   UNL     1       4.569  -7.104   2.590  0.00  0.00    +0.277 C 
ENDBRANCH  19  30
BRANCH  10  32
ATOM     32  O   UNL     1       2.282  -5.390   8.294  0.00  0.00    -0.388 OA
ATOM     33  H   UNL     1       2.967  -5.136   8.927  0.00  0.00    +0.210 HD
ENDBRANCH  10  32
TORSDOF 4
