REMARK  Name = ZINC54863392
REMARK  3 active torsions:
REMARK  status: ('A' for Active; 'I' for Inactive)
REMARK    1  A    between atoms: C_1  and  C_2
REMARK    2  A    between atoms: C_8  and  N_10
REMARK    3  A    between atoms: N_10  and  C_11
REMARK                            x       y       z     vdW  Elec       q    Type
REMARK                         _______ _______ _______ _____ _____    ______ ____
ROOT
ATOM      1  N   UNL     1       2.116  -0.004   1.231  0.00  0.00    -0.309 N 
ATOM      2  C   UNL     1       3.013  -0.340   0.122  0.00  0.00    +0.131 C 
ATOM      3  C   UNL     1       2.566   0.788   2.264  0.00  0.00    +0.162 A 
ATOM      4  N   UNL     1       3.763   1.334   2.415  0.00  0.00    -0.229 NA
ATOM      5  C   UNL     1       4.065   2.075   3.453  0.00  0.00    +0.061 A 
ATOM      6  C   UNL     1       3.020   2.236   4.372  0.00  0.00    +0.079 A 
ATOM      7  S   UNL     1       1.719   1.298   3.630  0.00  0.00    -0.049 S 
ATOM      8  C   UNL     1       3.085   2.978   5.544  0.00  0.00    +0.172 C 
ATOM      9  O   UNL     1       2.137   3.050   6.302  0.00  0.00    -0.291 OA
ATOM     10  C   UNL     1       4.390   3.694   5.839  0.00  0.00    +0.080 C 
ATOM     11  C   UNL     1       5.553   2.894   5.250  0.00  0.00    +0.014 C 
ATOM     12  C   UNL     1       5.403   2.744   3.733  0.00  0.00    +0.057 C 
ENDROOT
BRANCH   1  19
ATOM     13  C   UNL     1      -0.019   1.526   0.010  0.00  0.00    +0.009 C 
ATOM     14  C   UNL     1       0.002  -0.004   0.002  0.00  0.00    +0.006 C 
ATOM     15  C   UNL     1      -1.433  -0.534   0.013  0.00  0.00    +0.005 C 
ATOM     16  C   UNL     1      -1.413  -2.063   0.004  0.00  0.00    +0.000 C 
ATOM     17  C   UNL     1      -0.673  -2.570   1.244  0.00  0.00    +0.002 C 
ATOM     18  C   UNL     1       0.763  -2.041   1.233  0.00  0.00    +0.023 C 
ATOM     19  C   UNL     1       0.742  -0.511   1.242  0.00  0.00    +0.078 C 
ENDBRANCH   1  19
TORSDOF 1
