REMARK  Name = ZINC10794916
REMARK  8 active torsions:
REMARK  status: ('A' for Active; 'I' for Inactive)
REMARK    1  A    between atoms: C_1  and  C_2
REMARK    2  A    between atoms: C_2  and  C_4
REMARK    3  A    between atoms: C_2  and  O_16
REMARK    4  A    between atoms: N_6  and  C_7
REMARK    5  A    between atoms: C_11  and  N_13
REMARK    6  A    between atoms: O_16  and  C_17
REMARK    7  A    between atoms: C_17  and  C_19
REMARK    8  A    between atoms: C_20  and  C_21
REMARK                            x       y       z     vdW  Elec       q    Type
REMARK                         _______ _______ _______ _____ _____    ______ ____
ROOT
ATOM      1  C   UNL     1      -0.004   1.532   0.014  0.00  0.00    +0.062 C 
ATOM      2  C   UNL     1       0.005   0.002   0.002  0.00  0.00    +0.259 C 
ENDROOT
BRANCH   2   3
ATOM      3  C   UNL     1       0.730  -0.505   1.223  0.00  0.00    +0.258 C 
ATOM      4  O   UNL     1       1.769  -1.118   1.100  0.00  0.00    -0.271 OA
ATOM      5  N   UNL     1       0.223  -0.277   2.451  0.00  0.00    -0.282 N 
ATOM      6  H   UNL     1      -0.571   0.271   2.553  0.00  0.00    +0.155 HD
BRANCH   5   7
ATOM      7  C   UNL     1       0.843  -0.829   3.577  0.00  0.00    +0.036 A 
ATOM      8  C   UNL     1       0.077  -1.256   4.654  0.00  0.00    +0.023 A 
ATOM      9  C   UNL     1       0.691  -1.800   5.764  0.00  0.00    +0.004 A 
ATOM     10  C   UNL     1       2.068  -1.921   5.804  0.00  0.00    +0.033 A 
ATOM     11  C   UNL     1       2.834  -1.496   4.734  0.00  0.00    +0.128 A 
ATOM     12  C   UNL     1       2.225  -0.956   3.618  0.00  0.00    +0.056 A 
BRANCH  11  13
ATOM     13  N   UNL     1       4.308  -1.626   4.782  0.00  0.00    +0.056 N 
ATOM     14  O   UNL     1       4.841  -2.103   5.756  0.00  0.00    -0.126 OA
ATOM     15  O   UNL     1       4.978  -1.256   3.847  0.00  0.00    -0.126 OA
ENDBRANCH  11  13
ENDBRANCH   5   7
ENDBRANCH   2   3
BRANCH   2  16
ATOM     16  O   UNL     1       0.671  -0.462  -1.174  0.00  0.00    -0.449 OA
BRANCH  16  17
ATOM     17  C   UNL     1      -0.090  -0.662  -2.270  0.00  0.00    +0.333 C 
ATOM     18  O   UNL     1      -1.288  -0.449  -2.227  0.00  0.00    -0.246 OA
BRANCH  17  19
ATOM     19  C   UNL     1       0.503  -1.120  -3.468  0.00  0.00    +0.095 C 
ATOM     20  C   UNL     1      -0.263  -1.322  -4.571  0.00  0.00    +0.053 C 
BRANCH  20  21
ATOM     21  C   UNL     1       0.331  -1.781  -5.770  0.00  0.00    +0.129 A 
ATOM     22  C   UNL     1      -0.323  -2.022  -6.961  0.00  0.00    +0.050 A 
ATOM     23  C   UNL     1       0.651  -2.460  -7.870  0.00  0.00    +0.056 A 
ATOM     24  C   UNL     1       1.835  -2.469  -7.215  0.00  0.00    +0.165 A 
ATOM     25  O   UNL     1       1.640  -2.055  -5.955  0.00  0.00    -0.450 OA
ATOM     26  I   UNL     1       3.677  -3.030  -8.039  0.00  0.00    -0.001 I 
ENDBRANCH  20  21
ENDBRANCH  17  19
ENDBRANCH  16  17
ENDBRANCH   2  16
TORSDOF 7
