REMARK  Name = ZINC67222166
REMARK  8 active torsions:
REMARK  status: ('A' for Active; 'I' for Inactive)
REMARK    1  A    between atoms: C_3  and  N_20
REMARK    2  A    between atoms: C_6  and  C_7
REMARK    3  A    between atoms: C_7  and  N_8
REMARK    4  A    between atoms: N_8  and  C_9
REMARK    5  A    between atoms: C_9  and  C_10
REMARK    6  A    between atoms: C_13  and  C_15
REMARK    7  A    between atoms: C_15  and  S_16
REMARK    8  A    between atoms: S_16  and  C_17
REMARK                            x       y       z     vdW  Elec       q    Type
REMARK                         _______ _______ _______ _____ _____    ______ ____
ROOT
ATOM      1  N   UNL     1      -1.737  -1.002  -1.371  0.00  0.00    +0.386 N 
ATOM      2  H   UNL     1      -1.875  -0.115  -1.831  0.00  0.00    -0.085 HD
ATOM      3  H   UNL     1      -1.035  -1.531  -1.866  0.00  0.00    -0.085 HD
ENDROOT
BRANCH   1   4
ATOM      4  C   UNL     1      -1.294  -0.773   0.011  0.00  0.00    -0.046 C 
BRANCH   4  10
ATOM      5  C   UNL     1      -0.017   1.379   0.024  0.00  0.00    +0.003 A 
ATOM      6  C   UNL     1       1.169   2.087   0.016  0.00  0.00    +0.023 A 
ATOM      7  C   UNL     1       2.381   1.409  -0.013  0.00  0.00    +0.030 A 
ATOM      8  C   UNL     1       2.396   0.020  -0.035  0.00  0.00    +0.023 A 
ATOM      9  C   UNL     1       1.207  -0.682  -0.027  0.00  0.00    +0.003 A 
ATOM     10  C   UNL     1       0.002  -0.004   0.002  0.00  0.00    -0.064 A 
BRANCH   7  11
ATOM     11  N   UNL     1       3.582   2.122  -0.021  0.00  0.00    -0.326 N 
ATOM     12  C   UNL     1       4.876   1.427   0.067  0.00  0.00    +0.133 C 
ATOM     13  C   UNL     1       5.777   1.938  -1.064  0.00  0.00    +0.178 C 
ATOM     14  O   UNL     1       5.819   3.366  -1.024  0.00  0.00    -0.377 OA
ATOM     15  C   UNL     1       4.553   3.995  -1.240  0.00  0.00    +0.178 C 
ATOM     16  C   UNL     1       3.591   3.590  -0.124  0.00  0.00    +0.133 C 
ENDBRANCH   7  11
ENDBRANCH   4  10
ENDBRANCH   1   4
BRANCH   1  17
ATOM     17  C   UNL     1      -3.000  -1.752  -1.363  0.00  0.00    -0.006 C 
BRANCH  17  18
ATOM     18  C   UNL     1      -3.454  -1.987  -2.780  0.00  0.00    +0.088 A 
ATOM     19  C   UNL     1      -3.139  -3.050  -3.542  0.00  0.00    +0.043 A 
ATOM     20  C   UNL     1      -3.775  -2.862  -4.790  0.00  0.00    +0.046 A 
ATOM     21  C   UNL     1      -4.441  -1.696  -4.717  0.00  0.00    +0.115 A 
ATOM     22  O   UNL     1      -4.247  -1.173  -3.495  0.00  0.00    -0.466 OA
BRANCH  21  23
ATOM     23  C   UNL     1      -5.267  -1.082  -5.818  0.00  0.00    +0.148 C 
BRANCH  23  24
ATOM     24  S   UNL     1      -6.981  -1.661  -5.681  0.00  0.00    -0.084 S 
BRANCH  24  25
ATOM     25  C   UNL     1      -7.832  -0.843  -7.058  0.00  0.00    +0.400 C 
ATOM     26  F   UNL     1      -7.731   0.545  -6.911  0.00  0.00    -0.197 F 
ATOM     27  F   UNL     1      -7.241  -1.227  -8.267  0.00  0.00    -0.197 F 
ENDBRANCH  24  25
ENDBRANCH  23  24
ENDBRANCH  21  23
ENDBRANCH  17  18
ENDBRANCH   1  17
TORSDOF 8
