REMARK  Name = ZINC40038475
REMARK  8 active torsions:
REMARK  status: ('A' for Active; 'I' for Inactive)
REMARK    1  A    between atoms: C_1  and  C_2
REMARK    2  A    between atoms: C_6  and  C_33
REMARK    3  A    between atoms: C_7  and  C_12
REMARK    4  A    between atoms: C_10  and  C_11
REMARK    5  A    between atoms: N_14  and  C_15
REMARK    6  A    between atoms: C_16  and  C_23
REMARK    7  A    between atoms: N_25  and  C_26
REMARK    8  A    between atoms: C_26  and  C_27
REMARK                            x       y       z     vdW  Elec       q    Type
REMARK                         _______ _______ _______ _____ _____    ______ ____
ROOT
ATOM      1  C   UNL     1       0.114  -6.606   4.534  0.00  0.00    +0.085 A 
ATOM      2  C   UNL     1       0.117  -6.739   5.911  0.00  0.00    +0.069 A 
ATOM      3  C   UNL     1       0.139  -8.098   6.452  0.00  0.00    -0.023 A 
ATOM      4  C   UNL     1       0.155  -9.062   5.514  0.00  0.00    -0.004 A 
ATOM      5  S   UNL     1       0.131  -8.185   3.971  0.00  0.00    -0.077 S 
ATOM      6  C   UNL     1       0.181 -10.437   6.123  0.00  0.00    +0.043 C 
ATOM      7  C   UNL     1       0.613 -10.206   7.589  0.00  0.00    +0.010 C 
ATOM      8  C   UNL     1       0.146  -8.756   7.830  0.00  0.00    +0.037 C 
ENDROOT
BRANCH   1  11
ATOM      9  C   UNL     1       0.089  -5.493   2.446  0.00  0.00    +0.284 C 
ATOM     10  O   UNL     1       0.100  -6.571   1.882  0.00  0.00    -0.266 OA
ATOM     11  N   UNL     1       0.095  -5.437   3.792  0.00  0.00    -0.273 N 
ATOM     12  H   UNL     1       0.086  -4.577   4.242  0.00  0.00    +0.156 HD
BRANCH   9  19
ATOM     13  C   UNL     1      -0.018   1.503   0.010  0.00  0.00    +0.044 C 
ATOM     14  C   UNL     1       0.002  -0.004   0.002  0.00  0.00    -0.044 A 
ATOM     15  C   UNL     1       0.006  -0.684  -1.209  0.00  0.00    +0.004 A 
ATOM     16  C   UNL     1       0.024  -2.050  -1.236  0.00  0.00    +0.012 A 
ATOM     17  C   UNL     1       0.040  -2.766  -0.036  0.00  0.00    +0.024 A 
ATOM     18  C   UNL     1       0.061  -4.188   0.301  0.00  0.00    +0.008 A 
ATOM     19  C   UNL     1       0.069  -4.253   1.659  0.00  0.00    +0.194 A 
ATOM     20  O   UNL     1       0.054  -3.006   2.174  0.00  0.00    -0.450 OA
ATOM     21  C   UNL     1       0.037  -2.082   1.194  0.00  0.00    +0.139 A 
ATOM     22  C   UNL     1       0.023  -0.692   1.196  0.00  0.00    -0.005 A 
ATOM     23  C   UNL     1       0.024   0.062   2.501  0.00  0.00    +0.048 C 
ATOM     24  C   UNL     1       0.071  -5.348  -0.661  0.00  0.00    +0.048 C 
ENDBRANCH   9  19
ENDBRANCH   1  11
BRANCH   2  25
ATOM     25  C   UNL     1       0.100  -5.568   6.792  0.00  0.00    +0.247 C 
ATOM     26  O   UNL     1      -0.962  -5.098   7.158  0.00  0.00    -0.270 OA
ATOM     27  N   UNL     1       1.259  -5.011   7.195  0.00  0.00    -0.309 N 
ATOM     28  H   UNL     1       2.104  -5.385   6.903  0.00  0.00    +0.149 HD
BRANCH  27  29
ATOM     29  C   UNL     1       1.241  -3.839   8.075  0.00  0.00    +0.136 C 
BRANCH  29  30
ATOM     30  C   UNL     1       2.677  -3.409   8.380  0.00  0.00    +0.135 C 
ATOM     31  C   UNL     1       2.672  -2.252   9.402  0.00  0.00    +0.035 C 
ATOM     32  C   UNL     1       3.809  -1.337   8.870  0.00  0.00    +0.031 C 
ATOM     33  C   UNL     1       3.666  -1.547   7.342  0.00  0.00    +0.160 C 
ATOM     34  O   UNL     1       3.305  -2.930   7.184  0.00  0.00    -0.375 OA
ENDBRANCH  29  30
ENDBRANCH  27  29
ENDBRANCH   2  25
TORSDOF 5
