REMARK  Name = ZINC56200982
REMARK  6 active torsions:
REMARK  status: ('A' for Active; 'I' for Inactive)
REMARK    1  A    between atoms: C_1  and  C_2
REMARK    2  A    between atoms: C_2  and  C_3
REMARK    3  A    between atoms: C_7  and  N_12
REMARK    4  A    between atoms: N_12  and  C_13
REMARK    5  A    between atoms: C_13  and  C_15
REMARK    6  A    between atoms: C_13  and  C_16
REMARK                            x       y       z     vdW  Elec       q    Type
REMARK                         _______ _______ _______ _____ _____    ______ ____
ROOT
ATOM      1  N   UNL     1      -6.744  -2.462  -1.358  0.00  0.00    -0.333 N 
ATOM      2  H   UNL     1      -6.756  -2.466  -2.328  0.00  0.00    +0.147 HD
ENDROOT
BRANCH   1   7
ATOM      3  C   UNL     1      -1.450  -0.402  -0.032  0.00  0.00    +0.196 A 
ATOM      4  N   UNL     1      -2.155  -0.676  -1.089  0.00  0.00    -0.213 NA
ATOM      5  C   UNL     1      -3.369  -1.149  -0.696  0.00  0.00    +0.111 A 
ATOM      6  C   UNL     1      -4.501  -1.589  -1.383  0.00  0.00    +0.054 A 
ATOM      7  C   UNL     1      -5.607  -2.020  -0.673  0.00  0.00    +0.030 A 
ATOM      8  C   UNL     1      -5.594  -2.015   0.720  0.00  0.00    +0.026 A 
ATOM      9  C   UNL     1      -4.479  -1.581   1.405  0.00  0.00    +0.050 A 
ATOM     10  C   UNL     1      -3.362  -1.147   0.707  0.00  0.00    +0.155 A 
ATOM     11  O   UNL     1      -2.149  -0.680   1.079  0.00  0.00    -0.440 OA
BRANCH   3  13
ATOM     12  C   UNL     1      -0.094   1.675  -0.051  0.00  0.00    +0.013 C 
ATOM     13  C   UNL     1      -0.046   0.145  -0.052  0.00  0.00    +0.093 C 
ENDBRANCH   3  13
ENDBRANCH   1   7
BRANCH   1  14
ATOM     14  C   UNL     1      -7.918  -2.919  -0.609  0.00  0.00    +0.154 C 
ATOM     15  C   UNL     1      -7.745  -4.394  -0.241  0.00  0.00    +0.038 C 
BRANCH  14  16
ATOM     16  C   UNL     1      -9.151  -2.755  -1.460  0.00  0.00    +0.236 C 
ATOM     17  O   UNL     1      -9.057  -2.744  -2.669  0.00  0.00    -0.274 OA
ATOM     18  N   UNL     1     -10.359  -2.620  -0.876  0.00  0.00    -0.295 N 
ATOM     19  C   UNL     1     -11.580  -2.571  -1.694  0.00  0.00    +0.113 C 
ATOM     20  C   UNL     1     -12.431  -3.807  -1.365  0.00  0.00    +0.061 C 
ATOM     21  C   UNL     1     -12.430  -4.009   0.116  0.00  0.00    -0.004 A 
ATOM     22  C   UNL     1     -11.583  -3.469   1.033  0.00  0.00    -0.020 A 
ATOM     23  C   UNL     1     -11.791  -3.826   2.364  0.00  0.00    +0.013 A 
ATOM     24  C   UNL     1     -12.801  -4.665   2.689  0.00  0.00    +0.046 A 
ATOM     25  S   UNL     1     -13.527  -5.004   1.092  0.00  0.00    -0.101 S 
ATOM     26  C   UNL     1     -10.474  -2.526   0.585  0.00  0.00    +0.143 C 
ENDBRANCH  14  16
ENDBRANCH   1  14
TORSDOF 4
