REMARK  Name = ZINC01249445
REMARK  3 active torsions:
REMARK  status: ('A' for Active; 'I' for Inactive)
REMARK    1  A    between atoms: C_1  and  N_45
REMARK    2  A    between atoms: C_12  and  C_15
REMARK    3  A    between atoms: C_18  and  C_20
REMARK                            x       y       z     vdW  Elec       q    Type
REMARK                         _______ _______ _______ _____ _____    ______ ____
ROOT
ATOM      1  C   UNL     1       8.210  -3.035   3.247  0.00  0.00    -0.096 C 
ATOM      2  C   UNL     1       6.379  -4.483   2.600  0.00  0.00    -0.074 C 
ATOM      3  C   UNL     1       4.882  -4.487   2.281  0.00  0.00    +0.018 C 
ATOM      4  C   UNL     1       4.663  -3.677   1.008  0.00  0.00    -0.027 A 
ATOM      5  C   UNL     1       5.622  -2.826   0.577  0.00  0.00    -0.021 A 
ATOM      6  S   UNL     1       4.965  -2.111  -0.906  0.00  0.00    -0.080 S 
ATOM      7  C   UNL     1       3.457  -2.920  -0.947  0.00  0.00    +0.080 A 
ATOM      8  C   UNL     1       3.468  -3.747   0.187  0.00  0.00    +0.068 A 
ATOM      9  C   UNL     1       2.277  -4.596   0.423  0.00  0.00    +0.248 C 
ATOM     10  O   UNL     1       2.275  -5.461   1.280  0.00  0.00    -0.270 OA
ATOM     11  N   UNL     1       1.196  -4.371  -0.351  0.00  0.00    -0.287 N 
ATOM     12  C   UNL     1       1.082  -3.251  -1.278  0.00  0.00    +0.227 C 
ATOM     13  N   UNL     1       2.399  -2.866  -1.817  0.00  0.00    -0.314 N 
ATOM     14  C   UNL     1       6.942  -2.565   1.233  0.00  0.00    -0.036 C 
ATOM     15  H   UNL     1       0.452  -4.990  -0.286  0.00  0.00    +0.151 HD
ATOM     16  H   UNL     1       2.511  -2.588  -2.739  0.00  0.00    +0.149 HD
ATOM     17  N   UNL     1       6.873  -3.091   2.617  0.00  0.00    +0.381 N 
ATOM     18  H   UNL     1       6.223  -2.513   3.163  0.00  0.00    -0.082 HD
ENDROOT
BRANCH  12  19
ATOM     19  C   UNL     1       0.479  -2.073  -0.557  0.00  0.00    +0.144 A 
ATOM     20  C   UNL     1      -0.375  -2.141   0.482  0.00  0.00    +0.049 A 
ATOM     21  C   UNL     1      -0.687  -0.816   0.848  0.00  0.00    +0.050 A 
ATOM     22  C   UNL     1       0.002  -0.004   0.002  0.00  0.00    +0.138 A 
ATOM     23  O   UNL     1       0.701  -0.780  -0.848  0.00  0.00    -0.456 OA
BRANCH  22  24
ATOM     24  C   UNL     1      -0.018   1.474   0.010  0.00  0.00    +0.052 A 
ATOM     25  C   UNL     1       1.179   2.191   0.003  0.00  0.00    +0.014 A 
ATOM     26  C   UNL     1       1.154   3.570   0.010  0.00  0.00    +0.001 A 
ATOM     27  C   UNL     1      -0.055   4.244   0.024  0.00  0.00    +0.003 A 
ATOM     28  C   UNL     1      -1.246   3.541   0.032  0.00  0.00    +0.039 A 
ATOM     29  C   UNL     1      -1.236   2.159   0.020  0.00  0.00    +0.134 A 
ATOM     30  F   UNL     1      -2.400   1.473   0.021  0.00  0.00    -0.205 F 
ENDBRANCH  22  24
ENDBRANCH  12  19
TORSDOF 2
