REMARK  Name = ZINC37702846
REMARK  6 active torsions:
REMARK  status: ('A' for Active; 'I' for Inactive)
REMARK    1  A    between atoms: C_1  and  N_2
REMARK    2  A    between atoms: N_2  and  C_3
REMARK    3  A    between atoms: C_3  and  C_4
REMARK    4  A    between atoms: C_9  and  O_10
REMARK    5  A    between atoms: O_10  and  C_11
REMARK    6  A    between atoms: C_11  and  C_12
REMARK                            x       y       z     vdW  Elec       q    Type
REMARK                         _______ _______ _______ _____ _____    ______ ____
ROOT
ATOM      1  C   UNL     1       0.710  -1.985  -1.215  0.00  0.00    -0.022 A 
ATOM      2  C   UNL     1       1.845  -2.663  -0.815  0.00  0.00    +0.020 A 
ATOM      3  C   UNL     1       1.865  -4.046  -0.822  0.00  0.00    +0.018 A 
ATOM      4  C   UNL     1       0.748  -4.753  -1.230  0.00  0.00    +0.019 A 
ATOM      5  C   UNL     1      -0.390  -4.079  -1.630  0.00  0.00    +0.047 A 
ATOM      6  C   UNL     1      -0.413  -2.692  -1.619  0.00  0.00    +0.122 A 
ATOM      7 BR   UNL     1       3.420  -4.971  -0.275  0.00  0.00    -0.050 Br
ENDROOT
BRANCH   1   8
ATOM      8  C   UNL     1       0.690  -0.478  -1.207  0.00  0.00    -0.043 C 
BRANCH   8  10
ATOM      9  C   UNL     1      -0.018   1.465   0.010  0.00  0.00    -0.100 C 
ATOM     10  N   UNL     1       0.002  -0.004   0.002  0.00  0.00    +0.380 N 
ATOM     11  H   UNL     1       0.490  -0.338   0.820  0.00  0.00    -0.086 HD
ATOM     12  H   UNL     1      -0.945  -0.353   0.009  0.00  0.00    -0.086 HD
ENDBRANCH   8  10
ENDBRANCH   1   8
BRANCH   6  13
ATOM     13  O   UNL     1      -1.532  -2.026  -2.008  0.00  0.00    -0.488 OA
BRANCH  13  14
ATOM     14  C   UNL     1      -2.651  -2.819  -2.411  0.00  0.00    +0.275 C 
BRANCH  14  15
ATOM     15  C   UNL     1      -3.808  -1.902  -2.811  0.00  0.00    +0.232 C 
ATOM     16  C   UNL     1      -5.022  -2.726  -3.303  0.00  0.00    +0.155 C 
ATOM     17  N   UNL     1      -6.161  -1.960  -2.759  0.00  0.00    -0.277 N 
ATOM     18  C   UNL     1      -5.678  -1.109  -1.834  0.00  0.00    +0.401 C 
ATOM     19  O   UNL     1      -6.369  -0.319  -1.222  0.00  0.00    -0.226 OA
ATOM     20  O   UNL     1      -4.350  -1.226  -1.660  0.00  0.00    -0.442 OA
ATOM     21  H   UNL     1      -7.090  -2.054  -3.021  0.00  0.00    +0.152 HD
ENDBRANCH  14  15
ENDBRANCH  13  14
ENDBRANCH   6  13
TORSDOF 5
