REMARK  Name = ZINC05126157
REMARK  5 active torsions:
REMARK  status: ('A' for Active; 'I' for Inactive)
REMARK    1  A    between atoms: C_8  and  C_11
REMARK    2  A    between atoms: C_13  and  C_17
REMARK    3  A    between atoms: N_19  and  N_20
REMARK    4  A    between atoms: C_21  and  C_22
REMARK    5  A    between atoms: C_23  and  C_24
REMARK                            x       y       z     vdW  Elec       q    Type
REMARK                         _______ _______ _______ _____ _____    ______ ____
ROOT
ATOM      1  C   UNL     1      -5.384   7.308   0.068  0.00  0.00    +0.094 A 
ATOM      2  C   UNL     1      -5.881   5.991   0.057  0.00  0.00    +0.062 A 
ATOM      3  C   UNL     1      -4.763   5.179   0.053  0.00  0.00    +0.122 A 
ATOM      4  N   UNL     1      -3.679   6.012   0.052  0.00  0.00    -0.272 N 
ATOM      5  H   UNL     1      -2.725   5.713   0.045  0.00  0.00    +0.189 HD
ATOM      6  N   UNL     1      -4.068   7.236   0.060  0.00  0.00    -0.173 NA
ENDROOT
BRANCH   1  14
ATOM      7  C   UNL     1      -3.697  11.293   0.082  0.00  0.00    +0.001 A 
ATOM      8  C   UNL     1      -4.536  12.409   0.091  0.00  0.00    +0.004 A 
ATOM      9  C   UNL     1      -5.889  12.252   0.096  0.00  0.00    -0.039 A 
ATOM     10  C   UNL     1      -6.396  10.956   0.091  0.00  0.00    -0.011 A 
ATOM     11  C   UNL     1      -7.785  10.879   0.097  0.00  0.00    -0.039 A 
ATOM     12  C   UNL     1      -8.364   9.645   0.093  0.00  0.00    +0.005 A 
ATOM     13  C   UNL     1      -7.578   8.494   0.084  0.00  0.00    +0.011 A 
ATOM     14  C   UNL     1      -6.193   8.550   0.078  0.00  0.00    +0.010 A 
ATOM     15  C   UNL     1      -5.569   9.820   0.087  0.00  0.00    -0.008 A 
ATOM     16  C   UNL     1      -4.181  10.017   0.077  0.00  0.00    +0.009 A 
ATOM     17  C   UNL     1      -8.316  12.293   0.106  0.00  0.00    +0.040 C 
ATOM     18  C   UNL     1      -7.065  13.198   0.106  0.00  0.00    +0.040 C 
ENDBRANCH   1  14
BRANCH   3  19
ATOM     19  C   UNL     1      -4.743   3.708   0.045  0.00  0.00    +0.281 C 
ATOM     20  O   UNL     1      -5.789   3.086   0.046  0.00  0.00    -0.267 OA
ATOM     21  N   UNL     1      -3.567   3.050   0.035  0.00  0.00    -0.202 N 
ATOM     22  H   UNL     1      -2.733   3.547   0.034  0.00  0.00    +0.178 HD
BRANCH  21  23
ATOM     23  N   UNL     1      -3.548   1.649   0.028  0.00  0.00    -0.188 NA
ATOM     24  C   UNL     1      -2.410   1.013   0.019  0.00  0.00    +0.130 C 
BRANCH  24  25
ATOM     25  C   UNL     1      -1.194   1.737   0.017  0.00  0.00    +0.025 C 
ATOM     26  C   UNL     1      -0.013   1.076   0.008  0.00  0.00    +0.048 C 
BRANCH  26  27
ATOM     27  C   UNL     1       1.243   1.824   0.000  0.00  0.00    +0.128 A 
ATOM     28  C   UNL     1       2.500   1.285  -0.009  0.00  0.00    +0.049 A 
ATOM     29  C   UNL     1       3.402   2.363  -0.017  0.00  0.00    +0.042 A 
ATOM     30  C   UNL     1       2.668   3.495  -0.004  0.00  0.00    +0.195 A 
ATOM     31  O   UNL     1       1.366   3.167   0.006  0.00  0.00    -0.464 OA
ENDBRANCH  26  27
ENDBRANCH  24  25
ENDBRANCH  21  23
ENDBRANCH   3  19
TORSDOF 5
