REMARK  Name = ZINC40717408
REMARK  5 active torsions:
REMARK  status: ('A' for Active; 'I' for Inactive)
REMARK    1  A    between atoms: C_1  and  C_2
REMARK    2  A    between atoms: N_6  and  C_8
REMARK    3  A    between atoms: C_8  and  C_10
REMARK    4  A    between atoms: C_8  and  C_12
REMARK    5  A    between atoms: C_10  and  N_11
REMARK                            x       y       z     vdW  Elec       q    Type
REMARK                         _______ _______ _______ _____ _____    ______ ____
ROOT
ATOM      1  C   UNL     1       2.407  -2.313   1.529  0.00  0.00    -0.055 C 
ENDROOT
BRANCH   1   2
ATOM      2  C   UNL     1       2.898  -3.672   1.102  0.00  0.00    -0.058 A 
ATOM      3  C   UNL     1       4.256  -3.909   0.984  0.00  0.00    +0.051 A 
ATOM      4  C   UNL     1       4.703  -5.160   0.592  0.00  0.00    +0.163 A 
ATOM      5  C   UNL     1       3.792  -6.170   0.320  0.00  0.00    +0.176 A 
ATOM      6  C   UNL     1       2.433  -5.930   0.439  0.00  0.00    +0.063 A 
ATOM      7  C   UNL     1       1.990  -4.680   0.836  0.00  0.00    +0.021 A 
ATOM      8 BR   UNL     1       1.190  -7.305   0.068  0.00  0.00    -0.046 Br
ATOM      9  O   UNL     1       4.243  -7.399  -0.065  0.00  0.00    -0.487 OA
ATOM     10  C   UNL     1       4.859  -7.464  -1.353  0.00  0.00    +0.232 C 
ATOM     11  C   UNL     1       6.327  -7.075  -1.269  0.00  0.00    +0.082 C 
ATOM     12  C   UNL     1       6.518  -5.623  -0.857  0.00  0.00    +0.232 C 
ATOM     13  O   UNL     1       6.040  -5.407   0.472  0.00  0.00    -0.488 OA
ENDBRANCH   1   2
BRANCH   1  18
ATOM     14  C   UNL     1      -0.171   1.362  -0.190  0.00  0.00    +0.005 C 
ATOM     15  C   UNL     1      -0.099  -0.163  -0.098  0.00  0.00    -0.032 C 
ATOM     16  C   UNL     1       0.698  -0.746  -1.288  0.00  0.00    -0.017 C 
ATOM     17  C   UNL     1       1.542  -1.886  -0.688  0.00  0.00    -0.078 C 
ATOM     18  N   UNL     1       1.212  -1.958   0.752  0.00  0.00    +0.383 N 
ATOM     19  C   UNL     1       0.738  -0.600   1.131  0.00  0.00    -0.075 C 
ATOM     20  H   UNL     1       0.480  -2.635   0.908  0.00  0.00    -0.081 HD
ENDBRANCH   1  18
BRANCH   1  21
ATOM     21  C   UNL     1       2.058  -2.341   3.018  0.00  0.00    -0.098 C 
BRANCH  21  22
ATOM     22  N   UNL     1       3.281  -2.551   3.804  0.00  0.00    +0.377 N 
ATOM     23  H   UNL     1       3.737  -3.397   3.496  0.00  0.00    -0.090 HD
ATOM     24  H   UNL     1       3.903  -1.768   3.675  0.00  0.00    -0.090 HD
ATOM     25  H   UNL     1       3.043  -2.635   4.781  0.00  0.00    -0.090 HD
ENDBRANCH  21  22
ENDBRANCH   1  21
TORSDOF 4
