REMARK  Name = ZINC36730607
REMARK  11 active torsions:
REMARK  status: ('A' for Active; 'I' for Inactive)
REMARK    1  A    between atoms: C_1  and  C_2
REMARK    2  A    between atoms: C_2  and  N_3
REMARK    3  A    between atoms: N_3  and  C_4
REMARK    4  A    between atoms: C_5  and  N_20
REMARK    5  A    between atoms: N_6  and  C_13
REMARK    6  A    between atoms: C_13  and  C_14
REMARK    7  A    between atoms: C_21  and  C_23
REMARK    8  A    between atoms: C_23  and  N_24
REMARK    9  A    between atoms: N_24  and  C_25
REMARK   10  A    between atoms: N_24  and  C_26
REMARK   11  A    between atoms: C_26  and  C_27
REMARK                            x       y       z     vdW  Elec       q    Type
REMARK                         _______ _______ _______ _____ _____    ______ ____
ROOT
ATOM      1  C   UNL     1       2.132  -0.872  -1.190  0.00  0.00    +0.140 A 
ATOM      2  C   UNL     1       2.665  -1.772  -0.290  0.00  0.00    +0.128 A 
ATOM      3  N   UNL     1       4.029  -1.951  -0.248  0.00  0.00    -0.276 N 
ATOM      4  C   UNL     1       4.833  -1.256  -1.072  0.00  0.00    +0.331 A 
ATOM      5  O   UNL     1       6.035  -1.428  -1.018  0.00  0.00    -0.246 OA
ATOM      6  N   UNL     1       4.331  -0.374  -1.955  0.00  0.00    -0.273 N 
ATOM      7  H   UNL     1       4.932   0.115  -2.539  0.00  0.00    +0.173 HD
ATOM      8  C   UNL     1       3.002  -0.166  -2.041  0.00  0.00    +0.277 A 
ATOM      9  O   UNL     1       2.558   0.633  -2.849  0.00  0.00    -0.266 OA
ENDROOT
BRANCH   1  10
ATOM     10  N   UNL     1       0.738  -0.666  -1.258  0.00  0.00    -0.266 N 
ATOM     11  C   UNL     1       0.056  -1.027  -2.364  0.00  0.00    +0.203 C 
ATOM     12  O   UNL     1       0.625  -1.609  -3.264  0.00  0.00    -0.277 OA
BRANCH  10  14
ATOM     13  C   UNL     1       0.102   1.465  -0.239  0.00  0.00    +0.025 C 
ATOM     14  C   UNL     1       0.031  -0.059  -0.127  0.00  0.00    +0.110 C 
ENDBRANCH  10  14
BRANCH  11  15
ATOM     15  C   UNL     1      -1.412  -0.709  -2.482  0.00  0.00    +0.019 C 
BRANCH  15  16
ATOM     16  N   UNL     1      -1.919  -1.203  -3.770  0.00  0.00    +0.384 N 
ATOM     17  C   UNL     1      -1.272  -0.468  -4.865  0.00  0.00    -0.096 C 
ATOM     18  H   UNL     1      -1.712  -2.186  -3.857  0.00  0.00    -0.082 HD
BRANCH  16  19
ATOM     19  C   UNL     1      -3.372  -1.000  -3.835  0.00  0.00    -0.075 C 
BRANCH  19  20
ATOM     20  C   UNL     1      -3.921  -1.644  -5.109  0.00  0.00    -0.028 C 
ATOM     21  C   UNL     1      -5.411  -1.325  -5.242  0.00  0.00    +0.002 C 
ATOM     22  C   UNL     1      -5.960  -1.969  -6.516  0.00  0.00    +0.000 C 
ATOM     23  C   UNL     1      -5.768  -3.486  -6.444  0.00  0.00    +0.000 C 
ATOM     24  C   UNL     1      -4.277  -3.805  -6.311  0.00  0.00    +0.000 C 
ATOM     25  C   UNL     1      -3.729  -3.160  -5.037  0.00  0.00    +0.002 C 
ENDBRANCH  19  20
ENDBRANCH  16  19
ENDBRANCH  15  16
ENDBRANCH  11  15
ENDBRANCH   1  10
BRANCH   2  26
ATOM     26  N   UNL     1       1.844  -2.482   0.552  0.00  0.00    -0.343 N 
ATOM     27  H   UNL     1       0.890  -2.307   0.561  0.00  0.00    +0.144 HD
ATOM     28  H   UNL     1       2.219  -3.158   1.139  0.00  0.00    +0.144 HD
ENDBRANCH   2  26
BRANCH   3  29
ATOM     29  C   UNL     1       4.608  -2.904   0.702  0.00  0.00    +0.163 C 
BRANCH  29  30
ATOM     30  C   UNL     1       4.702  -4.263   0.056  0.00  0.00    -0.028 A 
ATOM     31  C   UNL     1       3.647  -5.150   0.156  0.00  0.00    +0.005 A 
ATOM     32  C   UNL     1       3.734  -6.396  -0.436  0.00  0.00    +0.000 A 
ATOM     33  C   UNL     1       4.875  -6.754  -1.129  0.00  0.00    +0.000 A 
ATOM     34  C   UNL     1       5.929  -5.867  -1.230  0.00  0.00    +0.000 A 
ATOM     35  C   UNL     1       5.841  -4.619  -0.642  0.00  0.00    +0.005 A 
ENDBRANCH  29  30
ENDBRANCH   3  29
TORSDOF 9
