REMARK  Name = ZINC08785937
REMARK  8 active torsions:
REMARK  status: ('A' for Active; 'I' for Inactive)
REMARK    1  A    between atoms: C_1  and  C_2
REMARK    2  A    between atoms: C_5  and  C_22
REMARK    3  A    between atoms: C_6  and  C_8
REMARK    4  A    between atoms: C_8  and  N_9
REMARK    5  A    between atoms: C_17  and  C_18
REMARK    6  A    between atoms: C_18  and  C_19
REMARK    7  A    between atoms: C_18  and  C_20
REMARK    8  A    between atoms: C_18  and  O_21
REMARK                            x       y       z     vdW  Elec       q    Type
REMARK                         _______ _______ _______ _____ _____    ______ ____
ROOT
ATOM      1  N   UNL     1       1.586   4.324  -0.210  0.00  0.00    -0.321 N 
ATOM      2  C   UNL     1       0.499   3.535  -0.534  0.00  0.00    +0.069 A 
ATOM      3  C   UNL     1       0.292   2.166  -0.626  0.00  0.00    +0.028 A 
ATOM      4  C   UNL     1      -0.949   1.686  -0.986  0.00  0.00    +0.002 A 
ATOM      5  C   UNL     1      -1.989   2.562  -1.263  0.00  0.00    +0.002 A 
ATOM      6  C   UNL     1      -1.805   3.913  -1.171  0.00  0.00    +0.030 A 
ATOM      7  C   UNL     1      -0.555   4.422  -0.808  0.00  0.00    +0.089 A 
ATOM      8  N   UNL     1      -0.069   5.679  -0.641  0.00  0.00    -0.229 NA
ATOM      9  C   UNL     1       1.183   5.620  -0.291  0.00  0.00    +0.142 A 
ENDROOT
BRANCH   9  10
ATOM     10  C   UNL     1       2.059   6.815  -0.017  0.00  0.00    +0.118 C 
ATOM     11  C   UNL     1       1.836   7.871  -1.101  0.00  0.00    +0.049 C 
ATOM     12  C   UNL     1       1.705   7.405   1.350  0.00  0.00    +0.049 C 
BRANCH  10  13
ATOM     13  O   UNL     1       3.430   6.412  -0.021  0.00  0.00    -0.381 OA
ATOM     14  H   UNL     1       3.697   5.920   0.768  0.00  0.00    +0.211 HD
ENDBRANCH  10  13
ENDBRANCH   9  10
BRANCH   1  15
ATOM     15  C   UNL     1       2.924   3.851   0.154  0.00  0.00    +0.159 C 
BRANCH  15  21
ATOM     16  C   UNL     1       2.741   4.992   5.024  0.00  0.00    +0.044 C 
ATOM     17  C   UNL     1       2.840   3.963   3.927  0.00  0.00    -0.050 A 
ATOM     18  C   UNL     1       2.934   2.621   4.245  0.00  0.00    +0.003 A 
ATOM     19  C   UNL     1       3.025   1.677   3.240  0.00  0.00    +0.004 A 
ATOM     20  C   UNL     1       3.016   2.075   1.915  0.00  0.00    -0.046 A 
ATOM     21  C   UNL     1       2.928   3.417   1.597  0.00  0.00    -0.025 A 
ATOM     22  C   UNL     1       2.837   4.361   2.603  0.00  0.00    +0.009 A 
ATOM     23  C   UNL     1       3.108   1.045   0.819  0.00  0.00    +0.044 C 
ENDBRANCH  15  21
ENDBRANCH   1  15
TORSDOF 4
