REMARK  Name = ZINC13184418
REMARK  8 active torsions:
REMARK  status: ('A' for Active; 'I' for Inactive)
REMARK    1  A    between atoms: C_3  and  S_12
REMARK    2  A    between atoms: C_6  and  C_7
REMARK    3  A    between atoms: C_8  and  C_9
REMARK    4  A    between atoms: S_12  and  N_15
REMARK    5  A    between atoms: N_15  and  C_16
REMARK    6  A    between atoms: C_16  and  C_17
REMARK    7  A    between atoms: C_17  and  N_18
REMARK    8  A    between atoms: C_22  and  C_25
REMARK                            x       y       z     vdW  Elec       q    Type
REMARK                         _______ _______ _______ _____ _____    ______ ____
ROOT
ATOM      1  N   UNL     1       4.324   2.571   1.556  0.00  0.00    -0.188 NA
ATOM      2  H   UNL     1       4.350   3.470   1.919  0.00  0.00    +0.148 HD
ENDROOT
BRANCH   1   3
ATOM      3  S   UNL     1       3.889   2.327  -0.023  0.00  0.00    +0.058 S 
ATOM      4  O   UNL     1       4.872   1.471  -0.588  0.00  0.00    -0.153 OA
ATOM      5  O   UNL     1       3.591   3.607  -0.565  0.00  0.00    -0.153 OA
BRANCH   3   8
ATOM      6  C   UNL     1      -0.017   1.395   0.010  0.00  0.00    +0.010 A 
ATOM      7  C   UNL     1       1.170   2.097   0.002  0.00  0.00    +0.029 A 
ATOM      8  C   UNL     1       2.378   1.421  -0.013  0.00  0.00    +0.105 A 
ATOM      9  C   UNL     1       2.405   0.037  -0.021  0.00  0.00    +0.029 A 
ATOM     10  C   UNL     1       1.227  -0.679  -0.013  0.00  0.00    +0.010 A 
ATOM     11  C   UNL     1       0.002  -0.004   0.002  0.00  0.00    -0.025 A 
BRANCH  11  12
ATOM     12  C   UNL     1      -1.259  -0.761   0.011  0.00  0.00    +0.015 C 
ATOM     13  C   UNL     1      -1.237  -2.112   0.003  0.00  0.00    +0.096 C 
BRANCH  13  14
ATOM     14  C   UNL     1      -2.451  -2.840   0.011  0.00  0.00    +0.380 C 
ATOM     15  O   UNL     1      -3.522  -2.245   0.025  0.00  0.00    -0.241 OA
ATOM     16  O   UNL     1      -2.431  -4.065   0.004  0.00  0.00    -0.241 OA
ENDBRANCH  13  14
ENDBRANCH  11  12
ENDBRANCH   3   8
ENDBRANCH   1   3
BRANCH   1  17
ATOM     17  C   UNL     1       4.670   1.429   2.405  0.00  0.00    +0.124 C 
BRANCH  17  18
ATOM     18  C   UNL     1       5.381   1.927   3.665  0.00  0.00    +0.120 C 
BRANCH  18  19
ATOM     19  N   UNL     1       5.727   0.784   4.514  0.00  0.00    -0.327 N 
ATOM     20  C   UNL     1       6.384   0.990   5.723  0.00  0.00    +0.137 A 
ATOM     21  C   UNL     1       6.715  -0.101   6.522  0.00  0.00    +0.081 A 
ATOM     22  C   UNL     1       7.370   0.119   7.722  0.00  0.00    +0.037 A 
ATOM     23  C   UNL     1       7.671   1.426   8.082  0.00  0.00    +0.074 A 
ATOM     24  C   UNL     1       7.313   2.459   7.241  0.00  0.00    +0.125 A 
ATOM     25  N   UNL     1       6.694   2.220   6.100  0.00  0.00    -0.238 NA
ATOM     26 CL   UNL     1       6.313  -1.714   6.022  0.00  0.00    -0.080 Cl
ATOM     27  H   UNL     1       5.498  -0.116   4.234  0.00  0.00    +0.148 HD
BRANCH  23  28
ATOM     28  C   UNL     1       8.382   1.712   9.380  0.00  0.00    +0.419 C 
ATOM     29  F   UNL     1       9.765   1.702   9.166  0.00  0.00    -0.166 F 
ATOM     30  F   UNL     1       7.993   2.969   9.857  0.00  0.00    -0.166 F 
ATOM     31  F   UNL     1       8.049   0.732  10.321  0.00  0.00    -0.166 F 
ENDBRANCH  23  28
ENDBRANCH  18  19
ENDBRANCH  17  18
ENDBRANCH   1  17
TORSDOF 8
