REMARK  Name = ZINC12462148
REMARK  7 active torsions:
REMARK  status: ('A' for Active; 'I' for Inactive)
REMARK    1  A    between atoms: C_1  and  C_2
REMARK    2  A    between atoms: C_5  and  N_8
REMARK    3  A    between atoms: C_18  and  S_19
REMARK    4  A    between atoms: S_19  and  C_20
REMARK    5  A    between atoms: C_20  and  C_21
REMARK    6  A    between atoms: C_22  and  C_33
REMARK    7  A    between atoms: C_24  and  C_26
REMARK                            x       y       z     vdW  Elec       q    Type
REMARK                         _______ _______ _______ _____ _____    ______ ____
ROOT
ATOM      1  N   UNL     1      -9.389   1.717   2.449  0.00  0.00    -0.272 N 
ATOM      2  C   UNL     1     -10.606   1.855   1.825  0.00  0.00    +0.173 A 
ATOM      3  C   UNL     1     -10.347   1.833   0.453  0.00  0.00    +0.173 A 
ATOM      4  C   UNL     1     -11.438   1.957  -0.442  0.00  0.00    +0.279 A 
ATOM      5  O   UNL     1     -11.263   1.944  -1.648  0.00  0.00    -0.265 OA
ATOM      6  N   UNL     1     -12.678   2.092   0.079  0.00  0.00    -0.312 N 
ATOM      7  H   UNL     1     -13.442   2.179  -0.513  0.00  0.00    +0.170 HD
ATOM      8  C   UNL     1     -12.860   2.105   1.423  0.00  0.00    +0.201 A 
ATOM      9  N   UNL     1     -11.866   1.992   2.259  0.00  0.00    -0.217 NA
ATOM     10  N   UNL     1      -9.007   1.691   0.293  0.00  0.00    -0.214 NA
ATOM     11  C   UNL     1      -8.436   1.616   1.470  0.00  0.00    +0.176 A 
ENDROOT
BRANCH   1  16
ATOM     12  C   UNL     1      -8.480   1.590   8.050  0.00  0.00    +0.044 C 
ATOM     13  C   UNL     1      -8.721   1.623   6.562  0.00  0.00    -0.050 A 
ATOM     14  C   UNL     1      -8.215   2.663   5.805  0.00  0.00    +0.005 A 
ATOM     15  C   UNL     1      -8.434   2.697   4.441  0.00  0.00    +0.026 A 
ATOM     16  C   UNL     1      -9.164   1.685   3.832  0.00  0.00    +0.050 A 
ATOM     17  C   UNL     1      -9.676   0.645   4.596  0.00  0.00    +0.026 A 
ATOM     18  C   UNL     1      -9.448   0.614   5.958  0.00  0.00    +0.005 A 
ENDBRANCH   1  16
BRANCH  11  19
ATOM     19  S   UNL     1      -6.707   1.424   1.750  0.00  0.00    -0.081 S 
BRANCH  19  20
ATOM     20  C   UNL     1      -6.116   1.367   0.040  0.00  0.00    +0.136 C 
BRANCH  20  21
ATOM     21  C   UNL     1      -4.618   1.202   0.031  0.00  0.00    +0.093 A 
ATOM     22  C   UNL     1      -3.950   0.034   0.022  0.00  0.00    +0.127 A 
ATOM     23  O   UNL     1      -2.634   0.326   0.017  0.00  0.00    -0.440 OA
ATOM     24  C   UNL     1      -2.512   1.664   0.023  0.00  0.00    +0.229 A 
ATOM     25  N   UNL     1      -3.713   2.193   0.037  0.00  0.00    -0.213 NA
ATOM     26  C   UNL     1      -4.559  -1.344   0.019  0.00  0.00    +0.088 C 
BRANCH  24  27
ATOM     27  C   UNL     1      -1.239   2.415   0.021  0.00  0.00    +0.055 A 
ATOM     28  C   UNL     1      -1.249   3.811   0.034  0.00  0.00    +0.014 A 
ATOM     29  C   UNL     1      -0.057   4.506   0.026  0.00  0.00    +0.001 A 
ATOM     30  C   UNL     1       1.146   3.823   0.011  0.00  0.00    +0.001 A 
ATOM     31  C   UNL     1       1.164   2.440   0.004  0.00  0.00    +0.021 A 
ATOM     32  C   UNL     1      -0.021   1.732   0.012  0.00  0.00    +0.053 A 
ATOM     33 CL   UNL     1       0.002  -0.004   0.002  0.00  0.00    -0.083 Cl
ENDBRANCH  24  27
ENDBRANCH  20  21
ENDBRANCH  19  20
ENDBRANCH  11  19
TORSDOF 5
