REMARK  Name = ZINC11375692
REMARK  6 active torsions:
REMARK  status: ('A' for Active; 'I' for Inactive)
REMARK    1  A    between atoms: C_1  and  C_2
REMARK    2  A    between atoms: N_13  and  C_30
REMARK    3  A    between atoms: C_14  and  S_16
REMARK    4  A    between atoms: S_16  and  C_17
REMARK    5  A    between atoms: C_17  and  C_18
REMARK    6  A    between atoms: C_30  and  C_31
REMARK                            x       y       z     vdW  Elec       q    Type
REMARK                         _______ _______ _______ _____ _____    ______ ____
ROOT
ATOM      1  C   UNL     1      -0.567  -9.398   2.509  0.00  0.00    +0.008 C 
ATOM      2  C   UNL     1       0.098  -8.047   2.240  0.00  0.00    -0.009 C 
ATOM      3  C   UNL     1      -0.818  -7.190   1.360  0.00  0.00    +0.008 C 
ATOM      4  C   UNL     1      -0.066  -5.947   0.883  0.00  0.00    +0.037 C 
ATOM      5  C   UNL     1       0.535  -5.239   2.095  0.00  0.00    -0.023 A 
ATOM      6  C   UNL     1       0.689  -5.890   3.266  0.00  0.00    -0.004 A 
ATOM      7  S   UNL     1       1.409  -4.699   4.363  0.00  0.00    -0.073 S 
ATOM      8  C   UNL     1       1.501  -3.325   3.243  0.00  0.00    +0.117 A 
ATOM      9  C   UNL     1       0.967  -3.841   2.050  0.00  0.00    +0.076 A 
ATOM     10  C   UNL     1       0.915  -2.932   0.946  0.00  0.00    +0.263 A 
ATOM     11  O   UNL     1       0.466  -3.291  -0.129  0.00  0.00    -0.267 OA
ATOM     12  N   UNL     1       1.367  -1.676   1.111  0.00  0.00    -0.283 N 
ATOM     13  C   UNL     1       1.878  -1.258   2.307  0.00  0.00    +0.173 A 
ATOM     14  N   UNL     1       1.932  -2.073   3.341  0.00  0.00    -0.216 NA
ATOM     15  C   UNL     1       0.329  -7.313   3.569  0.00  0.00    +0.046 C 
ENDROOT
BRANCH  13  16
ATOM     16  S   UNL     1       2.465   0.395   2.471  0.00  0.00    -0.080 S 
BRANCH  16  17
ATOM     17  C   UNL     1       2.999   0.368   4.200  0.00  0.00    +0.151 C 
BRANCH  17  18
ATOM     18  C   UNL     1       3.555   1.718   4.575  0.00  0.00    +0.121 A 
ATOM     19  N   UNL     1       4.005   1.899   5.844  0.00  0.00    -0.310 N 
ATOM     20  H   UNL     1       3.962   1.167   6.479  0.00  0.00    +0.170 HD
ATOM     21  C   UNL     1       4.519   3.091   6.229  0.00  0.00    +0.259 A 
ATOM     22  O   UNL     1       4.930   3.266   7.361  0.00  0.00    -0.267 OA
ATOM     23  C   UNL     1       4.554   4.168   5.229  0.00  0.00    +0.065 A 
ATOM     24  C   UNL     1       5.057   5.433   5.525  0.00  0.00    +0.015 A 
ATOM     25  C   UNL     1       5.066   6.405   4.549  0.00  0.00    +0.001 A 
ATOM     26  C   UNL     1       4.579   6.134   3.277  0.00  0.00    +0.002 A 
ATOM     27  C   UNL     1       4.077   4.891   2.964  0.00  0.00    +0.028 A 
ATOM     28  C   UNL     1       4.058   3.888   3.936  0.00  0.00    +0.078 A 
ATOM     29  N   UNL     1       3.573   2.649   3.671  0.00  0.00    -0.233 NA
ENDBRANCH  17  18
ENDBRANCH  16  17
ENDBRANCH  13  16
BRANCH  12  30
ATOM     30  C   UNL     1       1.317  -0.740  -0.015  0.00  0.00    +0.154 C 
BRANCH  30  31
ATOM     31  C   UNL     1       0.002  -0.004   0.002  0.00  0.00    -0.013 C 
ATOM     32  C   UNL     1      -0.016   1.306   0.009  0.00  0.00    +0.005 C 
ENDBRANCH  30  31
ENDBRANCH  12  30
TORSDOF 5
