REMARK  Name = ZINC20322161
REMARK  9 active torsions:
REMARK  status: ('A' for Active; 'I' for Inactive)
REMARK    1  A    between atoms: C_1  and  C_2
REMARK    2  A    between atoms: C_5  and  C_40
REMARK    3  A    between atoms: N_8  and  C_10
REMARK    4  A    between atoms: C_10  and  C_11
REMARK    5  A    between atoms: C_11  and  N_12
REMARK    6  A    between atoms: N_12  and  C_13
REMARK    7  A    between atoms: C_15  and  N_30
REMARK    8  A    between atoms: C_32  and  C_39
REMARK    9  A    between atoms: C_35  and  C_38
REMARK                            x       y       z     vdW  Elec       q    Type
REMARK                         _______ _______ _______ _____ _____    ______ ____
ROOT
ATOM      1  C   UNL     1       2.388   0.259   6.119  0.00  0.00    +0.041 A 
ATOM      2  C   UNL     1       1.294   1.127   6.190  0.00  0.00    +0.049 A 
ATOM      3  C   UNL     1       0.787   1.644   7.364  0.00  0.00    +0.061 A 
ATOM      4  C   UNL     1       1.415   1.276   8.642  0.00  0.00    +0.136 A 
ATOM      5  C   UNL     1       2.551   0.370   8.545  0.00  0.00    +0.063 A 
ATOM      6  C   UNL     1       3.045  -0.150   7.290  0.00  0.00    +0.056 A 
ATOM      7  C   UNL     1       4.154  -1.025   7.341  0.00  0.00    +0.196 C 
ATOM      8  O   UNL     1       4.626  -1.497   6.319  0.00  0.00    -0.287 OA
ATOM      9  C   UNL     1       4.728  -1.353   8.662  0.00  0.00    +0.033 A 
ATOM     10  C   UNL     1       5.827  -2.215   8.736  0.00  0.00    +0.012 A 
ATOM     11  C   UNL     1       6.375  -2.532   9.958  0.00  0.00    +0.001 A 
ATOM     12  C   UNL     1       5.848  -2.005  11.129  0.00  0.00    +0.001 A 
ATOM     13  C   UNL     1       4.767  -1.153  11.086  0.00  0.00    +0.012 A 
ATOM     14  C   UNL     1       4.194  -0.815   9.857  0.00  0.00    +0.031 A 
ATOM     15  C   UNL     1       3.051   0.099   9.792  0.00  0.00    +0.176 A 
ATOM     16  O   UNL     1       2.280   0.792  10.644  0.00  0.00    -0.353 OA
ATOM     17  N   UNL     1       1.280   1.509   9.921  0.00  0.00    -0.076 NA
ENDROOT
BRANCH   3  18
ATOM     18  N   UNL     1      -0.296   2.498   7.340  0.00  0.00    -0.328 N 
ATOM     19  C   UNL     1      -0.103   3.950   7.222  0.00  0.00    +0.108 C 
ATOM     20  C   UNL     1      -0.934   4.464   6.043  0.00  0.00    +0.003 C 
ATOM     21  C   UNL     1      -2.393   4.036   6.226  0.00  0.00    +0.009 C 
ATOM     22  C   UNL     1      -2.479   2.509   6.248  0.00  0.00    +0.003 C 
ATOM     23  C   UNL     1      -1.666   1.972   7.424  0.00  0.00    +0.108 C 
ATOM     24  C   UNL     1      -3.941   2.082   6.398  0.00  0.00    +0.009 C 
ATOM     25  C   UNL     1      -0.852   5.991   5.987  0.00  0.00    +0.009 C 
ENDBRANCH   3  18
BRANCH   1  26
ATOM     26  N   UNL     1       2.819  -0.203   4.893  0.00  0.00    -0.345 N 
ATOM     27  H   UNL     1       3.575  -0.809   4.842  0.00  0.00    +0.146 HD
BRANCH  26  28
ATOM     28  C   UNL     1       2.136   0.221   3.668  0.00  0.00    +0.083 C 
BRANCH  28  29
ATOM     29  C   UNL     1       2.808  -0.431   2.458  0.00  0.00    -0.060 C 
BRANCH  29  35
ATOM     30  C   UNL     1      -0.019   1.526   0.010  0.00  0.00    +0.005 C 
ATOM     31  C   UNL     1       0.002  -0.004   0.002  0.00  0.00    -0.031 C 
ATOM     32  C   UNL     1       0.721  -0.499  -1.257  0.00  0.00    +0.003 C 
ATOM     33  C   UNL     1       2.177  -0.027  -1.220  0.00  0.00    -0.031 C 
ATOM     34  C   UNL     1       2.839  -0.534   0.063  0.00  0.00    -0.076 C 
ATOM     35  N   UNL     1       2.123  -0.005   1.230  0.00  0.00    +0.381 N 
ATOM     36  C   UNL     1       0.744  -0.512   1.240  0.00  0.00    -0.076 C 
ATOM     37  C   UNL     1       2.924  -0.581  -2.434  0.00  0.00    +0.005 C 
ATOM     38  H   UNL     1       2.109   1.003   1.187  0.00  0.00    -0.082 HD
ENDBRANCH  29  35
ENDBRANCH  28  29
ENDBRANCH  26  28
ENDBRANCH   1  26
TORSDOF 5
