REMARK  Name = ZINC13089128
REMARK  9 active torsions:
REMARK  status: ('A' for Active; 'I' for Inactive)
REMARK    1  A    between atoms: C_1  and  C_2
REMARK    2  A    between atoms: C_2  and  C_4
REMARK    3  A    between atoms: C_2  and  N_14
REMARK    4  A    between atoms: C_7  and  S_10
REMARK    5  A    between atoms: S_10  and  N_13
REMARK    6  A    between atoms: N_14  and  C_15
REMARK    7  A    between atoms: N_14  and  S_16
REMARK    8  A    between atoms: S_16  and  C_19
REMARK    9  A    between atoms: C_21  and  C_27
REMARK                            x       y       z     vdW  Elec       q    Type
REMARK                         _______ _______ _______ _____ _____    ______ ____
ROOT
ATOM      1  N   UNL     1      -1.157   6.932   1.323  0.00  0.00    -0.172 NA
ATOM      2  C   UNL     1      -1.670   6.021   2.349  0.00  0.00    +0.132 C 
ENDROOT
BRANCH   1   3
ATOM      3  S   UNL     1      -0.816   6.363  -0.194  0.00  0.00    +0.063 S 
ATOM      4  O   UNL     1      -0.891   7.477  -1.072  0.00  0.00    -0.153 OA
ATOM      5  O   UNL     1      -1.603   5.194  -0.376  0.00  0.00    -0.153 OA
BRANCH   3   6
ATOM      6  C   UNL     1       0.867   5.840  -0.188  0.00  0.00    +0.125 A 
ATOM      7  C   UNL     1       1.174   4.509  -0.373  0.00  0.00    +0.046 A 
ATOM      8  C   UNL     1       2.508   4.094  -0.362  0.00  0.00    +0.083 A 
ATOM      9  C   UNL     1       3.525   5.036  -0.174  0.00  0.00    +0.057 A 
ATOM     10  C   UNL     1       3.203   6.366   0.004  0.00  0.00    +0.042 A 
ATOM     11  C   UNL     1       1.878   6.769  -0.003  0.00  0.00    +0.069 A 
ATOM     12 CL   UNL     1       1.483   8.444   0.222  0.00  0.00    -0.081 Cl
ATOM     13 CL   UNL     1       5.186   4.532  -0.165  0.00  0.00    -0.083 Cl
BRANCH   8  14
ATOM     14  C   UNL     1       2.843   2.670  -0.554  0.00  0.00    +0.388 C 
ATOM     15  O   UNL     1       4.004   2.313  -0.549  0.00  0.00    -0.241 OA
ATOM     16  O   UNL     1       1.861   1.765  -0.735  0.00  0.00    -0.241 OA
ENDBRANCH   8  14
ENDBRANCH   3   6
ENDBRANCH   1   3
BRANCH   1  18
ATOM     17  C   UNL     1      -2.279   8.988   2.026  0.00  0.00    +0.031 C 
ATOM     18  C   UNL     1      -0.945   8.347   1.639  0.00  0.00    +0.106 C 
BRANCH  18  19
ATOM     19  C   UNL     1       0.021   8.465   2.790  0.00  0.00    -0.029 A 
ATOM     20  C   UNL     1      -0.155   7.693   3.923  0.00  0.00    +0.007 A 
ATOM     21  C   UNL     1       0.733   7.798   4.976  0.00  0.00    +0.029 A 
ATOM     22  C   UNL     1       1.792   8.683   4.902  0.00  0.00    +0.105 A 
ATOM     23  C   UNL     1       1.966   9.460   3.771  0.00  0.00    +0.029 A 
ATOM     24  C   UNL     1       1.080   9.351   2.715  0.00  0.00    +0.007 A 
BRANCH  22  25
ATOM     25  S   UNL     1       2.921   8.823   6.247  0.00  0.00    +0.056 S 
ATOM     26  O   UNL     1       2.854   7.596   6.962  0.00  0.00    -0.153 OA
ATOM     27  O   UNL     1       4.136   9.325   5.708  0.00  0.00    -0.153 OA
BRANCH  25  28
ATOM     28  N   UNL     1       2.333   9.993   7.260  0.00  0.00    -0.204 NA
ATOM     29  H   UNL     1       2.512   9.945   8.213  0.00  0.00    +0.144 HD
ATOM     30  H   UNL     1       1.809  10.726   6.902  0.00  0.00    +0.144 HD
ENDBRANCH  25  28
ENDBRANCH  22  25
ENDBRANCH  18  19
ENDBRANCH   1  18
TORSDOF 7
