REMARK  Name = ZINC31812192
REMARK  9 active torsions:
REMARK  status: ('A' for Active; 'I' for Inactive)
REMARK    1  A    between atoms: C_1  and  O_2
REMARK    2  A    between atoms: O_2  and  C_3
REMARK    3  A    between atoms: C_3  and  C_5
REMARK    4  A    between atoms: C_5  and  C_6
REMARK    5  A    between atoms: C_6  and  C_8
REMARK    6  A    between atoms: C_6  and  N_12
REMARK    7  A    between atoms: C_8  and  O_10
REMARK    8  A    between atoms: O_10  and  C_11
REMARK    9  A    between atoms: C_24  and  C_26
REMARK                            x       y       z     vdW  Elec       q    Type
REMARK                         _______ _______ _______ _____ _____    ______ ____
ROOT
ATOM      1  N   UNL     1       2.276  -2.090  -4.721  0.00  0.00    -0.286 N 
ATOM      2  C   UNL     1       0.956  -1.814  -4.732  0.00  0.00    +0.304 C 
ATOM      3  O   UNL     1       0.286  -2.013  -3.737  0.00  0.00    -0.253 OA
ATOM      4  N   UNL     1       0.380  -1.318  -5.845  0.00  0.00    -0.273 N 
ATOM      5  C   UNL     1      -1.030  -0.902  -5.843  0.00  0.00    +0.116 C 
ATOM      6  C   UNL     1      -1.111   0.609  -6.094  0.00  0.00    +0.076 C 
ATOM      7  C   UNL     1      -0.188   0.963  -7.233  0.00  0.00    +0.066 A 
ATOM      8  C   UNL     1       0.816   0.175  -7.675  0.00  0.00    +0.064 A 
ATOM      9  N   UNL     1       1.421   0.830  -8.701  0.00  0.00    -0.346 N 
ATOM     10  H   UNL     1       2.178   0.516  -9.220  0.00  0.00    +0.167 HD
ATOM     11  C   UNL     1       0.766   2.004  -8.862  0.00  0.00    +0.197 A 
ATOM     12  N   UNL     1      -0.195   2.073  -7.978  0.00  0.00    -0.240 NA
ATOM     13  C   UNL     1       1.150  -1.172  -7.094  0.00  0.00    +0.159 C 
ATOM     14  H   UNL     1       2.796  -2.003  -5.536  0.00  0.00    +0.151 HD
ENDROOT
BRANCH  13  15
ATOM     15  C   UNL     1       0.761  -2.256  -8.066  0.00  0.00    +0.017 A 
ATOM     16  C   UNL     1      -0.075  -1.964  -9.127  0.00  0.00    +0.011 A 
ATOM     17  C   UNL     1      -0.433  -2.957 -10.020  0.00  0.00    +0.042 A 
ATOM     18  C   UNL     1       0.045  -4.245  -9.853  0.00  0.00    +0.161 A 
ATOM     19  C   UNL     1       0.884  -4.539  -8.789  0.00  0.00    +0.194 A 
ATOM     20  C   UNL     1       1.246  -3.541  -7.898  0.00  0.00    +0.167 A 
ATOM     21  F   UNL     1       2.068  -3.824  -6.864  0.00  0.00    -0.202 F 
ATOM     22  F   UNL     1       1.351  -5.796  -8.624  0.00  0.00    -0.199 F 
ATOM     23  F   UNL     1      -0.306  -5.215 -10.725  0.00  0.00    -0.202 F 
ENDBRANCH  13  15
BRANCH   1  24
ATOM     24  C   UNL     1       2.924  -2.521  -3.481  0.00  0.00    +0.194 C 
BRANCH  24  25
ATOM     25  C   UNL     1       3.318  -1.311  -2.673  0.00  0.00    +0.328 C 
ATOM     26  O   UNL     1       3.081  -0.202  -3.091  0.00  0.00    -0.249 OA
BRANCH  25  27
ATOM     27  O   UNL     1       3.931  -1.464  -1.489  0.00  0.00    -0.467 OA
ATOM     28  C   UNL     1       4.276  -0.274  -0.778  0.00  0.00    +0.280 C 
ENDBRANCH  25  27
ENDBRANCH  24  25
BRANCH  24  29
ATOM     29  C   UNL     1       4.173  -3.339  -3.815  0.00  0.00    +0.154 C 
BRANCH  29  30
ATOM     30  C   UNL     1       3.768  -4.610  -4.515  0.00  0.00    +0.309 C 
ATOM     31  O   UNL     1       2.600  -4.838  -4.726  0.00  0.00    -0.251 OA
BRANCH  30  33
ATOM     32  C   UNL     1       4.248  -6.673  -5.564  0.00  0.00    +0.280 C 
ATOM     33  O   UNL     1       4.704  -5.489  -4.906  0.00  0.00    -0.468 OA
ENDBRANCH  30  33
ENDBRANCH  29  30
ENDBRANCH  24  29
ENDBRANCH   1  24
TORSDOF 7
