REMARK  Name = ZINC48771139
REMARK  4 active torsions:
REMARK  status: ('A' for Active; 'I' for Inactive)
REMARK    1  A    between atoms: C_1  and  O_2
REMARK    2  A    between atoms: O_2  and  C_3
REMARK    3  A    between atoms: C_7  and  O_9
REMARK    4  A    between atoms: O_9  and  C_10
REMARK                            x       y       z     vdW  Elec       q    Type
REMARK                         _______ _______ _______ _____ _____    ______ ____
ROOT
ATOM      1  C   UNL     1       0.606  -0.607  -1.056  0.00  0.00    +0.124 A 
ATOM      2  C   UNL     1       0.651  -1.982  -1.122  0.00  0.00    +0.057 A 
ATOM      3  C   UNL     1       1.275  -2.602  -2.215  0.00  0.00    +0.026 A 
ATOM      4  C   UNL     1       1.850  -1.810  -3.239  0.00  0.00    +0.114 A 
ATOM      5  C   UNL     1       1.786  -0.404  -3.139  0.00  0.00    +0.149 A 
ATOM      6  C   UNL     1       1.169   0.174  -2.068  0.00  0.00    +0.093 A 
ATOM      7  N   UNL     1       2.439  -2.403  -4.277  0.00  0.00    -0.248 NA
ATOM      8  C   UNL     1       2.514  -3.716  -4.390  0.00  0.00    +0.047 A 
ATOM      9  C   UNL     1       1.975  -4.547  -3.417  0.00  0.00    -0.007 A 
ATOM     10  C   UNL     1       1.348  -4.003  -2.324  0.00  0.00    +0.055 A 
ATOM     11 CL   UNL     1       0.659  -5.022  -1.099  0.00  0.00    -0.083 Cl
ATOM     12  C   UNL     1       2.051  -6.049  -3.498  0.00  0.00    +0.038 C 
ATOM     13  C   UNL     1       2.374  -6.495  -4.923  0.00  0.00    +0.005 C 
ATOM     14  C   UNL     1       3.604  -5.718  -5.405  0.00  0.00    +0.006 C 
ATOM     15  C   UNL     1       3.202  -4.260  -5.617  0.00  0.00    +0.056 C 
ENDROOT
BRANCH   1  17
ATOM     16  C   UNL     1      -0.017   1.425   0.010  0.00  0.00    +0.277 C 
ATOM     17  O   UNL     1       0.002  -0.004   0.002  0.00  0.00    -0.495 OA
ENDBRANCH   1  17
BRANCH   5  18
ATOM     18  O   UNL     1       2.333   0.372  -4.110  0.00  0.00    -0.493 OA
ATOM     19  C   UNL     1       2.230   1.788  -3.943  0.00  0.00    +0.277 C 
ENDBRANCH   5  18
TORSDOF 2
