REMARK  Name = ZINC35987609
REMARK  7 active torsions:
REMARK  status: ('A' for Active; 'I' for Inactive)
REMARK    1  A    between atoms: C_1  and  C_2
REMARK    2  A    between atoms: C_7  and  C_8
REMARK    3  A    between atoms: C_11  and  C_29
REMARK    4  A    between atoms: C_21  and  C_23
REMARK    5  A    between atoms: C_23  and  C_24
REMARK    6  A    between atoms: N_31  and  C_32
REMARK    7  A    between atoms: C_32  and  C_33
REMARK                            x       y       z     vdW  Elec       q    Type
REMARK                         _______ _______ _______ _____ _____    ______ ____
ROOT
ATOM      1  C   UNL     1      -0.841  -1.111   2.073  0.00  0.00    +0.250 C 
ATOM      2  O   UNL     1      -1.485  -0.112   1.817  0.00  0.00    -0.270 OA
ATOM      3  N   UNL     1      -0.263  -1.247   3.283  0.00  0.00    -0.255 N 
ATOM      4  C   UNL     1       0.621  -2.348   3.728  0.00  0.00    +0.190 C 
ATOM      5  C   UNL     1       1.384  -1.714   4.919  0.00  0.00    +0.194 C 
ATOM      6  O   UNL     1       0.372  -0.876   5.524  0.00  0.00    -0.353 OA
ATOM      7  C   UNL     1      -0.378  -0.330   4.427  0.00  0.00    +0.142 C 
ATOM      8  C   UNL     1      -1.846  -0.194   4.832  0.00  0.00    +0.074 C 
ATOM      9  C   UNL     1      -2.650   0.357   3.651  0.00  0.00    +0.112 C 
ATOM     10  N   UNL     1      -2.026   1.607   3.196  0.00  0.00    -0.301 N 
ATOM     11  C   UNL     1      -0.596   1.601   2.857  0.00  0.00    +0.112 C 
ATOM     12  C   UNL     1       0.189   1.039   4.047  0.00  0.00    +0.074 C 
ATOM     13  C   UNL     1      -2.752   2.738   3.091  0.00  0.00    +0.220 C 
ATOM     14  O   UNL     1      -3.931   2.731   3.372  0.00  0.00    -0.275 OA
ENDROOT
BRANCH   1  21
ATOM     15  C   UNL     1       0.193  -0.452  -0.548  0.00  0.00    +0.044 C 
ATOM     16  C   UNL     1      -0.193  -1.869  -0.209  0.00  0.00    -0.038 A 
ATOM     17  C   UNL     1      -0.051  -2.868  -1.150  0.00  0.00    +0.004 A 
ATOM     18  C   UNL     1      -0.405  -4.169  -0.842  0.00  0.00    +0.000 A 
ATOM     19  C   UNL     1      -0.904  -4.478   0.412  0.00  0.00    +0.001 A 
ATOM     20  C   UNL     1      -1.051  -3.489   1.362  0.00  0.00    +0.013 A 
ATOM     21  C   UNL     1      -0.691  -2.175   1.058  0.00  0.00    +0.040 A 
ENDBRANCH   1  21
BRANCH   4  22
ATOM     22  C   UNL     1       1.573  -2.746   2.630  0.00  0.00    +0.236 C 
ATOM     23  O   UNL     1       1.923  -1.928   1.805  0.00  0.00    -0.274 OA
ATOM     24  N   UNL     1       2.035  -4.010   2.564  0.00  0.00    -0.311 N 
ATOM     25  H   UNL     1       1.755  -4.664   3.223  0.00  0.00    +0.149 HD
BRANCH  24  26
ATOM     26  C   UNL     1       2.961  -4.396   1.496  0.00  0.00    +0.135 C 
BRANCH  26  27
ATOM     27  C   UNL     1       3.328  -5.874   1.649  0.00  0.00    +0.135 C 
ATOM     28  C   UNL     1       4.335  -6.295   0.549  0.00  0.00    +0.035 C 
ATOM     29  C   UNL     1       5.031  -7.503   1.233  0.00  0.00    +0.031 C 
ATOM     30  C   UNL     1       5.040  -7.078   2.718  0.00  0.00    +0.160 C 
ATOM     31  O   UNL     1       4.016  -6.090   2.892  0.00  0.00    -0.375 OA
ENDBRANCH  26  27
ENDBRANCH  24  26
ENDBRANCH   4  22
BRANCH  13  32
ATOM     32  C   UNL     1      -2.097   4.013   2.623  0.00  0.00    +0.138 C 
BRANCH  32  33
ATOM     33  C   UNL     1      -3.118   5.120   2.593  0.00  0.00    -0.001 A 
ATOM     34  C   UNL     1      -3.456   5.996   3.571  0.00  0.00    +0.011 A 
ATOM     35  C   UNL     1      -4.433   6.940   3.317  0.00  0.00    +0.008 A 
ATOM     36  C   UNL     1      -5.024   6.963   2.098  0.00  0.00    +0.045 A 
ATOM     37  S   UNL     1      -4.191   5.625   1.259  0.00  0.00    -0.101 S 
ENDBRANCH  32  33
ENDBRANCH  13  32
TORSDOF 6
