REMARK  Name = ZINC12425931
REMARK  9 active torsions:
REMARK  status: ('A' for Active; 'I' for Inactive)
REMARK    1  A    between atoms: C_1  and  C_2
REMARK    2  A    between atoms: C_2  and  C_4
REMARK    3  A    between atoms: C_2  and  O_16
REMARK    4  A    between atoms: N_6  and  C_7
REMARK    5  A    between atoms: C_11  and  N_13
REMARK    6  A    between atoms: O_16  and  C_17
REMARK    7  A    between atoms: C_17  and  C_19
REMARK    8  A    between atoms: C_19  and  C_20
REMARK    9  A    between atoms: C_27  and  C_32
REMARK                            x       y       z     vdW  Elec       q    Type
REMARK                         _______ _______ _______ _____ _____    ______ ____
ROOT
ATOM      1  C   UNL     1       3.433   4.981  -2.916  0.00  0.00    +0.309 C 
ATOM      2  O   UNL     1       4.397   4.945  -2.188  0.00  0.00    -0.251 OA
ENDROOT
BRANCH   1   3
ATOM      3  O   UNL     1       3.565   4.692  -4.220  0.00  0.00    -0.452 OA
BRANCH   3   5
ATOM      4  C   UNL     1       5.627   5.613  -5.132  0.00  0.00    +0.062 C 
ATOM      5  C   UNL     1       4.895   4.345  -4.686  0.00  0.00    +0.259 C 
BRANCH   5   6
ATOM      6  C   UNL     1       4.787   3.393  -5.850  0.00  0.00    +0.258 C 
ATOM      7  O   UNL     1       3.698   3.113  -6.304  0.00  0.00    -0.271 OA
ATOM      8  N   UNL     1       5.900   2.853  -6.385  0.00  0.00    -0.282 N 
ATOM      9  H   UNL     1       6.774   3.128  -6.066  0.00  0.00    +0.155 HD
BRANCH   8  10
ATOM     10  C   UNL     1       5.794   1.896  -7.400  0.00  0.00    +0.036 A 
ATOM     11  C   UNL     1       4.777   1.989  -8.341  0.00  0.00    +0.023 A 
ATOM     12  C   UNL     1       4.676   1.043  -9.342  0.00  0.00    +0.004 A 
ATOM     13  C   UNL     1       5.587   0.004  -9.409  0.00  0.00    +0.033 A 
ATOM     14  C   UNL     1       6.601  -0.091  -8.474  0.00  0.00    +0.128 A 
ATOM     15  C   UNL     1       6.710   0.855  -7.473  0.00  0.00    +0.056 A 
BRANCH  14  16
ATOM     16  N   UNL     1       7.574  -1.204  -8.549  0.00  0.00    +0.056 N 
ATOM     17  O   UNL     1       7.481  -2.035  -9.434  0.00  0.00    -0.126 OA
ATOM     18  O   UNL     1       8.467  -1.288  -7.725  0.00  0.00    -0.126 OA
ENDBRANCH  14  16
ENDBRANCH   8  10
ENDBRANCH   5   6
ENDBRANCH   3   5
ENDBRANCH   1   3
BRANCH   1  19
ATOM     19  C   UNL     1       2.082   5.351  -2.359  0.00  0.00    +0.144 C 
BRANCH  19  20
ATOM     20  C   UNL     1       2.208   5.630  -0.860  0.00  0.00    +0.148 C 
ATOM     21  C   UNL     1       0.881   6.094  -0.318  0.00  0.00    +0.231 C 
ATOM     22  O   UNL     1       0.700   7.285  -0.176  0.00  0.00    -0.274 OA
ATOM     23  N   UNL     1      -0.101   5.262   0.012  0.00  0.00    -0.284 N 
ATOM     24  C   UNL     1      -0.041   3.872   0.030  0.00  0.00    +0.047 A 
ATOM     25  C   UNL     1      -1.224   3.141   0.051  0.00  0.00    +0.036 A 
ATOM     26  C   UNL     1      -1.191   1.760   0.050  0.00  0.00    +0.057 A 
ATOM     27  C   UNL     1       0.018   1.088   0.040  0.00  0.00    +0.013 A 
ATOM     28  C   UNL     1       1.202   1.802   0.024  0.00  0.00    +0.017 A 
ATOM     29  C   UNL     1       1.174   3.186   0.020  0.00  0.00    +0.030 A 
ATOM     30  S   UNL     1       2.683   4.104   0.009  0.00  0.00    -0.110 S 
ATOM     31  H   UNL     1      -0.947   5.664   0.267  0.00  0.00    +0.155 HD
BRANCH  26  32
ATOM     32  C   UNL     1      -2.480   0.981   0.065  0.00  0.00    +0.417 C 
ATOM     33  F   UNL     1      -2.197  -0.390   0.065  0.00  0.00    -0.166 F 
ATOM     34  F   UNL     1      -3.209   1.306   1.213  0.00  0.00    -0.166 F 
ATOM     35  F   UNL     1      -3.232   1.300  -1.071  0.00  0.00    -0.166 F 
ENDBRANCH  26  32
ENDBRANCH  19  20
ENDBRANCH   1  19
TORSDOF 8
