REMARK  Name = ZINC23762030
REMARK  11 active torsions:
REMARK  status: ('A' for Active; 'I' for Inactive)
REMARK    1  A    between atoms: C_1  and  C_2
REMARK    2  A    between atoms: C_2  and  C_3
REMARK    3  A    between atoms: C_3  and  N_4
REMARK    4  A    between atoms: C_5  and  O_26
REMARK    5  A    between atoms: C_8  and  S_9
REMARK    6  A    between atoms: S_9  and  C_10
REMARK    7  A    between atoms: C_10  and  C_12
REMARK    8  A    between atoms: C_10  and  C_13
REMARK    9  A    between atoms: N_15  and  C_16
REMARK   10  A    between atoms: C_20  and  N_23
REMARK   11  A    between atoms: C_21  and  C_22
REMARK                            x       y       z     vdW  Elec       q    Type
REMARK                         _______ _______ _______ _____ _____    ______ ____
ROOT
ATOM      1  C   UNL     1       6.150   1.973  -0.519  0.00  0.00    +0.230 C 
ATOM      2  O   UNL     1       7.046   1.215  -0.212  0.00  0.00    -0.274 OA
ATOM      3  N   UNL     1       6.431   3.248  -0.854  0.00  0.00    -0.284 N 
ATOM      4  H   UNL     1       5.631   3.911  -1.214  0.00  0.00    +0.155 HD
ENDROOT
BRANCH   3   5
ATOM      5  C   UNL     1       7.741   3.727  -0.746  0.00  0.00    +0.039 A 
ATOM      6  C   UNL     1       8.656   3.073   0.069  0.00  0.00    +0.024 A 
ATOM      7  C   UNL     1       9.948   3.549   0.174  0.00  0.00    +0.004 A 
ATOM      8  C   UNL     1      10.332   4.675  -0.531  0.00  0.00    +0.033 A 
ATOM      9  C   UNL     1       9.423   5.329  -1.343  0.00  0.00    +0.131 A 
ATOM     10  C   UNL     1       8.130   4.855  -1.457  0.00  0.00    +0.001 A 
ATOM     11  C   UNL     1       7.143   5.564  -2.347  0.00  0.00    +0.048 C 
BRANCH   9  12
ATOM     12  N   UNL     1       9.837   6.534  -2.096  0.00  0.00    +0.057 N 
ATOM     13  O   UNL     1      11.008   6.871  -2.110  0.00  0.00    -0.126 OA
ATOM     14  O   UNL     1       9.008   7.188  -2.702  0.00  0.00    -0.126 OA
ENDBRANCH   9  12
ENDBRANCH   3   5
BRANCH   1  15
ATOM     15  C   UNL     1       4.723   1.489  -0.525  0.00  0.00    +0.137 C 
ATOM     16  C   UNL     1       4.026   1.940   0.760  0.00  0.00    +0.029 C 
BRANCH  15  17
ATOM     17  S   UNL     1       4.699  -0.322  -0.622  0.00  0.00    -0.073 S 
BRANCH  17  22
ATOM     18  N   UNL     1       2.461  -1.974  -0.873  0.00  0.00    -0.272 N 
ATOM     19  C   UNL     1       1.105  -1.856  -0.967  0.00  0.00    +0.317 A 
ATOM     20  N   UNL     1       0.804  -0.583  -0.923  0.00  0.00    -0.091 NA
ATOM     21  N   UNL     1       1.998   0.140  -0.797  0.00  0.00    -0.119 NA
ATOM     22  C   UNL     1       2.989  -0.719  -0.769  0.00  0.00    +0.195 A 
BRANCH  19  23
ATOM     23  O   UNL     1       0.222  -2.879  -1.086  0.00  0.00    -0.479 OA
ATOM     24  H   UNL     1      -0.856  -2.671  -1.155  0.00  0.00    +0.295 HD
ENDBRANCH  19  23
BRANCH  18  25
ATOM     25  C   UNL     1       3.219  -3.228  -0.883  0.00  0.00    +0.128 C 
BRANCH  25  27
ATOM     26  C   UNL     1       4.379  -4.899  -2.333  0.00  0.00    +0.005 C 
ATOM     27  C   UNL     1       3.588  -3.590  -2.323  0.00  0.00    +0.018 C 
ENDBRANCH  25  27
ENDBRANCH  18  25
ENDBRANCH  17  22
ENDBRANCH  15  17
ENDBRANCH   1  15
TORSDOF 8
