REMARK  Name = ZINC15946336
REMARK  7 active torsions:
REMARK  status: ('A' for Active; 'I' for Inactive)
REMARK    1  A    between atoms: C_1  and  C_2
REMARK    2  A    between atoms: C_2  and  C_3
REMARK    3  A    between atoms: C_2  and  N_4
REMARK    4  A    between atoms: C_12  and  O_27
REMARK    5  A    between atoms: C_14  and  C_17
REMARK    6  A    between atoms: C_22  and  O_23
REMARK    7  A    between atoms: O_23  and  C_24
REMARK                            x       y       z     vdW  Elec       q    Type
REMARK                         _______ _______ _______ _____ _____    ______ ____
ROOT
ATOM      1  N   UNL     1      -1.822   0.045  -0.681  0.00  0.00    +0.384 N 
ATOM      2  C   UNL     1      -1.980  -1.393  -0.427  0.00  0.00    -0.073 C 
ATOM      3  C   UNL     1      -3.365  -1.677   0.163  0.00  0.00    +0.018 C 
ATOM      4  C   UNL     1      -4.403  -1.035  -0.748  0.00  0.00    -0.027 A 
ATOM      5  C   UNL     1      -4.027  -0.087  -1.641  0.00  0.00    -0.021 A 
ATOM      6  S   UNL     1      -5.523   0.368  -2.471  0.00  0.00    -0.080 S 
ATOM      7  C   UNL     1      -6.588  -0.631  -1.683  0.00  0.00    +0.080 A 
ATOM      8  C   UNL     1      -5.817  -1.350  -0.761  0.00  0.00    +0.067 A 
ATOM      9  C   UNL     1      -6.519  -2.348   0.087  0.00  0.00    +0.220 C 
ATOM     10  N   UNL     1      -7.824  -2.319   0.103  0.00  0.00    -0.223 NA
ATOM     11  C   UNL     1      -8.637  -1.337  -0.603  0.00  0.00    +0.227 C 
ATOM     12  N   UNL     1      -7.947  -0.817  -1.797  0.00  0.00    -0.313 N 
ATOM     13  C   UNL     1      -2.640   0.435  -1.844  0.00  0.00    -0.035 C 
ATOM     14  H   UNL     1      -8.424  -0.616  -2.617  0.00  0.00    +0.149 HD
ATOM     15  H   UNL     1      -2.123   0.565   0.130  0.00  0.00    -0.081 HD
ENDROOT
BRANCH  11  16
ATOM     16  C   UNL     1      -8.940  -0.190   0.328  0.00  0.00    +0.038 A 
ATOM     17  C   UNL     1      -8.981   1.102  -0.159  0.00  0.00    +0.026 A 
ATOM     18  C   UNL     1      -9.259   2.155   0.694  0.00  0.00    +0.020 A 
ATOM     19  C   UNL     1      -9.496   1.917   2.036  0.00  0.00    +0.034 A 
ATOM     20  C   UNL     1      -9.456   0.626   2.527  0.00  0.00    +0.061 A 
ATOM     21  C   UNL     1      -9.183  -0.433   1.671  0.00  0.00    +0.141 A 
ATOM     22 BR   UNL     1      -9.779   0.301   4.361  0.00  0.00    -0.046 Br
ATOM     23 BR   UNL     1      -9.313   3.923   0.024  0.00  0.00    -0.050 Br
BRANCH  21  24
ATOM     24  O   UNL     1      -9.150  -1.704   2.150  0.00  0.00    -0.494 OA
ATOM     25  C   UNL     1     -10.390  -2.412   2.201  0.00  0.00    +0.277 C 
ENDBRANCH  21  24
ENDBRANCH  11  16
BRANCH   1  27
ATOM     26  C   UNL     1      -0.260   1.821  -1.316  0.00  0.00    -0.014 C 
ATOM     27  C   UNL     1      -0.410   0.342  -0.955  0.00  0.00    -0.074 C 
ATOM     28  C   UNL     1       0.427   0.032   0.288  0.00  0.00    -0.014 C 
ENDBRANCH   1  27
BRANCH   9  29
ATOM     29  O   UNL     1      -5.830  -3.255   0.816  0.00  0.00    -0.492 OA
ATOM     30  H   UNL     1      -6.389  -3.854   1.329  0.00  0.00    +0.294 HD
ENDBRANCH   9  29
TORSDOF 4
