REMARK  Name = ZINC13756439
REMARK  5 active torsions:
REMARK  status: ('A' for Active; 'I' for Inactive)
REMARK    1  A    between atoms: C_1  and  C_2
REMARK    2  A    between atoms: C_2  and  C_18
REMARK    3  A    between atoms: N_3  and  N_4
REMARK    4  A    between atoms: C_5  and  C_7
REMARK    5  A    between atoms: C_16  and  O_17
REMARK                            x       y       z     vdW  Elec       q    Type
REMARK                         _______ _______ _______ _____ _____    ______ ____
ROOT
ATOM      1  C   UNL     1      -3.852   7.496   0.081  0.00  0.00    +0.068 C 
ATOM      2  C   UNL     1      -2.517   8.195   0.071  0.00  0.00    +0.070 C 
ATOM      3  N   UNL     1      -2.463   9.494   0.077  0.00  0.00    -0.184 NA
ENDROOT
BRANCH   2   4
ATOM      4  C   UNL     1      -1.275   7.408   0.054  0.00  0.00    +0.082 A 
ATOM      5  C   UNL     1      -1.315   6.022   0.047  0.00  0.00    +0.029 A 
ATOM      6  C   UNL     1      -0.099   5.309   0.031  0.00  0.00    +0.026 A 
ATOM      7  C   UNL     1      -0.094   3.844   0.024  0.00  0.00    -0.007 A 
ATOM      8  C   UNL     1      -1.282   3.109   0.031  0.00  0.00    +0.009 A 
ATOM      9  C   UNL     1      -1.232   1.745   0.017  0.00  0.00    +0.001 A 
ATOM     10  C   UNL     1      -0.013   1.076   0.008  0.00  0.00    +0.001 A 
ATOM     11  C   UNL     1       1.164   1.764   0.000  0.00  0.00    +0.008 A 
ATOM     12  C   UNL     1       1.148   3.167   0.008  0.00  0.00    -0.017 A 
ATOM     13  C   UNL     1       2.344   3.913   0.000  0.00  0.00    +0.012 A 
ATOM     14  C   UNL     1       2.324   5.269   0.007  0.00  0.00    +0.047 A 
ATOM     15  C   UNL     1       1.125   5.991   0.023  0.00  0.00    +0.140 A 
ATOM     16  O   UNL     1       1.159   7.341   0.029  0.00  0.00    -0.422 OA
ATOM     17  C   UNL     1       0.034   8.072   0.044  0.00  0.00    +0.346 A 
ATOM     18  O   UNL     1       0.098   9.288   0.050  0.00  0.00    -0.244 OA
ENDBRANCH   2   4
BRANCH   3  19
ATOM     19  N   UNL     1      -3.646  10.244   0.094  0.00  0.00    -0.203 N 
ATOM     20  C   UNL     1      -3.590  11.591   0.101  0.00  0.00    +0.267 C 
ATOM     21  O   UNL     1      -2.513  12.155   0.093  0.00  0.00    -0.268 OA
ATOM     22  H   UNL     1      -4.505   9.794   0.100  0.00  0.00    +0.178 HD
BRANCH  20  23
ATOM     23  C   UNL     1      -4.837  12.380   0.118  0.00  0.00    +0.080 A 
ATOM     24  C   UNL     1      -6.062  11.733   0.121  0.00  0.00    +0.025 A 
ATOM     25  C   UNL     1      -7.242  12.489   0.143  0.00  0.00    -0.017 A 
ATOM     26  C   UNL     1      -8.504  11.865   0.152  0.00  0.00    +0.008 A 
ATOM     27  C   UNL     1      -9.631  12.626   0.167  0.00  0.00    +0.001 A 
ATOM     28  C   UNL     1      -9.558  14.018   0.174  0.00  0.00    +0.001 A 
ATOM     29  C   UNL     1      -8.356  14.657   0.165  0.00  0.00    +0.008 A 
ATOM     30  C   UNL     1      -7.168  13.906   0.150  0.00  0.00    -0.014 A 
ATOM     31  C   UNL     1      -5.913  14.538   0.140  0.00  0.00    +0.054 A 
ATOM     32  C   UNL     1      -4.773  13.790   0.125  0.00  0.00    +0.130 A 
BRANCH  32  33
ATOM     33  O   UNL     1      -3.564  14.408   0.116  0.00  0.00    -0.506 OA
ATOM     34  H   UNL     1      -3.223  14.592  -0.770  0.00  0.00    +0.292 HD
ENDBRANCH  32  33
ENDBRANCH  20  23
ENDBRANCH   3  19
TORSDOF 4
