REMARK  Name = ZINC35926873
REMARK  5 active torsions:
REMARK  status: ('A' for Active; 'I' for Inactive)
REMARK    1  A    between atoms: C_3  and  C_6
REMARK    2  A    between atoms: C_6  and  N_7
REMARK    3  A    between atoms: C_20  and  C_22
REMARK    4  A    between atoms: C_22  and  N_23
REMARK    5  A    between atoms: N_26  and  C_29
REMARK                            x       y       z     vdW  Elec       q    Type
REMARK                         _______ _______ _______ _____ _____    ______ ____
ROOT
ATOM      1  N   UNL     1       5.382   3.514   5.402  0.00  0.00    +0.384 N 
ATOM      2  C   UNL     1       4.666   2.285   5.736  0.00  0.00    -0.077 C 
ATOM      3  C   UNL     1       3.826   1.860   4.552  0.00  0.00    +0.000 C 
ATOM      4  C   UNL     1       4.621   0.863   3.690  0.00  0.00    +0.106 C 
ATOM      5  N   UNL     1       6.040   1.262   3.589  0.00  0.00    -0.303 N 
ATOM      6  C   UNL     1       6.446   2.639   3.401  0.00  0.00    +0.089 C 
ATOM      7  C   UNL     1       6.634   3.322   4.777  0.00  0.00    -0.059 C 
ATOM      8  C   UNL     1       7.005   0.295   3.676  0.00  0.00    +0.198 A 
ATOM      9  N   UNL     1       8.315   0.659   3.704  0.00  0.00    -0.295 N 
ATOM     10  H   UNL     1       8.561   1.597   3.663  0.00  0.00    +0.172 HD
ATOM     11  C   UNL     1       9.273  -0.289   3.791  0.00  0.00    +0.253 A 
ATOM     12  O   UNL     1      10.453   0.020   3.817  0.00  0.00    -0.268 OA
ATOM     13  C   UNL     1       8.884  -1.639   3.850  0.00  0.00    +0.094 A 
ATOM     14  C   UNL     1       7.555  -1.944   3.818  0.00  0.00    +0.064 A 
ATOM     15  N   UNL     1       6.648  -0.973   3.737  0.00  0.00    -0.219 NA
ATOM     16  H   UNL     1       4.800   4.063   4.788  0.00  0.00    -0.081 HD
ENDROOT
BRANCH   1  17
ATOM     17  C   UNL     1       5.595   4.277   6.640  0.00  0.00    -0.036 C 
BRANCH  17  20
ATOM     18  C   UNL     1       6.077   7.953   5.764  0.00  0.00    +0.008 A 
ATOM     19  C   UNL     1       5.394   6.788   6.060  0.00  0.00    +0.009 A 
ATOM     20  C   UNL     1       6.100   5.655   6.300  0.00  0.00    -0.027 A 
ATOM     21  S   UNL     1       7.782   6.221   6.108  0.00  0.00    -0.103 S 
ATOM     22  C   UNL     1       7.432   7.928   5.722  0.00  0.00    +0.045 A 
ENDBRANCH  17  20
ENDBRANCH   1  17
BRANCH  14  23
ATOM     23  C   UNL     1       7.112  -3.383   3.880  0.00  0.00    +0.140 C 
BRANCH  23  24
ATOM     24  N   UNL     1       6.363  -3.612   5.123  0.00  0.00    -0.300 NA
ATOM     25  C   UNL     1       7.235  -3.469   6.297  0.00  0.00    +0.066 C 
ATOM     26  C   UNL     1       6.407  -3.656   7.570  0.00  0.00    -0.063 C 
ATOM     27  N   UNL     1       5.785  -4.987   7.559  0.00  0.00    +0.383 N 
ATOM     28  C   UNL     1       4.898  -5.105   6.394  0.00  0.00    -0.063 C 
ATOM     29  C   UNL     1       5.714  -4.931   5.111  0.00  0.00    +0.066 C 
ATOM     30  H   UNL     1       6.504  -5.693   7.507  0.00  0.00    -0.081 HD
BRANCH  27  31
ATOM     31  C   UNL     1       5.005  -5.172   8.789  0.00  0.00    -0.068 C 
ATOM     32  C   UNL     1       5.929  -5.051  10.003  0.00  0.00    -0.015 C 
ATOM     33  C   UNL     1       5.116  -5.244  11.284  0.00  0.00    -0.002 C 
ATOM     34  C   UNL     1       4.468  -6.630  11.273  0.00  0.00    -0.000 C 
ATOM     35  C   UNL     1       3.544  -6.752  10.060  0.00  0.00    -0.002 C 
ATOM     36  C   UNL     1       4.357  -6.558   8.778  0.00  0.00    -0.015 C 
ENDBRANCH  27  31
ENDBRANCH  23  24
ENDBRANCH  14  23
TORSDOF 5
