REMARK  Name = ZINC37324766
REMARK  4 active torsions:
REMARK  status: ('A' for Active; 'I' for Inactive)
REMARK    1  A    between atoms: C_5  and  C_7
REMARK    2  A    between atoms: C_7  and  N_8
REMARK    3  A    between atoms: N_8  and  C_9
REMARK    4  A    between atoms: C_9  and  C_10
REMARK                            x       y       z     vdW  Elec       q    Type
REMARK                         _______ _______ _______ _____ _____    ______ ____
ROOT
ATOM      1  C   UNL     1       1.508  -4.149   1.328  0.00  0.00    -0.046 C 
ENDROOT
BRANCH   1   2
ATOM      2  C   UNL     1       1.775  -4.656   2.722  0.00  0.00    -0.060 A 
ATOM      3  C   UNL     1       3.075  -4.866   3.143  0.00  0.00    +0.051 A 
ATOM      4  C   UNL     1       3.324  -5.332   4.425  0.00  0.00    +0.163 A 
ATOM      5  C   UNL     1       2.264  -5.586   5.286  0.00  0.00    +0.176 A 
ATOM      6  C   UNL     1       0.961  -5.374   4.858  0.00  0.00    +0.063 A 
ATOM      7  C   UNL     1       0.720  -4.905   3.579  0.00  0.00    +0.021 A 
ATOM      8 BR   UNL     1      -0.486  -5.722   6.025  0.00  0.00    -0.046 Br
ATOM      9  O   UNL     1       2.486  -6.036   6.551  0.00  0.00    -0.484 OA
ATOM     10  C   UNL     1       3.779  -6.589   6.819  0.00  0.00    +0.270 C 
ATOM     11  C   UNL     1       4.837  -5.645   6.232  0.00  0.00    +0.270 C 
ATOM     12  O   UNL     1       4.609  -5.538   4.823  0.00  0.00    -0.485 OA
ENDBRANCH   1   2
BRANCH   1  13
ATOM     13  N   UNL     1       1.488  -2.680   1.337  0.00  0.00    +0.384 N 
ATOM     14  H   UNL     1       2.381  -2.334   1.655  0.00  0.00    -0.085 HD
ATOM     15  H   UNL     1       0.761  -2.357   1.957  0.00  0.00    -0.085 HD
BRANCH  13  16
ATOM     16  C   UNL     1       1.228  -2.186  -0.022  0.00  0.00    -0.043 C 
BRANCH  16  21
ATOM     17  C   UNL     1      -0.017   1.378   0.010  0.00  0.00    +0.000 A 
ATOM     18  C   UNL     1       1.171   2.087   0.002  0.00  0.00    +0.003 A 
ATOM     19  C   UNL     1       2.377   1.414  -0.013  0.00  0.00    +0.038 A 
ATOM     20  C   UNL     1       2.397   0.029  -0.021  0.00  0.00    +0.125 A 
ATOM     21  C   UNL     1       1.208  -0.679  -0.013  0.00  0.00    -0.029 A 
ATOM     22  C   UNL     1       0.002  -0.004   0.002  0.00  0.00    +0.004 A 
ATOM     23  F   UNL     1       3.577  -0.630  -0.036  0.00  0.00    -0.205 F 
ENDBRANCH  16  21
ENDBRANCH  13  16
ENDBRANCH   1  13
TORSDOF 4
