REMARK  Name = ZINC09314347
REMARK  8 active torsions:
REMARK  status: ('A' for Active; 'I' for Inactive)
REMARK    1  A    between atoms: C_1  and  C_2
REMARK    2  A    between atoms: C_2  and  S_3
REMARK    3  A    between atoms: S_3  and  N_6
REMARK    4  A    between atoms: C_13  and  C_15
REMARK    5  A    between atoms: C_15  and  C_17
REMARK    6  A    between atoms: C_17  and  N_18
REMARK    7  A    between atoms: C_21  and  C_25
REMARK    8  A    between atoms: C_21  and  C_26
REMARK                            x       y       z     vdW  Elec       q    Type
REMARK                         _______ _______ _______ _____ _____    ______ ____
ROOT
ATOM      1  N   UNL     1      -0.018   1.461   0.010  0.00  0.00    -0.216 N 
ATOM      2  C   UNL     1      -1.143   2.203   0.019  0.00  0.00    +0.251 C 
ATOM      3  O   UNL     1      -2.286   1.799   0.022  0.00  0.00    -0.272 OA
ATOM      4  C   UNL     1      -0.682   3.647   0.027  0.00  0.00    +0.135 C 
ATOM      5  N   UNL     1       0.788   3.541   0.013  0.00  0.00    -0.281 N 
ATOM      6  C   UNL     1       1.079   2.227   0.004  0.00  0.00    +0.310 C 
ATOM      7  O   UNL     1       2.211   1.786  -0.009  0.00  0.00    -0.252 OA
ATOM      8  C   UNL     1      -1.158   4.365   1.291  0.00  0.00    +0.047 C 
ATOM      9  H   UNL     1       1.422   4.275   0.010  0.00  0.00    +0.152 HD
ENDROOT
BRANCH   4  10
ATOM     10  C   UNL     1      -1.173   4.363  -1.205  0.00  0.00    -0.012 A 
ATOM     11  C   UNL     1      -2.404   4.040  -1.745  0.00  0.00    +0.010 A 
ATOM     12  C   UNL     1      -2.858   4.694  -2.875  0.00  0.00    +0.050 A 
ATOM     13  C   UNL     1      -2.079   5.675  -3.470  0.00  0.00    +0.162 A 
ATOM     14  C   UNL     1      -0.843   6.001  -2.925  0.00  0.00    +0.162 A 
ATOM     15  C   UNL     1      -0.396   5.345  -1.788  0.00  0.00    +0.055 A 
ATOM     16  O   UNL     1      -0.065   6.964  -3.490  0.00  0.00    -0.485 OA
ATOM     17  C   UNL     1      -0.379   7.336  -4.837  0.00  0.00    +0.270 C 
ATOM     18  C   UNL     1      -1.897   7.536  -4.939  0.00  0.00    +0.270 C 
ATOM     19  O   UNL     1      -2.536   6.304  -4.587  0.00  0.00    -0.485 OA
ENDBRANCH   4  10
BRANCH   1  20
ATOM     20  C   UNL     1       0.002  -0.004   0.002  0.00  0.00    +0.197 C 
BRANCH  20  21
ATOM     21  C   UNL     1       0.022  -0.514   1.420  0.00  0.00    +0.181 C 
ATOM     22  O   UNL     1       0.020   0.269   2.346  0.00  0.00    -0.290 OA
BRANCH  21  30
ATOM     23  N   UNL     1       0.106  -6.002   2.628  0.00  0.00    -0.207 N 
ATOM     24  C   UNL     1       0.121  -6.035   4.093  0.00  0.00    +0.136 C 
ATOM     25  C   UNL     1       0.105  -4.560   4.530  0.00  0.00    +0.058 C 
ATOM     26  C   UNL     1       0.082  -3.783   3.232  0.00  0.00    -0.023 A 
ATOM     27  C   UNL     1       0.085  -4.689   2.177  0.00  0.00    +0.054 A 
ATOM     28  C   UNL     1       0.066  -4.208   0.861  0.00  0.00    +0.026 A 
ATOM     29  C   UNL     1       0.041  -2.868   0.615  0.00  0.00    +0.013 A 
ATOM     30  C   UNL     1       0.044  -1.958   1.680  0.00  0.00    +0.019 A 
ATOM     31  C   UNL     1       0.062  -2.438   2.996  0.00  0.00    +0.017 A 
BRANCH  23  32
ATOM     32  S   UNL     1       0.115  -7.339   1.651  0.00  0.00    +0.045 S 
ATOM     33  O   UNL     1       0.700  -6.896   0.435  0.00  0.00    -0.155 OA
ATOM     34  O   UNL     1       0.738  -8.352   2.429  0.00  0.00    -0.155 OA
BRANCH  32  36
ATOM     35  C   UNL     1      -1.751  -8.971   0.495  0.00  0.00    +0.030 C 
ATOM     36  C   UNL     1      -1.636  -7.738   1.393  0.00  0.00    +0.185 C 
ENDBRANCH  32  36
ENDBRANCH  23  32
ENDBRANCH  21  30
ENDBRANCH  20  21
ENDBRANCH   1  20
TORSDOF 6
