REMARK  Name = ZINC12528966
REMARK  7 active torsions:
REMARK  status: ('A' for Active; 'I' for Inactive)
REMARK    1  A    between atoms: C_1  and  C_2
REMARK    2  A    between atoms: C_2  and  C_4
REMARK    3  A    between atoms: C_2  and  N_14
REMARK    4  A    between atoms: C_15  and  C_17
REMARK    5  A    between atoms: C_17  and  O_18
REMARK    6  A    between atoms: O_18  and  C_19
REMARK    7  A    between atoms: C_19  and  C_21
REMARK                            x       y       z     vdW  Elec       q    Type
REMARK                         _______ _______ _______ _____ _____    ______ ____
ROOT
ATOM      1  C   UNL     1       3.075   9.352  -1.678  0.00  0.00    +0.340 C 
ATOM      2  O   UNL     1       2.121  10.103  -1.698  0.00  0.00    -0.245 OA
ENDROOT
BRANCH   1   3
ATOM      3  C   UNL     1       2.902   7.948  -1.244  0.00  0.00    +0.061 A 
ATOM      4  C   UNL     1       3.998   7.083  -1.220  0.00  0.00    +0.016 A 
ATOM      5  C   UNL     1       3.835   5.778  -0.814  0.00  0.00    +0.014 A 
ATOM      6  C   UNL     1       2.573   5.310  -0.425  0.00  0.00    +0.048 A 
ATOM      7  C   UNL     1       1.482   6.176  -0.453  0.00  0.00    +0.105 A 
ATOM      8  C   UNL     1       1.644   7.485  -0.858  0.00  0.00    +0.043 A 
ATOM      9  S   UNL     1      -0.115   5.610   0.030  0.00  0.00    +0.026 S 
ATOM     10  O   UNL     1      -0.296   6.006   1.382  0.00  0.00    -0.164 OA
ATOM     11  O   UNL     1      -1.012   5.995  -1.003  0.00  0.00    -0.164 OA
ATOM     12  C   UNL     1      -0.066   3.849   0.022  0.00  0.00    +0.104 A 
ATOM     13  C   UNL     1      -1.245   3.132   0.031  0.00  0.00    +0.028 A 
ATOM     14  C   UNL     1      -1.222   1.750   0.017  0.00  0.00    +0.002 A 
ATOM     15  C   UNL     1      -0.013   1.076   0.008  0.00  0.00    +0.001 A 
ATOM     16  C   UNL     1       1.172   1.779   0.000  0.00  0.00    +0.013 A 
ATOM     17  C   UNL     1       1.158   3.180   0.008  0.00  0.00    +0.047 A 
ATOM     18  C   UNL     1       2.434   3.908   0.005  0.00  0.00    +0.197 C 
ATOM     19  O   UNL     1       3.431   3.321   0.378  0.00  0.00    -0.287 OA
ENDBRANCH   1   3
BRANCH   1  20
ATOM     20  O   UNL     1       4.290   9.797  -2.050  0.00  0.00    -0.452 OA
BRANCH  20  21
ATOM     21  C   UNL     1       4.386  11.186  -2.464  0.00  0.00    +0.328 C 
BRANCH  21  23
ATOM     22  N   UNL     1       6.138  12.739  -3.260  0.00  0.00    -0.309 N 
ATOM     23  C   UNL     1       5.810  11.501  -2.842  0.00  0.00    +0.251 C 
ATOM     24  O   UNL     1       6.661  10.640  -2.769  0.00  0.00    -0.272 OA
ATOM     25  H   UNL     1       5.458  13.428  -3.317  0.00  0.00    +0.149 HD
BRANCH  22  27
ATOM     26  C   UNL     1       7.764  12.649  -5.085  0.00  0.00    +0.028 C 
ATOM     27  C   UNL     1       7.523  13.045  -3.627  0.00  0.00    +0.076 C 
BRANCH  27  28
ATOM     28  C   UNL     1       7.776  14.545  -3.458  0.00  0.00    -0.010 C 
ATOM     29  C   UNL     1       7.535  14.942  -2.000  0.00  0.00    +0.012 C 
ATOM     30  C   UNL     1       7.788  16.441  -1.832  0.00  0.00    -0.010 C 
ATOM     31  C   UNL     1       9.234  16.761  -2.215  0.00  0.00    +0.007 C 
ATOM     32  C   UNL     1       9.475  16.364  -3.673  0.00  0.00    -0.010 C 
ATOM     33  C   UNL     1       9.222  14.865  -3.842  0.00  0.00    +0.012 C 
ATOM     34  C   UNL     1       8.522  17.147  -4.579  0.00  0.00    +0.007 C 
ATOM     35  C   UNL     1       7.076  16.827  -4.195  0.00  0.00    -0.010 C 
ATOM     36  C   UNL     1       6.835  17.224  -2.737  0.00  0.00    +0.007 C 
ATOM     37  C   UNL     1       6.823  15.328  -4.364  0.00  0.00    +0.012 C 
ENDBRANCH  27  28
ENDBRANCH  22  27
ENDBRANCH  21  23
ENDBRANCH  20  21
ENDBRANCH   1  20
TORSDOF 6
