REMARK  Name = ZINC10475427
REMARK  11 active torsions:
REMARK  status: ('A' for Active; 'I' for Inactive)
REMARK    1  A    between atoms: C_4  and  C_7
REMARK    2  A    between atoms: C_7  and  O_8
REMARK    3  A    between atoms: O_8  and  C_9
REMARK    4  A    between atoms: C_12  and  C_16
REMARK    5  A    between atoms: C_16  and  N_55
REMARK    6  A    between atoms: C_17  and  C_18
REMARK    7  A    between atoms: C_17  and  N_55
REMARK    8  A    between atoms: C_18  and  C_19
REMARK    9  A    between atoms: C_19  and  S_20
REMARK   10  A    between atoms: S_20  and  C_21
REMARK   11  A    between atoms: N_25  and  C_26
REMARK                            x       y       z     vdW  Elec       q    Type
REMARK                         _______ _______ _______ _____ _____    ______ ____
ROOT
ATOM      1  N   UNL     1       2.855   4.188  -1.398  0.00  0.00    +0.382 N 
ATOM      2  H   UNL     1       2.123   4.733  -1.868  0.00  0.00    -0.085 HD
ATOM      3  H   UNL     1       2.978   3.291  -1.883  0.00  0.00    -0.085 HD
ENDROOT
BRANCH   1   4
ATOM      4  C   UNL     1       2.453   3.934  -0.002  0.00  0.00    -0.047 C 
BRANCH   4   8
ATOM      5  C   UNL     1      -1.223   1.753   0.017  0.00  0.00    +0.139 A 
ATOM      6  C   UNL     1      -0.013   1.076   0.008  0.00  0.00    +0.047 A 
ATOM      7  C   UNL     1       1.174   1.783   0.000  0.00  0.00    +0.005 A 
ATOM      8  C   UNL     1       1.157   3.166   0.007  0.00  0.00    -0.063 A 
ATOM      9  C   UNL     1      -0.048   3.844   0.022  0.00  0.00    +0.025 A 
ATOM     10  C   UNL     1      -1.238   3.141   0.030  0.00  0.00    +0.083 A 
ATOM     11 CL   UNL     1      -2.751   3.994   0.048  0.00  0.00    -0.080 Cl
BRANCH   5  12
ATOM     12  O   UNL     1      -2.392   1.060   0.020  0.00  0.00    -0.486 OA
BRANCH  12  13
ATOM     13  C   UNL     1      -2.300  -0.366   0.012  0.00  0.00    +0.264 C 
BRANCH  13  17
ATOM     14  C   UNL     1      -6.226  -2.047   0.023  0.00  0.00    +0.000 A 
ATOM     15  C   UNL     1      -5.597  -1.770  -1.176  0.00  0.00    +0.000 A 
ATOM     16  C   UNL     1      -4.326  -1.225  -1.180  0.00  0.00    +0.007 A 
ATOM     17  C   UNL     1      -3.685  -0.959   0.016  0.00  0.00    -0.010 A 
ATOM     18  C   UNL     1      -4.312  -1.243   1.214  0.00  0.00    +0.007 A 
ATOM     19  C   UNL     1      -5.585  -1.782   1.218  0.00  0.00    +0.000 A 
ENDBRANCH  13  17
ENDBRANCH  12  13
ENDBRANCH   5  12
ENDBRANCH   4   8
ENDBRANCH   1   4
BRANCH   1  20
ATOM     20  C   UNL     1       4.124   4.940  -1.437  0.00  0.00    -0.081 C 
BRANCH  20  21
ATOM     21  C   UNL     1       4.515   5.187  -2.895  0.00  0.00    -0.008 C 
BRANCH  21  22
ATOM     22  C   UNL     1       5.830   5.967  -2.945  0.00  0.00    +0.075 C 
BRANCH  22  23
ATOM     23  S   UNL     1       6.293   6.260  -4.670  0.00  0.00    -0.084 S 
BRANCH  23  24
ATOM     24  C   UNL     1       7.797   7.149  -4.437  0.00  0.00    +0.214 A 
ATOM     25  N   UNL     1       8.349   7.463  -3.285  0.00  0.00    -0.101 NA
ATOM     26  N   UNL     1       9.441   8.112  -3.471  0.00  0.00    -0.022 NA
ATOM     27  N   UNL     1       9.667   8.259  -4.732  0.00  0.00    -0.038 NA
ATOM     28  N   UNL     1       8.607   7.633  -5.411  0.00  0.00    -0.187 N 
BRANCH  28  29
ATOM     29  C   UNL     1       8.426   7.532  -6.798  0.00  0.00    +0.070 A 
ATOM     30  C   UNL     1       7.855   6.390  -7.344  0.00  0.00    +0.028 A 
ATOM     31  C   UNL     1       7.673   6.296  -8.710  0.00  0.00    +0.002 A 
ATOM     32  C   UNL     1       8.069   7.332  -9.535  0.00  0.00    +0.000 A 
ATOM     33  C   UNL     1       8.643   8.469  -8.995  0.00  0.00    +0.002 A 
ATOM     34  C   UNL     1       8.823   8.571  -7.629  0.00  0.00    +0.028 A 
ENDBRANCH  28  29
ENDBRANCH  23  24
ENDBRANCH  22  23
ENDBRANCH  21  22
ENDBRANCH  20  21
ENDBRANCH   1  20
TORSDOF 11
