REMARK  Name = ZINC19760777
REMARK  11 active torsions:
REMARK  status: ('A' for Active; 'I' for Inactive)
REMARK    1  A    between atoms: C_1  and  C_2
REMARK    2  A    between atoms: C_3  and  C_30
REMARK    3  A    between atoms: C_4  and  C_21
REMARK    4  A    between atoms: C_10  and  C_15
REMARK    5  A    between atoms: C_24  and  O_29
REMARK    6  A    between atoms: C_25  and  O_27
REMARK    7  A    between atoms: O_27  and  C_28
REMARK    8  A    between atoms: C_30  and  O_32
REMARK    9  A    between atoms: O_32  and  C_33
REMARK   10  A    between atoms: C_33  and  C_34
REMARK   11  A    between atoms: C_33  and  C_35
REMARK                            x       y       z     vdW  Elec       q    Type
REMARK                         _______ _______ _______ _____ _____    ______ ____
ROOT
ATOM      1  C   UNL     1       6.413   6.286  -3.792  0.00  0.00    +0.061 C 
ATOM      2  C   UNL     1       5.678   6.343  -2.478  0.00  0.00    +0.016 C 
ATOM      3  C   UNL     1       6.318   6.758  -1.371  0.00  0.00    +0.065 C 
ATOM      4  C   UNL     1       5.616   6.835  -0.048  0.00  0.00    +0.092 C 
ATOM      5  C   UNL     1       4.350   6.017  -0.059  0.00  0.00    +0.024 C 
ATOM      6  C   UNL     1       3.786   5.635  -1.224  0.00  0.00    +0.016 C 
ATOM      7  N   UNL     1       4.363   5.973  -2.419  0.00  0.00    -0.321 N 
ATOM      8  C   UNL     1       2.513   4.826  -1.243  0.00  0.00    +0.059 C 
ATOM      9  C   UNL     1       2.451   3.937   0.001  0.00  0.00    +0.032 C 
ATOM     10  C   UNL     1       2.524   4.832   1.242  0.00  0.00    +0.088 C 
ATOM     11  C   UNL     1       3.777   5.661   1.175  0.00  0.00    +0.162 C 
ATOM     12  O   UNL     1       4.304   6.031   2.206  0.00  0.00    -0.292 OA
ATOM     13  H   UNL     1       3.758   5.945  -3.337  0.00  0.00    +0.152 HD
ENDROOT
BRANCH   9  14
ATOM     14  C   UNL     1       1.156   3.165   0.008  0.00  0.00    -0.044 A 
ATOM     15  C   UNL     1       1.175   1.783   0.000  0.00  0.00    +0.004 A 
ATOM     16  C   UNL     1      -0.013   1.076   0.008  0.00  0.00    +0.000 A 
ATOM     17  C   UNL     1      -1.219   1.751   0.017  0.00  0.00    +0.000 A 
ATOM     18  C   UNL     1      -1.238   3.133   0.029  0.00  0.00    +0.000 A 
ATOM     19  C   UNL     1      -0.050   3.840   0.023  0.00  0.00    +0.004 A 
ENDBRANCH   9  14
BRANCH   4  20
ATOM     20  C   UNL     1       5.272   8.272   0.248  0.00  0.00    -0.032 A 
ATOM     21  C   UNL     1       4.455   8.977  -0.616  0.00  0.00    +0.008 A 
ATOM     22  C   UNL     1       4.131  10.294  -0.347  0.00  0.00    +0.049 A 
ATOM     23  C   UNL     1       4.635  10.913   0.785  0.00  0.00    +0.158 A 
ATOM     24  C   UNL     1       5.463  10.206   1.652  0.00  0.00    +0.162 A 
ATOM     25  C   UNL     1       5.778   8.884   1.379  0.00  0.00    +0.054 A 
BRANCH  24  26
ATOM     26  O   UNL     1       5.960  10.809   2.764  0.00  0.00    -0.491 OA
ATOM     27  C   UNL     1       6.803  10.022   3.608  0.00  0.00    +0.277 C 
ENDBRANCH  24  26
BRANCH  23  28
ATOM     28  O   UNL     1       4.323  12.210   1.048  0.00  0.00    -0.503 OA
ATOM     29  H   UNL     1       4.724  12.701   1.948  0.00  0.00    +0.292 HD
ENDBRANCH  23  28
ENDBRANCH   4  20
BRANCH   3  30
ATOM     30  C   UNL     1       7.681   7.130  -1.457  0.00  0.00    +0.338 C 
ATOM     31  O   UNL     1       8.261   7.072  -2.525  0.00  0.00    -0.245 OA
BRANCH  30  32
ATOM     32  O   UNL     1       8.336   7.549  -0.354  0.00  0.00    -0.459 OA
BRANCH  32  33
ATOM     33  C   UNL     1       9.710   7.908  -0.513  0.00  0.00    +0.171 C 
ATOM     34  C   UNL     1      10.075   8.991   0.504  0.00  0.00    +0.052 C 
ATOM     35  C   UNL     1      10.589   6.676  -0.285  0.00  0.00    +0.052 C 
ENDBRANCH  32  33
ENDBRANCH  30  32
ENDBRANCH   3  30
TORSDOF 7
