REMARK  Name = ZINC36609746
REMARK  17 active torsions:
REMARK  status: ('A' for Active; 'I' for Inactive)
REMARK    1  A    between atoms: C_1  and  C_2
REMARK    2  A    between atoms: C_2  and  C_3
REMARK    3  A    between atoms: C_2  and  C_4
REMARK    4  A    between atoms: C_2  and  C_5
REMARK    5  A    between atoms: C_5  and  C_6
REMARK    6  A    between atoms: C_6  and  C_7
REMARK    7  A    between atoms: C_6  and  C_8
REMARK    8  A    between atoms: C_6  and  N_9
REMARK    9  A    between atoms: C_10  and  C_12
REMARK   10  A    between atoms: C_12  and  C_14
REMARK   11  A    between atoms: C_12  and  N_23
REMARK   12  A    between atoms: C_17  and  O_22
REMARK   13  A    between atoms: C_18  and  O_20
REMARK   14  A    between atoms: O_20  and  C_21
REMARK   15  A    between atoms: N_23  and  C_24
REMARK   16  A    between atoms: C_30  and  C_32
REMARK   17  A    between atoms: C_33  and  C_34
REMARK                            x       y       z     vdW  Elec       q    Type
REMARK                         _______ _______ _______ _____ _____    ______ ____
ROOT
ATOM      1  C   UNL     1       5.242   0.246  -4.143  0.00  0.00    +0.198 C 
ENDROOT
BRANCH   1   2
ATOM      2  C   UNL     1       4.547   1.371  -4.865  0.00  0.00    -0.014 A 
ATOM      3  C   UNL     1       5.034   2.661  -4.763  0.00  0.00    +0.010 A 
ATOM      4  C   UNL     1       4.400   3.697  -5.424  0.00  0.00    +0.049 A 
ATOM      5  C   UNL     1       3.275   3.443  -6.192  0.00  0.00    +0.158 A 
ATOM      6  C   UNL     1       2.786   2.144  -6.296  0.00  0.00    +0.162 A 
ATOM      7  C   UNL     1       3.429   1.110  -5.635  0.00  0.00    +0.055 A 
BRANCH   6   8
ATOM      8  O   UNL     1       1.682   1.890  -7.049  0.00  0.00    -0.491 OA
ATOM      9  C   UNL     1       1.237   0.534  -7.110  0.00  0.00    +0.277 C 
ENDBRANCH   6   8
BRANCH   5  10
ATOM     10  O   UNL     1       2.651   4.461  -6.843  0.00  0.00    -0.503 OA
ATOM     11  H   UNL     1       2.983   4.618  -7.737  0.00  0.00    +0.292 HD
ENDBRANCH   5  10
ENDBRANCH   1   2
BRANCH   1  13
ATOM     12  N   UNL     1       3.895   0.501  -2.083  0.00  0.00    -0.308 N 
ATOM     13  C   UNL     1       5.115   0.451  -2.655  0.00  0.00    +0.239 C 
ATOM     14  O   UNL     1       6.110   0.570  -1.972  0.00  0.00    -0.273 OA
ATOM     15  H   UNL     1       3.099   0.406  -2.630  0.00  0.00    +0.149 HD
BRANCH  12  16
ATOM     16  C   UNL     1       3.772   0.700  -0.637  0.00  0.00    +0.030 C 
ATOM     17  C   UNL     1       4.554   1.949  -0.226  0.00  0.00    +0.031 C 
ATOM     18  C   UNL     1       4.336  -0.519   0.095  0.00  0.00    +0.031 C 
BRANCH  16  19
ATOM     19  C   UNL     1       2.297   0.878  -0.271  0.00  0.00    +0.031 C 
BRANCH  19  21
ATOM     20  C   UNL     1       1.276   1.002  -2.548  0.00  0.00    +0.010 C 
ATOM     21  C   UNL     1       1.626   1.800  -1.291  0.00  0.00    -0.036 C 
ATOM     22  C   UNL     1       2.583   2.936  -1.658  0.00  0.00    +0.010 C 
ATOM     23  C   UNL     1       0.348   2.385  -0.686  0.00  0.00    +0.010 C 
ENDBRANCH  19  21
ENDBRANCH  16  19
ENDBRANCH  12  16
ENDBRANCH   1  13
BRANCH   1  24
ATOM     24  N   UNL     1       6.659   0.228  -4.514  0.00  0.00    -0.245 N 
ATOM     25  C   UNL     1       7.482  -0.699  -3.985  0.00  0.00    +0.297 C 
ATOM     26  O   UNL     1       7.030  -1.590  -3.291  0.00  0.00    -0.260 OA
BRANCH  24  27
ATOM     27  C   UNL     1       7.157   1.172  -5.417  0.00  0.00    +0.038 A 
ATOM     28  C   UNL     1       8.082   2.119  -4.994  0.00  0.00    +0.023 A 
ATOM     29  C   UNL     1       8.572   3.050  -5.889  0.00  0.00    +0.002 A 
ATOM     30  C   UNL     1       8.143   3.040  -7.204  0.00  0.00    +0.000 A 
ATOM     31  C   UNL     1       7.222   2.100  -7.627  0.00  0.00    +0.002 A 
ATOM     32  C   UNL     1       6.733   1.162  -6.739  0.00  0.00    +0.023 A 
ENDBRANCH  24  27
BRANCH  25  33
ATOM     33  C   UNL     1       8.890  -0.635  -4.240  0.00  0.00    -0.002 C 
ATOM     34  C   UNL     1      10.044  -0.582  -4.449  0.00  0.00    -0.057 C 
BRANCH  34  35
ATOM     35  C   UNL     1      11.452  -0.518  -4.705  0.00  0.00    +0.025 A 
ATOM     36  C   UNL     1      11.976   0.507  -5.497  0.00  0.00    +0.017 A 
ATOM     37  C   UNL     1      13.333   0.562  -5.738  0.00  0.00    +0.001 A 
ATOM     38  C   UNL     1      14.175  -0.395  -5.198  0.00  0.00    +0.000 A 
ATOM     39  C   UNL     1      13.663  -1.413  -4.412  0.00  0.00    +0.001 A 
ATOM     40  C   UNL     1      12.309  -1.478  -4.158  0.00  0.00    +0.017 A 
ENDBRANCH  34  35
ENDBRANCH  25  33
ENDBRANCH   1  24
TORSDOF 11
