REMARK  Name = ZINC54002111
REMARK  3 active torsions:
REMARK  status: ('A' for Active; 'I' for Inactive)
REMARK    1  A    between atoms: N_9  and  C_10
REMARK    2  A    between atoms: C_13  and  C_16
REMARK    3  A    between atoms: N_18  and  C_19
REMARK                            x       y       z     vdW  Elec       q    Type
REMARK                         _______ _______ _______ _____ _____    ______ ____
ROOT
ATOM      1  C   UNL     1       4.803  -0.573  -0.007  0.00  0.00    +0.048 A 
ATOM      2  C   UNL     1       5.316   0.377  -0.884  0.00  0.00    +0.027 A 
ATOM      3  C   UNL     1       6.667   0.644  -0.899  0.00  0.00    +0.015 A 
ATOM      4  C   UNL     1       7.522  -0.041  -0.032  0.00  0.00    +0.037 A 
ATOM      5  C   UNL     1       7.003  -0.994   0.848  0.00  0.00    +0.015 A 
ATOM      6  C   UNL     1       5.650  -1.252   0.861  0.00  0.00    +0.027 A 
ENDROOT
BRANCH   1  15
ATOM      7  C   UNL     1      -0.023   1.403   0.206  0.00  0.00    +0.002 A 
ATOM      8  C   UNL     1       1.162   2.126   0.225  0.00  0.00    +0.002 A 
ATOM      9  C   UNL     1       2.377   1.478   0.162  0.00  0.00    +0.028 A 
ATOM     10  C   UNL     1       2.414   0.093   0.081  0.00  0.00    +0.073 A 
ATOM     11  C   UNL     1       1.215  -0.639   0.062  0.00  0.00    +0.089 A 
ATOM     12  C   UNL     1      -0.005   0.039   0.126  0.00  0.00    +0.030 A 
ATOM     13  N   UNL     1       1.552  -1.952  -0.021  0.00  0.00    -0.235 NA
ATOM     14  C   UNL     1       2.847  -2.071  -0.054  0.00  0.00    +0.205 A 
ATOM     15  N   UNL     1       3.432  -0.841   0.006  0.00  0.00    -0.299 N 
ENDBRANCH   1  15
BRANCH   4  16
ATOM     16  C   UNL     1       8.971   0.242  -0.046  0.00  0.00    +0.245 C 
ATOM     17  O   UNL     1       9.421   1.072  -0.812  0.00  0.00    -0.270 OA
ATOM     18  N   UNL     1       9.794  -0.419   0.791  0.00  0.00    -0.300 N 
ATOM     19  H   UNL     1       9.435  -1.081   1.403  0.00  0.00    +0.150 HD
BRANCH  18  20
ATOM     20  C   UNL     1      11.232  -0.138   0.778  0.00  0.00    +0.159 C 
ATOM     21  C   UNL     1      11.982  -1.262   1.497  0.00  0.00    +0.032 C 
ATOM     22  C   UNL     1      11.163  -1.798   2.657  0.00  0.00    +0.004 C 
ATOM     23  C   UNL     1      10.973  -0.802   3.786  0.00  0.00    +0.019 C 
ATOM     24  C   UNL     1      10.103   0.373   3.335  0.00  0.00    +0.104 C 
ATOM     25  N   UNL     1      10.968   1.385   2.706  0.00  0.00    -0.314 N 
ATOM     26  C   UNL     1      11.503   1.165   1.500  0.00  0.00    +0.233 C 
ATOM     27  O   UNL     1      12.210   2.006   0.986  0.00  0.00    -0.274 OA
ATOM     28  H   UNL     1      11.149   2.219   3.167  0.00  0.00    +0.149 HD
ENDBRANCH  18  20
ENDBRANCH   4  16
TORSDOF 3
