REMARK  Name = ZINC16424390
REMARK  15 active torsions:
REMARK  status: ('A' for Active; 'I' for Inactive)
REMARK    1  A    between atoms: C_1  and  C_2
REMARK    2  A    between atoms: C_2  and  N_71
REMARK    3  A    between atoms: C_3  and  C_4
REMARK    4  A    between atoms: C_3  and  N_71
REMARK    5  A    between atoms: C_5  and  C_6
REMARK    6  A    between atoms: C_5  and  N_71
REMARK    7  A    between atoms: C_6  and  C_7
REMARK    8  A    between atoms: C_7  and  C_8
REMARK    9  A    between atoms: C_8  and  C_10
REMARK   10  A    between atoms: C_8  and  N_11
REMARK   11  A    between atoms: N_11  and  C_12
REMARK   12  A    between atoms: C_12  and  C_13
REMARK   13  A    between atoms: C_21  and  C_22
REMARK   14  A    between atoms: C_21  and  C_23
REMARK   15  A    between atoms: N_26  and  C_27
REMARK                            x       y       z     vdW  Elec       q    Type
REMARK                         _______ _______ _______ _____ _____    ______ ____
ROOT
ATOM      1  N   UNL     1       2.211   0.965  -0.281  0.00  0.00    -0.279 N 
ATOM      2  C   UNL     1       1.027   1.540  -0.572  0.00  0.00    +0.307 C 
ATOM      3  O   UNL     1       0.950   2.748  -0.691  0.00  0.00    -0.252 OA
ATOM      4  N   UNL     1      -0.072   0.776  -0.732  0.00  0.00    -0.268 N 
ATOM      5  H   UNL     1       0.001  -0.191  -0.704  0.00  0.00    +0.156 HD
ENDROOT
BRANCH   4   6
ATOM      6  C   UNL     1      -1.318   1.378  -0.945  0.00  0.00    +0.049 A 
ATOM      7  C   UNL     1      -1.399   2.595  -1.608  0.00  0.00    +0.024 A 
ATOM      8  C   UNL     1      -2.629   3.186  -1.816  0.00  0.00    +0.002 A 
ATOM      9  C   UNL     1      -3.781   2.567  -1.366  0.00  0.00    +0.001 A 
ATOM     10  C   UNL     1      -3.705   1.355  -0.706  0.00  0.00    +0.017 A 
ATOM     11  C   UNL     1      -2.477   0.755  -0.498  0.00  0.00    +0.039 A 
ATOM     12 BR   UNL     1      -2.374  -0.906   0.398  0.00  0.00    -0.048 Br
ENDBRANCH   4   6
BRANCH   1  13
ATOM     13  C   UNL     1       3.381   1.801   0.001  0.00  0.00    +0.075 C 
ATOM     14  C   UNL     1       4.005   1.373   1.331  0.00  0.00    +0.028 C 
BRANCH  13  15
ATOM     15  C   UNL     1       4.407   1.635  -1.121  0.00  0.00    +0.020 C 
BRANCH  15  16
ATOM     16  C   UNL     1       3.816   2.152  -2.434  0.00  0.00    -0.017 C 
BRANCH  16  17
ATOM     17  C   UNL     1       4.794   1.875  -3.578  0.00  0.00    -0.079 C 
BRANCH  17  18
ATOM     18  N   UNL     1       4.251   2.462  -4.821  0.00  0.00    +0.379 N 
ATOM     19  H   UNL     1       3.285   2.137  -4.949  0.00  0.00    -0.082 HD
BRANCH  18  21
ATOM     20  C   UNL     1       5.684   4.464  -4.606  0.00  0.00    -0.017 C 
ATOM     21  C   UNL     1       4.253   3.937  -4.727  0.00  0.00    -0.082 C 
ENDBRANCH  18  21
BRANCH  18  22
ATOM     22  C   UNL     1       5.061   2.028  -5.979  0.00  0.00    -0.082 C 
ATOM     23  C   UNL     1       4.292   2.347  -7.263  0.00  0.00    -0.017 C 
ENDBRANCH  18  22
ENDBRANCH  17  18
ENDBRANCH  16  17
ENDBRANCH  15  16
ENDBRANCH  13  15
ENDBRANCH   1  13
BRANCH   1  24
ATOM     24  C   UNL     1       2.327  -0.495  -0.245  0.00  0.00    +0.140 C 
BRANCH  24  25
ATOM     25  C   UNL     1       1.764  -1.012   1.054  0.00  0.00    -0.053 C 
ATOM     26  C   UNL     1       0.538  -1.476   1.129  0.00  0.00    -0.025 C 
ATOM     27  C   UNL     1       0.017  -1.997   2.446  0.00  0.00    +0.031 C 
ATOM     28  C   UNL     1       1.074  -1.789   3.539  0.00  0.00    -0.000 C 
ATOM     29  C   UNL     1       2.443  -2.341   3.090  0.00  0.00    +0.012 C 
ATOM     30  C   UNL     1       2.591  -1.011   2.328  0.00  0.00    +0.022 C 
ATOM     31  C   UNL     1       1.740  -0.404   3.470  0.00  0.00    -0.025 C 
ATOM     32  C   UNL     1       2.547  -0.041   4.718  0.00  0.00    +0.012 C 
ATOM     33  C   UNL     1       0.799   0.714   3.015  0.00  0.00    +0.012 C 
ENDBRANCH  24  25
ENDBRANCH   1  24
TORSDOF 10
