REMARK  Name = ZINC38682984
REMARK  15 active torsions:
REMARK  status: ('A' for Active; 'I' for Inactive)
REMARK    1  A    between atoms: C_1  and  C_2
REMARK    2  A    between atoms: C_2  and  C_3
REMARK    3  A    between atoms: C_3  and  C_4
REMARK    4  A    between atoms: C_4  and  O_5
REMARK    5  A    between atoms: O_5  and  C_6
REMARK    6  A    between atoms: C_11  and  C_12
REMARK    7  A    between atoms: C_17  and  O_26
REMARK    8  A    between atoms: C_21  and  N_25
REMARK    9  A    between atoms: C_22  and  C_23
REMARK   10  A    between atoms: O_26  and  C_27
REMARK   11  A    between atoms: C_27  and  C_29
REMARK   12  A    between atoms: C_29  and  O_30
REMARK   13  A    between atoms: O_30  and  C_31
REMARK   14  A    between atoms: C_33  and  C_38
REMARK   15  A    between atoms: C_35  and  C_37
REMARK                            x       y       z     vdW  Elec       q    Type
REMARK                         _______ _______ _______ _____ _____    ______ ____
ROOT
ATOM      1  C   UNL     1       2.717  -3.472  -4.795  0.00  0.00    +0.101 C 
ATOM      2  C   UNL     1       4.203  -3.694  -4.897  0.00  0.00    +0.008 A 
ATOM      3  C   UNL     1       5.044  -3.106  -3.969  0.00  0.00    +0.012 A 
ATOM      4  C   UNL     1       6.409  -3.299  -4.045  0.00  0.00    +0.047 A 
ATOM      5  C   UNL     1       6.942  -4.085  -5.057  0.00  0.00    +0.135 A 
ATOM      6  C   UNL     1       6.103  -4.675  -5.988  0.00  0.00    +0.093 A 
ATOM      7  C   UNL     1       4.730  -4.481  -5.909  0.00  0.00    +0.138 A 
ATOM      8  O   UNL     1       3.922  -5.065  -6.828  0.00  0.00    -0.441 OA
ATOM      9  C   UNL     1       2.676  -4.601  -7.016  0.00  0.00    +0.199 C 
ATOM     10  C   UNL     1       2.050  -3.842  -6.090  0.00  0.00    +0.098 C 
ENDROOT
BRANCH   1  16
ATOM     11  C   UNL     1       1.520  -3.730  -2.608  0.00  0.00    +0.125 A 
ATOM     12  C   UNL     1       1.002  -4.519  -1.590  0.00  0.00    +0.046 A 
ATOM     13  C   UNL     1       1.130  -5.893  -1.649  0.00  0.00    +0.004 A 
ATOM     14  C   UNL     1       1.773  -6.483  -2.722  0.00  0.00    +0.001 A 
ATOM     15  C   UNL     1       2.289  -5.699  -3.737  0.00  0.00    +0.008 A 
ATOM     16  C   UNL     1       2.159  -4.325  -3.685  0.00  0.00    +0.007 A 
BRANCH  11  17
ATOM     17  O   UNL     1       1.395  -2.378  -2.552  0.00  0.00    -0.492 OA
BRANCH  17  18
ATOM     18  C   UNL     1       0.725  -1.835  -1.413  0.00  0.00    +0.229 C 
BRANCH  18  19
ATOM     19  C   UNL     1       0.681  -0.310  -1.525  0.00  0.00    +0.041 C 
BRANCH  19  21
ATOM     20  C   UNL     1      -0.079   1.797  -0.418  0.00  0.00    +0.004 C 
ATOM     21  C   UNL     1      -0.036   0.272  -0.305  0.00  0.00    -0.000 C 
ENDBRANCH  19  21
ENDBRANCH  18  19
ENDBRANCH  17  18
ENDBRANCH  11  17
ENDBRANCH   1  16
BRANCH   9  22
ATOM     22  N   UNL     1       2.020  -4.908  -8.182  0.00  0.00    -0.328 N 
ATOM     23  H   UNL     1       2.457  -5.452  -8.856  0.00  0.00    +0.145 HD
ATOM     24  H   UNL     1       1.120  -4.580  -8.333  0.00  0.00    +0.145 HD
ENDBRANCH   9  22
BRANCH  10  25
ATOM     25  C   UNL     1       0.720  -3.380  -6.352  0.00  0.00    +0.101 C 
ATOM     26  N   UNL     1      -0.335  -3.014  -6.559  0.00  0.00    -0.191 NA
ENDBRANCH  10  25
BRANCH   5  27
ATOM     27  O   UNL     1       8.286  -4.275  -5.135  0.00  0.00    -0.423 OA
BRANCH  27  28
ATOM     28  C   UNL     1       8.944  -3.710  -6.159  0.00  0.00    +0.350 C 
ATOM     29  O   UNL     1       8.362  -2.971  -6.918  0.00  0.00    -0.247 OA
BRANCH  28  30
ATOM     30  C   UNL     1      10.410  -3.997  -6.363  0.00  0.00    +0.349 C 
BRANCH  30  31
ATOM     31  O   UNL     1      10.880  -3.284  -7.509  0.00  0.00    -0.481 OA
BRANCH  31  32
ATOM     32  C   UNL     1      12.191  -3.434  -7.834  0.00  0.00    +0.122 A 
ATOM     33  C   UNL     1      13.006  -4.255  -7.069  0.00  0.00    +0.049 A 
ATOM     34  C   UNL     1      14.339  -4.407  -7.402  0.00  0.00    -0.047 A 
ATOM     35  C   UNL     1      14.859  -3.741  -8.496  0.00  0.00    +0.007 A 
ATOM     36  C   UNL     1      14.048  -2.921  -9.260  0.00  0.00    -0.047 A 
ATOM     37  C   UNL     1      12.714  -2.772  -8.935  0.00  0.00    +0.049 A 
ATOM     38  C   UNL     1      14.619  -2.196 -10.452  0.00  0.00    +0.044 C 
ATOM     39  C   UNL     1      15.225  -5.298  -6.572  0.00  0.00    +0.044 C 
ENDBRANCH  31  32
ENDBRANCH  30  31
ENDBRANCH  28  30
ENDBRANCH  27  28
ENDBRANCH   5  27
TORSDOF 12
