REMARK  Name = ZINC12505988
REMARK  7 active torsions:
REMARK  status: ('A' for Active; 'I' for Inactive)
REMARK    1  A    between atoms: C_1  and  O_2
REMARK    2  A    between atoms: O_2  and  C_3
REMARK    3  A    between atoms: C_6  and  C_9
REMARK    4  A    between atoms: C_13  and  C_26
REMARK    5  A    between atoms: C_17  and  C_18
REMARK    6  A    between atoms: C_21  and  O_24
REMARK    7  A    between atoms: O_24  and  C_25
REMARK                            x       y       z     vdW  Elec       q    Type
REMARK                         _______ _______ _______ _____ _____    ______ ____
ROOT
ATOM      1  C   UNL     1      -1.397  -0.418   0.156  0.00  0.00    +0.041 A 
ATOM      2  C   UNL     1       0.004  -0.001   0.017  0.00  0.00    +0.088 A 
ATOM      3  C   UNL     1       1.242  -0.658   0.002  0.00  0.00    +0.131 A 
ATOM      4  N   UNL     1       2.343   0.073  -0.150  0.00  0.00    -0.216 NA
ATOM      5  C   UNL     1       2.272   1.385  -0.281  0.00  0.00    +0.149 A 
ATOM      6  N   UNL     1       1.131   2.040  -0.273  0.00  0.00    -0.196 NA
ATOM      7  C   UNL     1      -0.024   1.396  -0.126  0.00  0.00    +0.233 A 
ATOM      8  O   UNL     1      -1.309   1.787  -0.074  0.00  0.00    -0.436 OA
ATOM      9  C   UNL     1      -2.134   0.733   0.087  0.00  0.00    +0.146 A 
ATOM     10  N   UNL     1       1.316  -2.033   0.140  0.00  0.00    -0.342 N 
ATOM     11  H   UNL     1       0.505  -2.554   0.250  0.00  0.00    +0.144 HD
ATOM     12  H   UNL     1       2.179  -2.475   0.127  0.00  0.00    +0.144 HD
ENDROOT
BRANCH   1  16
ATOM     13  C   UNL     1      -2.859  -4.377   0.667  0.00  0.00    +0.120 A 
ATOM     14  C   UNL     1      -2.981  -3.455   1.699  0.00  0.00    +0.046 A 
ATOM     15  C   UNL     1      -2.507  -2.170   1.537  0.00  0.00    +0.012 A 
ATOM     16  C   UNL     1      -1.906  -1.796   0.334  0.00  0.00    -0.013 A 
ATOM     17  C   UNL     1      -1.791  -2.724  -0.702  0.00  0.00    +0.012 A 
ATOM     18  C   UNL     1      -2.261  -4.008  -0.530  0.00  0.00    +0.046 A 
BRANCH  13  20
ATOM     19  C   UNL     1      -3.169  -6.539  -0.271  0.00  0.00    +0.277 C 
ATOM     20  O   UNL     1      -3.327  -5.642   0.831  0.00  0.00    -0.495 OA
ENDBRANCH  13  20
ENDBRANCH   1  16
BRANCH   9  21
ATOM     21  C   UNL     1      -3.604   0.809   0.180  0.00  0.00    +0.018 A 
ATOM     22  C   UNL     1      -4.400  -0.059  -0.573  0.00  0.00    +0.015 A 
ATOM     23  C   UNL     1      -5.773   0.013  -0.479  0.00  0.00    +0.046 A 
ATOM     24  C   UNL     1      -6.366   0.952   0.355  0.00  0.00    +0.120 A 
ATOM     25  C   UNL     1      -5.579   1.820   1.101  0.00  0.00    +0.046 A 
ATOM     26  C   UNL     1      -4.205   1.752   1.018  0.00  0.00    +0.015 A 
BRANCH  24  27
ATOM     27  O   UNL     1      -7.720   1.023   0.440  0.00  0.00    -0.495 OA
ATOM     28  C   UNL     1      -8.469   0.101  -0.354  0.00  0.00    +0.277 C 
ENDBRANCH  24  27
ENDBRANCH   9  21
BRANCH   5  29
ATOM     29  C   UNL     1       3.551   2.163  -0.450  0.00  0.00    +0.184 C 
ATOM     30 CL   UNL     1       4.176   2.649   1.170  0.00  0.00    -0.117 Cl
ENDBRANCH   5  29
TORSDOF 5
