REMARK  Name = ZINC00959830
REMARK  8 active torsions:
REMARK  status: ('A' for Active; 'I' for Inactive)
REMARK    1  A    between atoms: C_1  and  O_2
REMARK    2  A    between atoms: O_2  and  C_3
REMARK    3  A    between atoms: C_6  and  O_36
REMARK    4  A    between atoms: C_7  and  C_9
REMARK    5  A    between atoms: C_16  and  S_27
REMARK    6  A    between atoms: S_27  and  C_28
REMARK    7  A    between atoms: C_28  and  C_29
REMARK    8  A    between atoms: O_36  and  C_37
REMARK                            x       y       z     vdW  Elec       q    Type
REMARK                         _______ _______ _______ _____ _____    ______ ____
ROOT
ATOM      1  C   UNL     1       3.657   2.078  -0.015  0.00  0.00    +0.096 C 
ATOM      2  C   UNL     1       2.349   1.344  -0.013  0.00  0.00    +0.069 A 
ATOM      3  C   UNL     1       1.142   2.051   0.002  0.00  0.00    +0.258 A 
ATOM      4  O   UNL     1       1.136   3.272   0.008  0.00  0.00    -0.267 OA
ATOM      5  N   UNL     1      -0.016   1.358   0.009  0.00  0.00    -0.302 N 
ATOM      6  H   UNL     1      -0.863   1.831   0.016  0.00  0.00    +0.171 HD
ATOM      7  C   UNL     1       0.002  -0.004   0.002  0.00  0.00    +0.171 A 
ATOM      8  N   UNL     1       1.136  -0.674  -0.013  0.00  0.00    -0.208 NA
ATOM      9  C   UNL     1       2.313  -0.040  -0.022  0.00  0.00    +0.135 A 
ATOM     10  N   UNL     1       3.494  -0.755  -0.042  0.00  0.00    -0.302 N 
ATOM     11  C   UNL     1       4.663  -0.162  -0.437  0.00  0.00    +0.017 C 
ATOM     12  C   UNL     1       4.789   1.182  -0.450  0.00  0.00    +0.024 C 
ATOM     13  C   UNL     1       5.984   1.792  -0.871  0.00  0.00    +0.162 C 
ATOM     14  O   UNL     1       6.069   3.004  -0.862  0.00  0.00    -0.292 OA
ATOM     15  C   UNL     1       7.158   0.974  -1.333  0.00  0.00    +0.080 C 
ATOM     16  C   UNL     1       6.647  -0.345  -1.922  0.00  0.00    +0.014 C 
ATOM     17  C   UNL     1       5.805  -1.054  -0.859  0.00  0.00    +0.051 C 
ATOM     18  H   UNL     1       3.496  -1.687   0.226  0.00  0.00    +0.153 HD
ENDROOT
BRANCH   1  23
ATOM     19  C   UNL     1       4.311   2.170   3.705  0.00  0.00    +0.121 A 
ATOM     20  C   UNL     1       4.458   3.531   3.928  0.00  0.00    +0.049 A 
ATOM     21  C   UNL     1       4.346   4.419   2.876  0.00  0.00    +0.049 A 
ATOM     22  C   UNL     1       4.087   3.949   1.597  0.00  0.00    +0.124 A 
ATOM     23  C   UNL     1       3.939   2.588   1.374  0.00  0.00    +0.010 A 
ATOM     24  C   UNL     1       4.046   1.701   2.428  0.00  0.00    +0.053 A 
BRANCH  19  26
ATOM     25  C   UNL     1       4.689   1.849   6.031  0.00  0.00    +0.277 C 
ATOM     26  O   UNL     1       4.421   1.296   4.741  0.00  0.00    -0.495 OA
ENDBRANCH  19  26
BRANCH  22  27
ATOM     27  O   UNL     1       3.977   4.823   0.561  0.00  0.00    -0.495 OA
ATOM     28  C   UNL     1       4.140   6.210   0.863  0.00  0.00    +0.277 C 
ENDBRANCH  22  27
ENDBRANCH   1  23
BRANCH   7  29
ATOM     29  S   UNL     1      -1.522  -0.888   0.014  0.00  0.00    -0.083 S 
BRANCH  29  30
ATOM     30  C   UNL     1      -0.900  -2.587  -0.002  0.00  0.00    +0.114 C 
BRANCH  30  31
ATOM     31  C   UNL     1      -2.062  -3.547   0.005  0.00  0.00    -0.019 A 
ATOM     32  C   UNL     1      -2.578  -3.999   1.206  0.00  0.00    +0.006 A 
ATOM     33  C   UNL     1      -3.646  -4.876   1.213  0.00  0.00    +0.000 A 
ATOM     34  C   UNL     1      -4.193  -5.310   0.019  0.00  0.00    +0.001 A 
ATOM     35  C   UNL     1      -3.675  -4.864  -1.181  0.00  0.00    +0.020 A 
ATOM     36  C   UNL     1      -2.608  -3.982  -1.189  0.00  0.00    +0.045 A 
ATOM     37 CL   UNL     1      -1.956  -3.421  -2.697  0.00  0.00    -0.083 Cl
ENDBRANCH  30  31
ENDBRANCH  29  30
ENDBRANCH   7  29
TORSDOF 6
