REMARK  Name = ZINC15930216
REMARK  6 active torsions:
REMARK  status: ('A' for Active; 'I' for Inactive)
REMARK    1  A    between atoms: C_1  and  N_2
REMARK    2  A    between atoms: C_3  and  S_13
REMARK    3  A    between atoms: N_4  and  C_5
REMARK    4  A    between atoms: S_13  and  C_14
REMARK    5  A    between atoms: N_19  and  C_22
REMARK    6  A    between atoms: C_25  and  C_28
REMARK                            x       y       z     vdW  Elec       q    Type
REMARK                         _______ _______ _______ _____ _____    ______ ____
ROOT
ATOM      1  C   UNL     1      -3.430  -1.281  -0.425  0.00  0.00    +0.149 C 
ATOM      2  C   UNL     1      -4.946  -1.007  -0.499  0.00  0.00    +0.120 C 
ATOM      3  C   UNL     1      -5.410  -1.888  -1.638  0.00  0.00    +0.228 C 
ATOM      4  O   UNL     1      -6.551  -1.977  -2.037  0.00  0.00    -0.275 OA
ATOM      5  N   UNL     1      -4.361  -2.553  -2.137  0.00  0.00    -0.209 N 
ATOM      6  C   UNL     1      -3.194  -2.290  -1.528  0.00  0.00    +0.240 C 
ATOM      7  O   UNL     1      -2.122  -2.779  -1.814  0.00  0.00    -0.274 OA
ENDROOT
BRANCH   5   8
ATOM      8  C   UNL     1      -4.471  -3.450  -3.202  0.00  0.00    +0.044 A 
ATOM      9  C   UNL     1      -4.881  -2.995  -4.451  0.00  0.00    +0.025 A 
ATOM     10  C   UNL     1      -4.991  -3.875  -5.504  0.00  0.00    +0.017 A 
ATOM     11  C   UNL     1      -4.689  -5.228  -5.316  0.00  0.00    +0.063 A 
ATOM     12  C   UNL     1      -4.276  -5.681  -4.059  0.00  0.00    +0.017 A 
ATOM     13  C   UNL     1      -4.163  -4.793  -3.013  0.00  0.00    +0.025 A 
BRANCH  11  14
ATOM     14  C   UNL     1      -4.805  -6.173  -6.440  0.00  0.00    +0.387 C 
ATOM     15  O   UNL     1      -5.167  -5.776  -7.539  0.00  0.00    -0.241 OA
ATOM     16  O   UNL     1      -4.540  -7.356  -6.274  0.00  0.00    -0.241 OA
ENDBRANCH  11  14
ENDBRANCH   5   8
BRANCH   1  17
ATOM     17  S   UNL     1      -2.490   0.239  -0.738  0.00  0.00    -0.077 S 
BRANCH  17  20
ATOM     18  C   UNL     1      -0.115   2.023  -1.161  0.00  0.00    +0.127 C 
ATOM     19  N   UNL     1       0.198   0.670  -0.695  0.00  0.00    -0.327 N 
ATOM     20  C   UNL     1      -0.809  -0.249  -0.529  0.00  0.00    +0.155 C 
ATOM     21  N   UNL     1      -0.520  -1.491  -0.216  0.00  0.00    -0.225 NA
ATOM     22  H   UNL     1       1.116   0.423  -0.502  0.00  0.00    +0.148 HD
BRANCH  21  23
ATOM     23  C   UNL     1       0.785  -1.906  -0.194  0.00  0.00    +0.086 A 
ATOM     24  C   UNL     1       1.628  -1.627  -1.271  0.00  0.00    +0.049 A 
ATOM     25  C   UNL     1       2.943  -2.047  -1.242  0.00  0.00    +0.043 A 
ATOM     26  C   UNL     1       3.426  -2.744  -0.147  0.00  0.00    +0.021 A 
ATOM     27  C   UNL     1       2.596  -3.024   0.924  0.00  0.00    +0.023 A 
ATOM     28  C   UNL     1       1.281  -2.605   0.910  0.00  0.00    +0.066 A 
ATOM     29 CL   UNL     1       0.243  -2.951   2.258  0.00  0.00    -0.081 Cl
ATOM     30 CL   UNL     1       3.993  -1.701  -2.580  0.00  0.00    -0.083 Cl
ENDBRANCH  21  23
ENDBRANCH  17  20
ENDBRANCH   1  17
TORSDOF 5
