REMARK  Name = ZINC12892559
REMARK  9 active torsions:
REMARK  status: ('A' for Active; 'I' for Inactive)
REMARK    1  A    between atoms: C_4  and  C_7
REMARK    2  A    between atoms: C_7  and  C_9
REMARK    3  A    between atoms: C_7  and  O_28
REMARK    4  A    between atoms: C_14  and  C_15
REMARK    5  A    between atoms: C_14  and  N_52
REMARK    6  A    between atoms: C_15  and  C_17
REMARK    7  A    between atoms: C_15  and  O_27
REMARK    8  A    between atoms: C_17  and  O_18
REMARK    9  A    between atoms: O_18  and  C_19
REMARK                            x       y       z     vdW  Elec       q    Type
REMARK                         _______ _______ _______ _____ _____    ______ ____
ROOT
ATOM      1  C   UNL     1       3.078   1.521   1.330  0.00  0.00    +0.019 C 
ATOM      2  C   UNL     1       3.508   2.825   2.008  0.00  0.00    -0.012 C 
ATOM      3  C   UNL     1       4.003   2.520   3.423  0.00  0.00    -0.078 C 
ATOM      4  C   UNL     1       4.731   0.307   2.755  0.00  0.00    -0.078 C 
ATOM      5  C   UNL     1       4.259   0.547   1.319  0.00  0.00    -0.012 C 
ATOM      6  N   UNL     1       5.155   1.597   3.341  0.00  0.00    +0.381 N 
ATOM      7  H   UNL     1       5.875   2.015   2.741  0.00  0.00    -0.082 HD
ENDROOT
BRANCH   1   8
ATOM      8  C   UNL     1       2.640   1.812  -0.107  0.00  0.00    +0.147 C 
BRANCH   8  12
ATOM      9  C   UNL     1      -0.648   4.538  -0.071  0.00  0.00    +0.000 A 
ATOM     10  C   UNL     1      -0.879   3.177  -0.140  0.00  0.00    +0.000 A 
ATOM     11  C   UNL     1       0.185   2.295  -0.146  0.00  0.00    +0.006 A 
ATOM     12  C   UNL     1       1.480   2.774  -0.094  0.00  0.00    -0.019 A 
ATOM     13  C   UNL     1       1.712   4.135  -0.029  0.00  0.00    +0.006 A 
ATOM     14  C   UNL     1       0.647   5.017  -0.018  0.00  0.00    +0.000 A 
ENDBRANCH   8  12
BRANCH   8  15
ATOM     15  O   UNL     1       3.730   2.389  -0.829  0.00  0.00    -0.387 OA
ATOM     16  H   UNL     1       4.053   3.221  -0.455  0.00  0.00    +0.210 HD
ENDBRANCH   8  15
ENDBRANCH   1   8
BRANCH   6  17
ATOM     17  C   UNL     1       5.721   1.376   4.688  0.00  0.00    -0.044 C 
BRANCH  17  18
ATOM     18  C   UNL     1       7.143   0.830   4.537  0.00  0.00    +0.135 C 
BRANCH  18  19
ATOM     19  O   UNL     1       7.953   1.792   3.860  0.00  0.00    -0.390 OA
ATOM     20  H   UNL     1       8.021   2.641   4.318  0.00  0.00    +0.210 HD
ENDBRANCH  18  19
BRANCH  18  21
ATOM     21  C   UNL     1       7.731   0.550   5.921  0.00  0.00    +0.258 C 
BRANCH  21  22
ATOM     22  O   UNL     1       9.012  -0.068   5.778  0.00  0.00    -0.488 OA
BRANCH  22  23
ATOM     23  C   UNL     1       9.675  -0.384   6.921  0.00  0.00    +0.139 A 
ATOM     24  C   UNL     1       9.106  -0.106   8.155  0.00  0.00    +0.048 A 
ATOM     25  C   UNL     1       9.781  -0.428   9.316  0.00  0.00    +0.023 A 
ATOM     26  C   UNL     1      11.027  -1.028   9.249  0.00  0.00    +0.043 A 
ATOM     27  C   UNL     1      11.598  -1.307   8.020  0.00  0.00    +0.043 A 
ATOM     28  C   UNL     1      10.922  -0.992   6.856  0.00  0.00    +0.084 A 
ATOM     29 CL   UNL     1      11.635  -1.349   5.314  0.00  0.00    -0.080 Cl
ATOM     30 CL   UNL     1      11.873  -1.432  10.710  0.00  0.00    -0.083 Cl
ENDBRANCH  22  23
ENDBRANCH  21  22
ENDBRANCH  18  21
ENDBRANCH  17  18
ENDBRANCH   6  17
TORSDOF 9
