REMARK  Name = ZINC14979988
REMARK  9 active torsions:
REMARK  status: ('A' for Active; 'I' for Inactive)
REMARK    1  A    between atoms: C_1  and  C_2
REMARK    2  A    between atoms: C_2  and  N_65
REMARK    3  A    between atoms: C_6  and  C_8
REMARK    4  A    between atoms: C_8  and  N_9
REMARK    5  A    between atoms: C_10  and  C_12
REMARK    6  A    between atoms: C_12  and  C_13
REMARK    7  A    between atoms: C_13  and  C_14
REMARK    8  A    between atoms: C_19  and  C_20
REMARK    9  A    between atoms: C_19  and  N_67
REMARK                            x       y       z     vdW  Elec       q    Type
REMARK                         _______ _______ _______ _____ _____    ______ ____
ROOT
ATOM      1  C   UNL     1       1.177  -4.222  -4.444  0.00  0.00    -0.014 C 
ATOM      2  C   UNL     1       0.203  -3.706  -5.507  0.00  0.00    -0.015 C 
ATOM      3  C   UNL     1       0.624  -4.238  -6.878  0.00  0.00    -0.078 C 
ATOM      4  C   UNL     1       1.581  -6.226  -5.877  0.00  0.00    -0.078 C 
ATOM      5  C   UNL     1       1.190  -5.753  -4.475  0.00  0.00    -0.015 C 
ATOM      6  N   UNL     1       0.592  -5.716  -6.850  0.00  0.00    +0.383 N 
ATOM      7  H   UNL     1      -0.345  -6.024  -6.564  0.00  0.00    -0.081 HD
ENDROOT
BRANCH   1   8
ATOM      8  C   UNL     1       0.727  -3.743  -3.062  0.00  0.00    +0.012 C 
BRANCH   8   9
ATOM      9  C   UNL     1       0.834  -2.218  -2.991  0.00  0.00    +0.096 C 
BRANCH   9  11
ATOM     10  N   UNL     1       0.401  -0.431  -1.337  0.00  0.00    -0.317 N 
ATOM     11  C   UNL     1       0.391  -1.746  -1.631  0.00  0.00    +0.213 C 
ATOM     12  O   UNL     1       0.026  -2.550  -0.799  0.00  0.00    -0.276 OA
ATOM     13  H   UNL     1       0.693   0.212  -2.002  0.00  0.00    +0.149 HD
BRANCH  10  14
ATOM     14  C   UNL     1      -0.030   0.028  -0.015  0.00  0.00    +0.089 C 
BRANCH  14  18
ATOM     15  C   UNL     1       0.488   2.811   1.990  0.00  0.00    -0.078 C 
ATOM     16  C   UNL     1       1.408   3.311   0.848  0.00  0.00    -0.020 C 
ATOM     17  C   UNL     1       1.398   2.096  -0.120  0.00  0.00    -0.016 C 
ATOM     18  C   UNL     1      -0.041   1.558   0.016  0.00  0.00    -0.051 C 
ATOM     19  N   UNL     1      -0.570   2.046   1.300  0.00  0.00    +0.382 N 
ATOM     20  H   UNL     1      -1.374   2.659   1.125  0.00  0.00    -0.081 HD
BRANCH  19  22
ATOM     21  C   UNL     1      -1.452   1.421   3.511  0.00  0.00    -0.017 C 
ATOM     22  C   UNL     1      -1.006   0.902   2.143  0.00  0.00    -0.082 C 
ENDBRANCH  19  22
ENDBRANCH  14  18
ENDBRANCH  10  14
ENDBRANCH   9  11
ENDBRANCH   8   9
ENDBRANCH   1   8
BRANCH   6  23
ATOM     23  C   UNL     1       0.883  -6.253  -8.195  0.00  0.00    -0.022 C 
BRANCH  23  24
ATOM     24  C   UNL     1      -0.256  -5.899  -9.116  0.00  0.00    +0.026 A 
ATOM     25  C   UNL     1      -0.154  -4.761  -9.913  0.00  0.00    +0.022 A 
ATOM     26  C   UNL     1      -1.175  -4.428 -10.758  0.00  0.00    +0.012 A 
ATOM     27  C   UNL     1      -2.313  -5.256 -10.783  0.00  0.00    +0.003 A 
ATOM     28  C   UNL     1      -3.403  -4.974 -11.622  0.00  0.00    +0.010 A 
ATOM     29  C   UNL     1      -4.487  -5.798 -11.619  0.00  0.00    +0.004 A 
ATOM     30  C   UNL     1      -4.530  -6.920 -10.793  0.00  0.00    +0.040 A 
ATOM     31  C   UNL     1      -3.491  -7.224  -9.966  0.00  0.00    +0.149 A 
ATOM     32  C   UNL     1      -2.353  -6.395  -9.942  0.00  0.00    +0.106 A 
ATOM     33  N   UNL     1      -1.317  -6.667  -9.142  0.00  0.00    -0.251 NA
ATOM     34  F   UNL     1      -3.552  -8.315  -9.173  0.00  0.00    -0.203 F 
ENDBRANCH  23  24
ENDBRANCH   6  23
TORSDOF 8
