REMARK  Name = ZINC20867646
REMARK  9 active torsions:
REMARK  status: ('A' for Active; 'I' for Inactive)
REMARK    1  A    between atoms: C_1  and  C_2
REMARK    2  A    between atoms: C_2  and  N_3
REMARK    3  A    between atoms: N_3  and  C_4
REMARK    4  A    between atoms: N_3  and  C_6
REMARK    5  A    between atoms: C_4  and  C_5
REMARK    6  A    between atoms: C_9  and  N_13
REMARK    7  A    between atoms: C_10  and  C_12
REMARK    8  A    between atoms: C_14  and  C_16
REMARK    9  A    between atoms: C_21  and  C_32
REMARK                            x       y       z     vdW  Elec       q    Type
REMARK                         _______ _______ _______ _____ _____    ______ ____
ROOT
ATOM      1  N   UNL     1      -1.561   5.037  -2.506  0.00  0.00    -0.285 N 
ATOM      2  C   UNL     1      -1.508   3.703  -2.319  0.00  0.00    +0.230 C 
ATOM      3  O   UNL     1      -2.193   2.967  -2.997  0.00  0.00    -0.275 OA
ATOM      4  H   UNL     1      -0.872   5.697  -1.959  0.00  0.00    +0.155 HD
ENDROOT
BRANCH   2   5
ATOM      5  C   UNL     1      -0.597   3.126  -1.266  0.00  0.00    +0.169 C 
ATOM      6  C   UNL     1       0.744   2.744  -1.905  0.00  0.00    +0.049 C 
ATOM      7  C   UNL     1       1.545   1.938  -0.873  0.00  0.00    +0.078 C 
ATOM      8  C   UNL     1       0.849   0.581  -0.707  0.00  0.00    +0.176 C 
ATOM      9  N   UNL     1      -0.567   0.778  -0.414  0.00  0.00    -0.278 N 
ATOM     10  C   UNL     1      -1.234   1.905  -0.667  0.00  0.00    +0.228 C 
ATOM     11  O   UNL     1      -2.417   1.945  -0.401  0.00  0.00    -0.275 OA
ATOM     12  O   UNL     1       0.983  -0.136  -1.939  0.00  0.00    -0.468 OA
ATOM     13  C   UNL     1       0.615   0.511  -3.077  0.00  0.00    +0.127 A 
ATOM     14  C   UNL     1       0.498   1.896  -3.126  0.00  0.00    -0.001 A 
ATOM     15  C   UNL     1       0.110   2.506  -4.301  0.00  0.00    +0.007 A 
ATOM     16  C   UNL     1      -0.136   1.755  -5.434  0.00  0.00    +0.001 A 
ATOM     17  C   UNL     1      -0.008   0.379  -5.393  0.00  0.00    +0.004 A 
ATOM     18  C   UNL     1       0.366  -0.243  -4.219  0.00  0.00    +0.046 A 
ATOM     19  C   UNL     1       1.508  -0.199   0.431  0.00  0.00    +0.078 C 
ATOM     20  H   UNL     1      -1.151  -0.034   0.045  0.00  0.00    +0.152 HD
ENDBRANCH   2   5
BRANCH   1  24
ATOM     21  C   UNL     1      -4.338   6.659  -5.162  0.00  0.00    +0.030 A 
ATOM     22  C   UNL     1      -4.662   5.528  -4.424  0.00  0.00    +0.025 A 
ATOM     23  C   UNL     1      -3.740   4.989  -3.549  0.00  0.00    +0.025 A 
ATOM     24  C   UNL     1      -2.494   5.582  -3.399  0.00  0.00    +0.036 A 
ATOM     25  C   UNL     1      -2.170   6.712  -4.137  0.00  0.00    -0.028 A 
ATOM     26  C   UNL     1      -3.089   7.250  -5.016  0.00  0.00    +0.028 A 
ATOM     27  C   UNL     1      -0.815   7.353  -3.979  0.00  0.00    +0.046 C 
BRANCH  21  28
ATOM     28  N   UNL     1      -5.269   7.204  -6.052  0.00  0.00    -0.330 N 
BRANCH  28  30
ATOM     29  C   UNL     1      -7.564   7.201  -5.205  0.00  0.00    +0.024 C 
ATOM     30  C   UNL     1      -6.586   6.581  -6.206  0.00  0.00    +0.102 C 
ENDBRANCH  28  30
BRANCH  28  31
ATOM     31  C   UNL     1      -4.928   8.397  -6.831  0.00  0.00    +0.102 C 
ATOM     32  C   UNL     1      -4.290   7.976  -8.156  0.00  0.00    +0.024 C 
ENDBRANCH  28  31
ENDBRANCH  21  28
ENDBRANCH   1  24
TORSDOF 5
