REMARK  Name = ZINC36202238
REMARK  13 active torsions:
REMARK  status: ('A' for Active; 'I' for Inactive)
REMARK    1  A    between atoms: C_1  and  O_2
REMARK    2  A    between atoms: O_2  and  C_3
REMARK    3  A    between atoms: C_3  and  C_4
REMARK    4  A    between atoms: C_4  and  C_5
REMARK    5  A    between atoms: C_5  and  N_6
REMARK    6  A    between atoms: N_6  and  C_7
REMARK    7  A    between atoms: N_6  and  C_15
REMARK    8  A    between atoms: C_7  and  C_8
REMARK    9  A    between atoms: C_15  and  C_16
REMARK   10  A    between atoms: C_19  and  C_21
REMARK   11  A    between atoms: C_21  and  C_22
REMARK   12  A    between atoms: C_21  and  C_29
REMARK   13  A    between atoms: C_21  and  O_36
REMARK                            x       y       z     vdW  Elec       q    Type
REMARK                         _______ _______ _______ _____ _____    ______ ____
ROOT
ATOM      1  C   UNL     1       2.040  -6.019   1.429  0.00  0.00    +0.089 A 
ATOM      2  C   UNL     1       2.712  -7.057   0.900  0.00  0.00    +0.043 A 
ATOM      3  C   UNL     1       1.955  -8.219   1.178  0.00  0.00    +0.048 A 
ATOM      4  C   UNL     1       0.867  -7.821   1.861  0.00  0.00    +0.146 A 
ATOM      5  O   UNL     1       0.926  -6.488   2.014  0.00  0.00    -0.463 OA
ENDROOT
BRANCH   1   6
ATOM      6  C   UNL     1       2.468  -4.575   1.378  0.00  0.00    -0.003 C 
BRANCH   6   7
ATOM      7  N   UNL     1       2.037  -3.980   0.106  0.00  0.00    +0.387 N 
ATOM      8  H   UNL     1       2.378  -4.541  -0.660  0.00  0.00    -0.081 HD
BRANCH   7   9
ATOM      9  C   UNL     1       0.569  -3.931   0.060  0.00  0.00    -0.076 C 
BRANCH   9  10
ATOM     10  C   UNL     1       0.118  -3.429  -1.312  0.00  0.00    +0.009 C 
BRANCH  10  11
ATOM     11  C   UNL     1      -1.410  -3.378  -1.359  0.00  0.00    +0.157 C 
BRANCH  11  13
ATOM     12  C   UNL     1      -3.251  -2.823  -2.792  0.00  0.00    +0.193 C 
ATOM     13  O   UNL     1      -1.832  -2.909  -2.642  0.00  0.00    -0.383 OA
ENDBRANCH  11  13
ENDBRANCH  10  11
ENDBRANCH   9  10
ENDBRANCH   7   9
BRANCH   7  14
ATOM     14  C   UNL     1       2.576  -2.619  -0.006  0.00  0.00    -0.040 C 
BRANCH  14  15
ATOM     15  C   UNL     1       4.080  -2.678  -0.083  0.00  0.00    -0.029 A 
ATOM     16  C   UNL     1       4.843  -2.326   1.014  0.00  0.00    +0.004 A 
ATOM     17  C   UNL     1       6.222  -2.381   0.944  0.00  0.00    +0.000 A 
ATOM     18  C   UNL     1       6.840  -2.788  -0.223  0.00  0.00    +0.003 A 
ATOM     19  C   UNL     1       6.080  -3.141  -1.322  0.00  0.00    +0.038 A 
ATOM     20  C   UNL     1       4.698  -3.091  -1.251  0.00  0.00    +0.125 A 
ATOM     21  F   UNL     1       3.953  -3.441  -2.323  0.00  0.00    -0.205 F 
ENDBRANCH  14  15
ENDBRANCH   7  14
ENDBRANCH   6   7
ENDBRANCH   1   6
BRANCH   4  22
ATOM     22  C   UNL     1      -0.231  -8.719   2.371  0.00  0.00    +0.174 C 
BRANCH  22  23
ATOM     23  C   UNL     1      -0.826  -8.124   3.621  0.00  0.00    -0.002 A 
ATOM     24  C   UNL     1      -0.715  -8.794   4.825  0.00  0.00    +0.007 A 
ATOM     25  C   UNL     1      -1.260  -8.250   5.973  0.00  0.00    +0.003 A 
ATOM     26  C   UNL     1      -1.917  -7.035   5.918  0.00  0.00    +0.038 A 
ATOM     27  C   UNL     1      -2.029  -6.363   4.713  0.00  0.00    +0.124 A 
ATOM     28  C   UNL     1      -1.477  -6.906   3.565  0.00  0.00    +0.045 A 
ATOM     29  F   UNL     1      -2.671  -5.176   4.657  0.00  0.00    -0.205 F 
ENDBRANCH  22  23
BRANCH  22  30
ATOM     30  C   UNL     1      -1.302  -8.851   1.319  0.00  0.00    -0.002 A 
ATOM     31  C   UNL     1      -1.693  -7.744   0.588  0.00  0.00    +0.007 A 
ATOM     32  C   UNL     1      -2.675  -7.864  -0.377  0.00  0.00    +0.003 A 
ATOM     33  C   UNL     1      -3.267  -9.090  -0.613  0.00  0.00    +0.038 A 
ATOM     34  C   UNL     1      -2.876 -10.199   0.118  0.00  0.00    +0.124 A 
ATOM     35  C   UNL     1      -1.888 -10.079   1.081  0.00  0.00    +0.045 A 
ATOM     36  F   UNL     1      -3.455 -11.398  -0.111  0.00  0.00    -0.205 F 
ENDBRANCH  22  30
BRANCH  22  37
ATOM     37  O   UNL     1       0.308 -10.008   2.667  0.00  0.00    -0.372 OA
ATOM     38  H   UNL     1       1.004  -9.999   3.338  0.00  0.00    +0.212 HD
ENDBRANCH  22  37
ENDBRANCH   4  22
TORSDOF 12
