REMARK  Name = ZINC39877727
REMARK  8 active torsions:
REMARK  status: ('A' for Active; 'I' for Inactive)
REMARK    1  A    between atoms: C_1  and  C_2
REMARK    2  A    between atoms: C_2  and  O_3
REMARK    3  A    between atoms: O_3  and  C_4
REMARK    4  A    between atoms: C_6  and  C_11
REMARK    5  A    between atoms: C_9  and  O_10
REMARK    6  A    between atoms: C_18  and  C_34
REMARK    7  A    between atoms: C_19  and  C_33
REMARK    8  A    between atoms: N_26  and  C_27
REMARK                            x       y       z     vdW  Elec       q    Type
REMARK                         _______ _______ _______ _____ _____    ______ ____
ROOT
ATOM      1  C   UNL     1      -0.229  -4.969   0.477  0.00  0.00    +0.150 C 
ATOM      2  C   UNL     1       0.856  -5.514   1.347  0.00  0.00    +0.072 A 
ATOM      3  C   UNL     1       1.813  -4.843   2.232  0.00  0.00    +0.199 A 
ATOM      4  O   UNL     1       1.741  -3.662   2.522  0.00  0.00    -0.287 OA
ATOM      5  C   UNL     1       2.881  -5.741   2.742  0.00  0.00    +0.065 A 
ATOM      6  C   UNL     1       3.975  -5.217   3.430  0.00  0.00    +0.019 A 
ATOM      7  C   UNL     1       4.952  -6.056   3.889  0.00  0.00    -0.047 A 
ATOM      8  C   UNL     1       4.858  -7.424   3.671  0.00  0.00    -0.044 A 
ATOM      9  C   UNL     1       3.784  -7.958   2.994  0.00  0.00    +0.050 A 
ATOM     10  C   UNL     1       2.772  -7.123   2.520  0.00  0.00    +0.140 A 
ATOM     11  O   UNL     1       1.721  -7.670   1.867  0.00  0.00    -0.450 OA
ATOM     12  C   UNL     1       0.859  -6.873   1.206  0.00  0.00    +0.199 A 
ATOM     13  C   UNL     1      -0.200  -7.241   0.252  0.00  0.00    +0.287 C 
ATOM     14  O   UNL     1      -0.459  -8.376  -0.097  0.00  0.00    -0.266 OA
ATOM     15  N   UNL     1      -0.844  -6.134  -0.179  0.00  0.00    -0.253 N 
ATOM     16  C   UNL     1       5.945  -8.335   4.180  0.00  0.00    +0.044 C 
ATOM     17  C   UNL     1       6.136  -5.495   4.633  0.00  0.00    +0.044 C 
ENDROOT
BRANCH   1  20
ATOM     18  C   UNL     1       0.777  -1.811  -1.336  0.00  0.00    +0.162 A 
ATOM     19  C   UNL     1       0.243  -2.669  -0.388  0.00  0.00    +0.055 A 
ATOM     20  C   UNL     1       0.352  -4.037  -0.555  0.00  0.00    -0.018 A 
ATOM     21  C   UNL     1       0.992  -4.552  -1.667  0.00  0.00    +0.009 A 
ATOM     22  C   UNL     1       1.526  -3.702  -2.616  0.00  0.00    +0.049 A 
ATOM     23  C   UNL     1       1.416  -2.330  -2.458  0.00  0.00    +0.158 A 
BRANCH  23  24
ATOM     24  O   UNL     1       1.936  -1.492  -3.394  0.00  0.00    -0.503 OA
ATOM     25  H   UNL     1       2.856  -1.241  -3.231  0.00  0.00    +0.292 HD
ENDBRANCH  23  24
BRANCH  18  26
ATOM     26  O   UNL     1       0.671  -0.465  -1.174  0.00  0.00    -0.489 OA
BRANCH  26  28
ATOM     27  C   UNL     1      -0.019   1.526   0.010  0.00  0.00    +0.048 C 
ATOM     28  C   UNL     1       0.002  -0.004   0.002  0.00  0.00    +0.226 C 
ENDBRANCH  26  28
ENDBRANCH  18  26
ENDBRANCH   1  20
BRANCH  15  29
ATOM     29  C   UNL     1      -1.905  -6.101  -1.087  0.00  0.00    +0.038 A 
ATOM     30  C   UNL     1      -2.474  -4.886  -1.448  0.00  0.00    +0.023 A 
ATOM     31  C   UNL     1      -3.523  -4.856  -2.346  0.00  0.00    +0.002 A 
ATOM     32  C   UNL     1      -4.008  -6.034  -2.884  0.00  0.00    +0.000 A 
ATOM     33  C   UNL     1      -3.444  -7.245  -2.527  0.00  0.00    +0.002 A 
ATOM     34  C   UNL     1      -2.391  -7.281  -1.634  0.00  0.00    +0.023 A 
ENDBRANCH  15  29
TORSDOF 5
