REMARK  Name = ZINC02314680
REMARK  10 active torsions:
REMARK  status: ('A' for Active; 'I' for Inactive)
REMARK    1  A    between atoms: C_1  and  C_2
REMARK    2  A    between atoms: C_2  and  C_3
REMARK    3  A    between atoms: C_3  and  O_4
REMARK    4  A    between atoms: O_4  and  C_5
REMARK    5  A    between atoms: C_8  and  C_13
REMARK    6  A    between atoms: C_10  and  O_11
REMARK    7  A    between atoms: O_11  and  C_12
REMARK    8  A    between atoms: C_20  and  C_39
REMARK    9  A    between atoms: C_20  and  C_40
REMARK   10  A    between atoms: C_31  and  C_33
REMARK                            x       y       z     vdW  Elec       q    Type
REMARK                         _______ _______ _______ _____ _____    ______ ____
ROOT
ATOM      1  C   UNL     1       1.517   0.275   6.128  0.00  0.00    +0.128 C 
ATOM      2  C   UNL     1       0.985  -1.157   6.194  0.00  0.00    +0.124 C 
ATOM      3  C   UNL     1      -0.500  -1.131   6.436  0.00  0.00    +0.145 C 
ATOM      4  O   UNL     1      -0.997  -0.255   7.102  0.00  0.00    -0.297 OA
ATOM      5  C   UNL     1      -1.361  -2.218   5.832  0.00  0.00    +0.085 C 
ATOM      6  C   UNL     1      -1.062  -2.255   4.328  0.00  0.00    -0.008 C 
ATOM      7  C   UNL     1       0.417  -2.379   4.115  0.00  0.00    -0.001 C 
ATOM      8  C   UNL     1       1.322  -1.895   4.934  0.00  0.00    +0.017 C 
ATOM      9  N   UNL     1       2.668  -2.085   4.596  0.00  0.00    -0.316 N 
ATOM     10  C   UNL     1       3.367  -1.037   3.990  0.00  0.00    +0.053 A 
ATOM     11  C   UNL     1       3.880  -1.149   2.711  0.00  0.00    +0.025 A 
ATOM     12  C   UNL     1       4.577  -0.091   2.155  0.00  0.00    +0.002 A 
ATOM     13  C   UNL     1       4.765   1.075   2.875  0.00  0.00    +0.002 A 
ATOM     14  C   UNL     1       4.251   1.198   4.153  0.00  0.00    +0.025 A 
ATOM     15  C   UNL     1       3.545   0.150   4.716  0.00  0.00    +0.058 A 
ATOM     16  N   UNL     1       2.977   0.256   5.991  0.00  0.00    -0.257 N 
ATOM     17  C   UNL     1       3.764   0.341   7.082  0.00  0.00    +0.251 C 
ATOM     18  O   UNL     1       3.266   0.360   8.191  0.00  0.00    -0.270 OA
ATOM     19  C   UNL     1      -1.771  -3.454   3.696  0.00  0.00    +0.016 C 
ATOM     20  C   UNL     1      -1.564  -0.964   3.677  0.00  0.00    +0.016 C 
ATOM     21  H   UNL     1       3.107  -2.930   4.780  0.00  0.00    +0.152 HD
ENDROOT
BRANCH   1  25
ATOM     22  C   UNL     1      -0.198   2.272   2.757  0.00  0.00    +0.162 A 
ATOM     23  C   UNL     1       0.494   1.084   2.584  0.00  0.00    +0.050 A 
ATOM     24  C   UNL     1       1.053   0.444   3.675  0.00  0.00    +0.009 A 
ATOM     25  C   UNL     1       0.912   0.980   4.941  0.00  0.00    -0.022 A 
ATOM     26  C   UNL     1       0.217   2.162   5.122  0.00  0.00    +0.055 A 
ATOM     27  C   UNL     1      -0.340   2.811   4.032  0.00  0.00    +0.162 A 
BRANCH  27  28
ATOM     28  O   UNL     1      -1.023   3.974   4.208  0.00  0.00    -0.491 OA
ATOM     29  C   UNL     1      -1.128   4.469   5.544  0.00  0.00    +0.277 C 
ENDBRANCH  27  28
BRANCH  22  30
ATOM     30  O   UNL     1      -0.743   2.905   1.685  0.00  0.00    -0.488 OA
BRANCH  30  31
ATOM     31  C   UNL     1      -0.558   2.293   0.407  0.00  0.00    +0.229 C 
BRANCH  31  33
ATOM     32  C   UNL     1      -1.038   2.489  -2.038  0.00  0.00    +0.007 C 
ATOM     33  C   UNL     1      -1.236   3.144  -0.669  0.00  0.00    +0.038 C 
ENDBRANCH  31  33
ENDBRANCH  30  31
ENDBRANCH  22  30
ENDBRANCH   1  25
BRANCH  17  34
ATOM     34  C   UNL     1       5.233   0.412   6.930  0.00  0.00    +0.037 A 
ATOM     35  C   UNL     1       5.872  -0.342   5.944  0.00  0.00    +0.013 A 
ATOM     36  C   UNL     1       7.243  -0.267   5.804  0.00  0.00    +0.001 A 
ATOM     37  C   UNL     1       7.984   0.543   6.645  0.00  0.00    +0.000 A 
ATOM     38  C   UNL     1       7.357   1.288   7.628  0.00  0.00    +0.001 A 
ATOM     39  C   UNL     1       5.987   1.227   7.775  0.00  0.00    +0.013 A 
ENDBRANCH  17  34
TORSDOF 6
