REMARK  Name = ZINC35957618
REMARK  7 active torsions:
REMARK  status: ('A' for Active; 'I' for Inactive)
REMARK    1  A    between atoms: C_1  and  C_2
REMARK    2  A    between atoms: C_2  and  C_3
REMARK    3  A    between atoms: C_3  and  N_4
REMARK    4  A    between atoms: C_16  and  N_19
REMARK    5  A    between atoms: C_20  and  C_22
REMARK    6  A    between atoms: C_22  and  C_23
REMARK    7  A    between atoms: C_22  and  C_29
REMARK                            x       y       z     vdW  Elec       q    Type
REMARK                         _______ _______ _______ _____ _____    ______ ____
ROOT
ATOM      1  N   UNL     1      -0.436  -5.694  -2.900  0.00  0.00    -0.313 N 
ATOM      2  C   UNL     1       0.347  -6.354  -1.967  0.00  0.00    +0.068 A 
ATOM      3  C   UNL     1       1.411  -7.238  -2.058  0.00  0.00    +0.028 A 
ATOM      4  C   UNL     1       1.992  -7.734  -0.909  0.00  0.00    +0.002 A 
ATOM      5  C   UNL     1       1.519  -7.353   0.338  0.00  0.00    +0.002 A 
ATOM      6  C   UNL     1       0.463  -6.476   0.447  0.00  0.00    +0.028 A 
ATOM      7  C   UNL     1      -0.136  -5.965  -0.707  0.00  0.00    +0.065 A 
ATOM      8  N   UNL     1      -1.167  -5.105  -0.922  0.00  0.00    -0.327 N 
ATOM      9  C   UNL     1      -1.341  -4.940  -2.209  0.00  0.00    +0.177 A 
ATOM     10  N   UNL     1      -2.298  -4.129  -2.782  0.00  0.00    -0.302 N 
ATOM     11  C   UNL     1      -1.975  -2.749  -3.170  0.00  0.00    +0.109 C 
ATOM     12  C   UNL     1      -2.991  -1.804  -2.522  0.00  0.00    +0.041 C 
ATOM     13  C   UNL     1      -4.407  -2.247  -2.897  0.00  0.00    +0.076 C 
ATOM     14  C   UNL     1      -4.657  -3.661  -2.369  0.00  0.00    +0.041 C 
ATOM     15  C   UNL     1      -3.659  -4.630  -3.021  0.00  0.00    +0.109 C 
ATOM     16  H   UNL     1      -1.691  -4.676  -0.227  0.00  0.00    +0.169 HD
ENDROOT
BRANCH  13  17
ATOM     17  N   UNL     1      -5.380  -1.326  -2.306  0.00  0.00    -0.312 N 
ATOM     18  C   UNL     1      -6.598  -1.181  -2.866  0.00  0.00    +0.225 C 
ATOM     19  O   UNL     1      -6.888  -1.814  -3.859  0.00  0.00    -0.275 OA
ATOM     20  H   UNL     1      -5.148  -0.819  -1.512  0.00  0.00    +0.149 HD
BRANCH  18  21
ATOM     21  C   UNL     1      -7.599  -0.233  -2.257  0.00  0.00    +0.135 C 
BRANCH  21  22
ATOM     22  C   UNL     1      -8.870  -0.257  -3.067  0.00  0.00    -0.031 A 
ATOM     23  C   UNL     1      -9.389   0.919  -3.573  0.00  0.00    +0.005 A 
ATOM     24  C   UNL     1     -10.555   0.897  -4.315  0.00  0.00    +0.000 A 
ATOM     25  C   UNL     1     -11.201  -0.302  -4.552  0.00  0.00    +0.000 A 
ATOM     26  C   UNL     1     -10.681  -1.479  -4.047  0.00  0.00    +0.000 A 
ATOM     27  C   UNL     1      -9.513  -1.457  -3.308  0.00  0.00    +0.005 A 
ENDBRANCH  21  22
BRANCH  21  28
ATOM     28  C   UNL     1      -7.896  -0.657  -0.842  0.00  0.00    -0.031 A 
ATOM     29  C   UNL     1      -8.244  -1.967  -0.572  0.00  0.00    +0.005 A 
ATOM     30  C   UNL     1      -8.517  -2.356   0.727  0.00  0.00    +0.000 A 
ATOM     31  C   UNL     1      -8.442  -1.434   1.754  0.00  0.00    +0.000 A 
ATOM     32  C   UNL     1      -8.093  -0.124   1.484  0.00  0.00    +0.000 A 
ATOM     33  C   UNL     1      -7.816   0.263   0.186  0.00  0.00    +0.005 A 
ENDBRANCH  21  28
ENDBRANCH  18  21
ENDBRANCH  13  17
BRANCH   1  34
ATOM     34  C   UNL     1      -0.312  -5.783  -4.357  0.00  0.00    +0.125 C 
BRANCH  34  36
ATOM     35  C   UNL     1       0.715  -4.744  -6.385  0.00  0.00    +0.005 C 
ATOM     36  C   UNL     1       0.585  -4.651  -4.863  0.00  0.00    +0.018 C 
ENDBRANCH  34  36
ENDBRANCH   1  34
TORSDOF 6
