REMARK  Name = ZINC31450416
REMARK  6 active torsions:
REMARK  status: ('A' for Active; 'I' for Inactive)
REMARK    1  A    between atoms: C_8  and  C_10
REMARK    2  A    between atoms: C_10  and  S_11
REMARK    3  A    between atoms: S_11  and  C_12
REMARK    4  A    between atoms: C_12  and  C_13
REMARK    5  A    between atoms: N_18  and  S_21
REMARK    6  A    between atoms: S_21  and  C_24
REMARK                            x       y       z     vdW  Elec       q    Type
REMARK                         _______ _______ _______ _____ _____    ______ ____
ROOT
ATOM      1  C   UNL     1      -1.121   0.694   2.155  0.00  0.00    +0.225 C 
ATOM      2  O   UNL     1      -0.922  -0.494   2.014  0.00  0.00    -0.275 OA
ATOM      3  N   UNL     1      -0.707   1.563   1.212  0.00  0.00    -0.298 N 
ATOM      4  C   UNL     1      -0.013   1.086   0.008  0.00  0.00    +0.125 C 
ATOM      5  C   UNL     1      -0.761   1.597  -1.229  0.00  0.00    +0.128 C 
ATOM      6  N   UNL     1      -0.997   3.039  -1.073  0.00  0.00    -0.174 NA
ATOM      7  C   UNL     1      -1.695   3.517   0.130  0.00  0.00    +0.128 C 
ATOM      8  C   UNL     1      -0.947   3.005   1.367  0.00  0.00    +0.125 C 
ENDROOT
BRANCH   6   9
ATOM      9  S   UNL     1      -0.485   4.108  -2.230  0.00  0.00    +0.061 S 
ATOM     10  O   UNL     1      -0.336   5.365  -1.585  0.00  0.00    -0.153 OA
ATOM     11  O   UNL     1       0.582   3.475  -2.922  0.00  0.00    -0.153 OA
BRANCH   9  12
ATOM     12  C   UNL     1      -1.800   4.289  -3.389  0.00  0.00    +0.108 A 
ATOM     13  C   UNL     1      -1.870   3.455  -4.489  0.00  0.00    +0.031 A 
ATOM     14  C   UNL     1      -2.904   3.591  -5.397  0.00  0.00    +0.043 A 
ATOM     15  C   UNL     1      -3.863   4.571  -5.211  0.00  0.00    +0.159 A 
ATOM     16  C   UNL     1      -3.790   5.411  -4.110  0.00  0.00    +0.160 A 
ATOM     17  C   UNL     1      -2.757   5.268  -3.200  0.00  0.00    +0.069 A 
ATOM     18  F   UNL     1      -4.726   6.368  -3.926  0.00  0.00    -0.202 F 
ATOM     19  F   UNL     1      -4.871   4.709  -6.100  0.00  0.00    -0.202 F 
ENDBRANCH   9  12
ENDBRANCH   6   9
BRANCH   1  20
ATOM     20  C   UNL     1      -1.832   1.198   3.384  0.00  0.00    +0.165 C 
BRANCH  20  21
ATOM     21  S   UNL     1      -2.259  -0.204   4.454  0.00  0.00    -0.145 S 
BRANCH  21  22
ATOM     22  C   UNL     1      -3.096   0.562   5.869  0.00  0.00    +0.132 C 
BRANCH  22  30
ATOM     23  C   UNL     1      -3.371  -3.533  10.478  0.00  0.00    +0.002 A 
ATOM     24  C   UNL     1      -4.648  -3.949  10.126  0.00  0.00    +0.001 A 
ATOM     25  C   UNL     1      -5.274  -3.370   9.038  0.00  0.00    +0.017 A 
ATOM     26  C   UNL     1      -4.621  -2.394   8.325  0.00  0.00    +0.039 A 
ATOM     27  C   UNL     1      -3.321  -1.951   8.661  0.00  0.00    +0.079 A 
ATOM     28  C   UNL     1      -2.716  -2.567   9.779  0.00  0.00    +0.029 A 
ATOM     29  N   UNL     1      -2.833  -0.987   7.853  0.00  0.00    -0.243 NA
ATOM     30  C   UNL     1      -3.509  -0.507   6.847  0.00  0.00    +0.089 A 
ATOM     31  S   UNL     1      -5.002  -1.390   6.911  0.00  0.00    -0.071 S 
ENDBRANCH  22  30
ENDBRANCH  21  22
ENDBRANCH  20  21
ENDBRANCH   1  20
TORSDOF 6
