REMARK  Name = ZINC11073296
REMARK  6 active torsions:
REMARK  status: ('A' for Active; 'I' for Inactive)
REMARK    1  A    between atoms: C_1  and  C_2
REMARK    2  A    between atoms: C_5  and  C_7
REMARK    3  A    between atoms: N_14  and  C_17
REMARK    4  A    between atoms: C_17  and  C_18
REMARK    5  A    between atoms: N_20  and  N_21
REMARK    6  A    between atoms: C_27  and  C_30
REMARK                            x       y       z     vdW  Elec       q    Type
REMARK                         _______ _______ _______ _____ _____    ______ ____
ROOT
ATOM      1  C   UNL     1      -2.866   0.677   1.440  0.00  0.00    +0.250 C 
ATOM      2  O   UNL     1      -2.193   1.090   2.361  0.00  0.00    -0.272 OA
ATOM      3  N   UNL     1      -3.989  -0.026   1.688  0.00  0.00    -0.222 N 
ATOM      4  H   UNL     1      -4.527  -0.356   0.952  0.00  0.00    +0.174 HD
ENDROOT
BRANCH   3   5
ATOM      5  N   UNL     1      -4.378  -0.281   3.010  0.00  0.00    -0.137 N 
ATOM      6  C   UNL     1      -5.392   0.352   3.636  0.00  0.00    +0.263 C 
ATOM      7  O   UNL     1      -6.110   1.216   3.182  0.00  0.00    -0.271 OA
ATOM      8  C   UNL     1      -5.442  -0.243   5.025  0.00  0.00    +0.114 C 
ATOM      9  C   UNL     1      -6.785  -0.923   5.263  0.00  0.00    +0.035 C 
ATOM     10  C   UNL     1      -6.806  -1.544   6.663  0.00  0.00    +0.006 C 
ATOM     11  C   UNL     1      -6.576  -0.449   7.707  0.00  0.00    -0.014 C 
ATOM     12  C   UNL     1      -5.214   0.206   7.470  0.00  0.00    +0.006 C 
ATOM     13  C   UNL     1      -5.188   0.833   6.074  0.00  0.00    +0.035 C 
ATOM     14  C   UNL     1      -6.609  -1.066   9.107  0.00  0.00    +0.007 C 
ATOM     15  N   UNL     1      -4.356  -1.232   5.028  0.00  0.00    -0.284 N 
ATOM     16  C   UNL     1      -3.795  -1.186   3.805  0.00  0.00    +0.326 C 
ATOM     17  O   UNL     1      -2.862  -1.885   3.462  0.00  0.00    -0.251 OA
ATOM     18  H   UNL     1      -4.098  -1.808   5.764  0.00  0.00    +0.151 HD
ENDBRANCH   3   5
BRANCH   1  19
ATOM     19  C   UNL     1      -2.446   0.951   0.019  0.00  0.00    +0.223 C 
BRANCH  19  27
ATOM     20  C   UNL     1       0.145   5.268   0.027  0.00  0.00    +0.010 A 
ATOM     21  C   UNL     1       1.411   5.756   0.017  0.00  0.00    +0.057 A 
ATOM     22  S   UNL     1       2.420   4.286   0.001  0.00  0.00    -0.076 S 
ATOM     23  C   UNL     1       1.134   3.064   0.007  0.00  0.00    +0.116 A 
ATOM     24  C   UNL     1      -0.048   3.822   0.022  0.00  0.00    +0.080 A 
ATOM     25  C   UNL     1      -1.266   3.071   0.030  0.00  0.00    +0.263 A 
ATOM     26  O   UNL     1      -2.344   3.641   0.042  0.00  0.00    -0.267 OA
ATOM     27  N   UNL     1      -1.204   1.727   0.017  0.00  0.00    -0.290 N 
ATOM     28  C   UNL     1      -0.013   1.076   0.008  0.00  0.00    +0.203 A 
ATOM     29  N   UNL     1       1.116   1.733   0.001  0.00  0.00    -0.230 NA
BRANCH  20  34
ATOM     30  C   UNL     1      -4.613   8.208  -0.667  0.00  0.00    +0.051 C 
ATOM     31  C   UNL     1      -3.291   7.592  -0.286  0.00  0.00    -0.013 A 
ATOM     32  C   UNL     1      -2.427   7.965   0.691  0.00  0.00    +0.011 A 
ATOM     33  C   UNL     1      -1.264   7.247   0.869  0.00  0.00    +0.016 A 
ATOM     34  C   UNL     1      -1.015   6.183   0.043  0.00  0.00    +0.021 A 
ATOM     35  S   UNL     1      -2.461   6.185  -1.004  0.00  0.00    -0.093 S 
ENDBRANCH  20  34
ENDBRANCH  19  27
ENDBRANCH   1  19
TORSDOF 4
