REMARK  Name = ZINC37354384
REMARK  6 active torsions:
REMARK  status: ('A' for Active; 'I' for Inactive)
REMARK    1  A    between atoms: C_1  and  C_2
REMARK    2  A    between atoms: C_7  and  S_10
REMARK    3  A    between atoms: S_10  and  C_11
REMARK    4  A    between atoms: C_11  and  C_13
REMARK    5  A    between atoms: C_11  and  C_14
REMARK    6  A    between atoms: C_14  and  C_16
REMARK                            x       y       z     vdW  Elec       q    Type
REMARK                         _______ _______ _______ _____ _____    ______ ____
ROOT
ATOM      1  C   UNL     1       1.957   2.127  -4.409  0.00  0.00    +0.122 C 
ATOM      2  C   UNL     1       2.037   0.631  -4.096  0.00  0.00    +0.028 C 
ENDROOT
BRANCH   1   3
ATOM      3  C   UNL     1       2.893   2.454  -5.543  0.00  0.00    +0.177 C 
ATOM      4  O   UNL     1       2.477   2.490  -6.682  0.00  0.00    -0.291 OA
BRANCH   3   5
ATOM      5  C   UNL     1       4.311   2.731  -5.269  0.00  0.00    +0.037 A 
ATOM      6  C   UNL     1       4.796   2.686  -3.957  0.00  0.00    +0.014 A 
ATOM      7  C   UNL     1       6.125   2.946  -3.708  0.00  0.00    +0.021 A 
ATOM      8  C   UNL     1       6.983   3.252  -4.753  0.00  0.00    +0.042 A 
ATOM      9  C   UNL     1       6.512   3.299  -6.055  0.00  0.00    +0.040 A 
ATOM     10  C   UNL     1       5.184   3.035  -6.321  0.00  0.00    +0.053 A 
ATOM     11 CL   UNL     1       4.596   3.088  -7.954  0.00  0.00    -0.083 Cl
ATOM     12 CL   UNL     1       8.657   3.579  -4.429  0.00  0.00    -0.083 Cl
ENDBRANCH   3   5
ENDBRANCH   1   3
BRANCH   1  13
ATOM     13  S   UNL     1       0.259   2.556  -4.883  0.00  0.00    -0.077 S 
BRANCH  13  20
ATOM     14  C   UNL     1      -0.013   1.086   0.008  0.00  0.00    +0.066 C 
ATOM     15  C   UNL     1      -0.742   1.585  -1.213  0.00  0.00    +0.046 A 
ATOM     16  C   UNL     1      -2.090   1.794  -1.164  0.00  0.00    +0.093 A 
ATOM     17  C   UNL     1      -2.748   2.260  -2.315  0.00  0.00    +0.252 A 
ATOM     18  O   UNL     1      -3.952   2.457  -2.306  0.00  0.00    -0.268 OA
ATOM     19  N   UNL     1      -2.023   2.485  -3.431  0.00  0.00    -0.302 N 
ATOM     20  C   UNL     1      -0.680   2.259  -3.422  0.00  0.00    +0.170 A 
ATOM     21  N   UNL     1      -0.069   1.827  -2.335  0.00  0.00    -0.228 NA
ATOM     22  H   UNL     1      -2.457   2.806  -4.237  0.00  0.00    +0.171 HD
ENDBRANCH  13  20
ENDBRANCH   1  13
TORSDOF 4
