REMARK  Name = ZINC24630498
REMARK  5 active torsions:
REMARK  status: ('A' for Active; 'I' for Inactive)
REMARK    1  A    between atoms: C_1  and  C_2
REMARK    2  A    between atoms: C_2  and  C_4
REMARK    3  A    between atoms: C_2  and  N_12
REMARK    4  A    between atoms: C_13  and  C_15
REMARK    5  A    between atoms: N_21  and  C_22
REMARK                            x       y       z     vdW  Elec       q    Type
REMARK                         _______ _______ _______ _____ _____    ______ ____
ROOT
ATOM      1  N   UNL     1      -0.558   3.058   0.832  0.00  0.00    -0.304 N 
ATOM      2  C   UNL     1       0.442   3.730   1.437  0.00  0.00    +0.263 C 
ATOM      3  O   UNL     1       1.384   3.122   1.911  0.00  0.00    -0.269 OA
ATOM      4  H   UNL     1      -1.448   3.599   0.477  0.00  0.00    +0.150 HD
ENDROOT
BRANCH   2   5
ATOM      5  C   UNL     1       0.394   5.193   1.525  0.00  0.00    +0.127 A 
ATOM      6  C   UNL     1      -0.624   5.988   1.124  0.00  0.00    +0.116 A 
ATOM      7  N   UNL     1      -0.271   7.285   1.384  0.00  0.00    -0.339 N 
ATOM      8  H   UNL     1      -0.965   8.103   1.139  0.00  0.00    +0.167 HD
ATOM      9  C   UNL     1       0.958   7.297   1.933  0.00  0.00    +0.163 A 
ATOM     10  S   UNL     1       1.821   8.693   2.422  0.00  0.00    -0.013 S 
ATOM     11  N   UNL     1       1.395   6.027   2.034  0.00  0.00    -0.284 N 
BRANCH  11  12
ATOM     12  C   UNL     1       2.629   5.615   2.554  0.00  0.00    +0.049 A 
ATOM     13  C   UNL     1       2.680   4.912   3.750  0.00  0.00    +0.029 A 
ATOM     14  C   UNL     1       3.897   4.502   4.258  0.00  0.00    +0.040 A 
ATOM     15  C   UNL     1       5.067   4.803   3.582  0.00  0.00    +0.124 A 
ATOM     16  C   UNL     1       5.019   5.509   2.392  0.00  0.00    +0.040 A 
ATOM     17  C   UNL     1       3.804   5.916   1.877  0.00  0.00    +0.029 A 
ATOM     18  F   UNL     1       6.257   4.406   4.084  0.00  0.00    -0.205 F 
ENDBRANCH  11  12
ENDBRANCH   2   5
BRANCH   1  20
ATOM     19  C   UNL     1       0.321   1.311  -0.636  0.00  0.00    +0.033 C 
ATOM     20  C   UNL     1      -0.459   1.609   0.646  0.00  0.00    +0.101 C 
BRANCH  20  21
ATOM     21  C   UNL     1      -1.842   1.020   0.541  0.00  0.00    -0.025 A 
ATOM     22  C   UNL     1      -2.825   1.688  -0.165  0.00  0.00    +0.008 A 
ATOM     23  C   UNL     1      -4.093   1.148  -0.267  0.00  0.00    +0.041 A 
ATOM     24  C   UNL     1      -4.383  -0.058   0.347  0.00  0.00    +0.158 A 
ATOM     25  C   UNL     1      -3.399  -0.726   1.060  0.00  0.00    +0.159 A 
ATOM     26  C   UNL     1      -2.128  -0.185   1.155  0.00  0.00    +0.046 A 
ATOM     27  F   UNL     1      -3.679  -1.903   1.660  0.00  0.00    -0.202 F 
ATOM     28  F   UNL     1      -5.624  -0.584   0.253  0.00  0.00    -0.202 F 
ENDBRANCH  20  21
ENDBRANCH   1  20
TORSDOF 4
