REMARK  Name = ZINC47146741
REMARK  4 active torsions:
REMARK  status: ('A' for Active; 'I' for Inactive)
REMARK    1  A    between atoms: C_4  and  N_7
REMARK    2  A    between atoms: C_12  and  C_26
REMARK    3  A    between atoms: C_30  and  O_32
REMARK    4  A    between atoms: O_32  and  C_33
REMARK                            x       y       z     vdW  Elec       q    Type
REMARK                         _______ _______ _______ _____ _____    ______ ____
ROOT
ATOM      1  N   UNL     1       3.500  -0.667  -0.066  0.00  0.00    -0.209 N 
ATOM      2  C   UNL     1       3.657  -2.017  -0.055  0.00  0.00    +0.232 C 
ATOM      3  O   UNL     1       2.800  -2.852  -0.247  0.00  0.00    -0.274 OA
ATOM      4  C   UNL     1       5.103  -2.263   0.241  0.00  0.00    +0.110 C 
ATOM      5  C   UNL     1       5.782  -3.470  -0.356  0.00  0.00    +0.072 C 
ATOM      6  C   UNL     1       7.240  -3.424   0.006  0.00  0.00    +0.033 A 
ATOM      7  C   UNL     1       7.995  -2.375   0.399  0.00  0.00    +0.088 A 
ATOM      8  N   UNL     1       9.306  -2.674   0.675  0.00  0.00    -0.311 N 
ATOM      9  H   UNL     1       9.910  -1.976   0.975  0.00  0.00    +0.170 HD
ATOM     10  C   UNL     1       9.753  -3.936   0.532  0.00  0.00    +0.289 A 
ATOM     11  O   UNL     1      10.876  -4.367   0.730  0.00  0.00    -0.260 OA
ATOM     12  S   UNL     1       8.390  -4.775   0.015  0.00  0.00    -0.030 S 
ATOM     13  S   UNL     1       7.300  -0.733   0.520  0.00  0.00    -0.093 S 
ATOM     14  C   UNL     1       5.744  -0.991  -0.392  0.00  0.00    +0.152 C 
ATOM     15  C   UNL     1       4.673   0.017  -0.085  0.00  0.00    +0.240 C 
ATOM     16  O   UNL     1       4.826   1.204   0.110  0.00  0.00    -0.274 OA
ENDROOT
BRANCH   1  20
ATOM     17  C   UNL     1      -0.230   1.196  -0.064  0.00  0.00    +0.000 A 
ATOM     18  C   UNL     1       0.923   1.959  -0.082  0.00  0.00    +0.002 A 
ATOM     19  C   UNL     1       2.160   1.345  -0.083  0.00  0.00    +0.024 A 
ATOM     20  C   UNL     1       2.245  -0.041  -0.065  0.00  0.00    +0.044 A 
ATOM     21  C   UNL     1       1.087  -0.805  -0.047  0.00  0.00    +0.024 A 
ATOM     22  C   UNL     1      -0.148  -0.185  -0.046  0.00  0.00    +0.002 A 
ENDBRANCH   1  20
BRANCH   5  23
ATOM     23  C   UNL     1       5.627  -3.449  -1.854  0.00  0.00    -0.035 A 
ATOM     24  C   UNL     1       4.566  -4.109  -2.448  0.00  0.00    +0.004 A 
ATOM     25  C   UNL     1       4.420  -4.091  -3.823  0.00  0.00    +0.004 A 
ATOM     26  C   UNL     1       5.335  -3.415  -4.607  0.00  0.00    +0.046 A 
ATOM     27  C   UNL     1       6.400  -2.753  -4.014  0.00  0.00    +0.129 A 
ATOM     28  C   UNL     1       6.541  -2.767  -2.633  0.00  0.00    +0.050 A 
BRANCH  27  29
ATOM     29  O   UNL     1       7.301  -2.087  -4.783  0.00  0.00    -0.456 OA
BRANCH  29  30
ATOM     30  C   UNL     1       8.517  -2.661  -4.983  0.00  0.00    +0.128 A 
ATOM     31  C   UNL     1       8.764  -3.944  -4.516  0.00  0.00    +0.046 A 
ATOM     32  C   UNL     1      10.001  -4.525  -4.721  0.00  0.00    +0.004 A 
ATOM     33  C   UNL     1      10.991  -3.829  -5.391  0.00  0.00    +0.000 A 
ATOM     34  C   UNL     1      10.746  -2.551  -5.856  0.00  0.00    +0.004 A 
ATOM     35  C   UNL     1       9.510  -1.967  -5.660  0.00  0.00    +0.046 A 
ENDBRANCH  29  30
ENDBRANCH  27  29
ENDBRANCH   5  23
TORSDOF 4
