REMARK  Name = ZINC16688335
REMARK  10 active torsions:
REMARK  status: ('A' for Active; 'I' for Inactive)
REMARK    1  A    between atoms: C_1  and  C_2
REMARK    2  A    between atoms: C_2  and  O_3
REMARK    3  A    between atoms: O_3  and  C_4
REMARK    4  A    between atoms: C_6  and  C_16
REMARK    5  A    between atoms: C_9  and  O_10
REMARK    6  A    between atoms: O_10  and  C_11
REMARK    7  A    between atoms: C_11  and  C_12
REMARK    8  A    between atoms: C_16  and  N_47
REMARK    9  A    between atoms: C_17  and  C_18
REMARK   10  A    between atoms: C_17  and  N_47
REMARK                            x       y       z     vdW  Elec       q    Type
REMARK                         _______ _______ _______ _____ _____    ______ ____
ROOT
ATOM      1  C   UNL     1      -5.735   0.409   4.863  0.00  0.00    +0.163 A 
ATOM      2  C   UNL     1      -5.373   0.634   3.544  0.00  0.00    +0.051 A 
ATOM      3  C   UNL     1      -4.579  -0.282   2.879  0.00  0.00    -0.060 A 
ATOM      4  C   UNL     1      -4.148  -1.426   3.525  0.00  0.00    +0.021 A 
ATOM      5  C   UNL     1      -4.501  -1.654   4.843  0.00  0.00    +0.063 A 
ATOM      6  C   UNL     1      -5.297  -0.739   5.515  0.00  0.00    +0.176 A 
ATOM      7 BR   UNL     1      -3.903  -3.216   5.725  0.00  0.00    -0.046 Br
ENDROOT
BRANCH   1   8
ATOM      8  O   UNL     1      -6.516   1.309   5.518  0.00  0.00    -0.489 OA
BRANCH   8  10
ATOM      9  C   UNL     1      -7.794   3.354   5.681  0.00  0.00    +0.048 C 
ATOM     10  C   UNL     1      -6.928   2.464   4.785  0.00  0.00    +0.226 C 
ENDBRANCH   8  10
ENDBRANCH   1   8
BRANCH   6  11
ATOM     11  O   UNL     1      -5.649  -0.964   6.809  0.00  0.00    -0.478 OA
BRANCH  11  12
ATOM     12  C   UNL     1      -6.859  -1.690   7.036  0.00  0.00    +0.324 C 
BRANCH  12  13
ATOM     13  C   UNL     1      -7.083  -1.841   8.519  0.00  0.00    +0.248 C 
ATOM     14  O   UNL     1      -6.287  -1.373   9.304  0.00  0.00    -0.272 OA
ATOM     15  N   UNL     1      -8.171  -2.496   8.972  0.00  0.00    -0.327 N 
ATOM     16  H   UNL     1      -8.808  -2.871   8.344  0.00  0.00    +0.145 HD
ATOM     17  H   UNL     1      -8.315  -2.593   9.926  0.00  0.00    +0.145 HD
ENDBRANCH  12  13
ENDBRANCH  11  12
ENDBRANCH   6  11
BRANCH   3  18
ATOM     18  C   UNL     1      -4.187  -0.036   1.445  0.00  0.00    -0.046 C 
BRANCH  18  19
ATOM     19  N   UNL     1      -2.921   0.721   1.413  0.00  0.00    +0.384 N 
ATOM     20  H   UNL     1      -2.190   0.178   1.886  0.00  0.00    -0.085 HD
ATOM     21  H   UNL     1      -3.050   1.617   1.898  0.00  0.00    -0.085 HD
BRANCH  19  22
ATOM     22  C   UNL     1      -2.513   0.977   0.019  0.00  0.00    -0.046 C 
BRANCH  22  23
ATOM     23  C   UNL     1      -1.219   1.750   0.017  0.00  0.00    -0.061 A 
ATOM     24  C   UNL     1      -1.242   3.133   0.033  0.00  0.00    +0.005 A 
ATOM     25  C   UNL     1      -0.058   3.846   0.024  0.00  0.00    +0.050 A 
ATOM     26  C   UNL     1       1.155   3.177   0.008  0.00  0.00    +0.166 A 
ATOM     27  C   UNL     1       1.178   1.784   0.000  0.00  0.00    +0.166 A 
ATOM     28  C   UNL     1      -0.013   1.076   0.008  0.00  0.00    +0.051 A 
ATOM     29  O   UNL     1       2.478   1.369  -0.015  0.00  0.00    -0.453 OA
ATOM     30  C   UNL     1       3.243   2.517  -0.428  0.00  0.00    +0.466 C 
ATOM     31  O   UNL     1       2.441   3.634  -0.002  0.00  0.00    -0.453 OA
ENDBRANCH  22  23
ENDBRANCH  19  22
ENDBRANCH  18  19
ENDBRANCH   3  18
TORSDOF 9
