REMARK  Name = ZINC15234780
REMARK  10 active torsions:
REMARK  status: ('A' for Active; 'I' for Inactive)
REMARK    1  A    between atoms: C_1  and  C_2
REMARK    2  A    between atoms: C_2  and  C_23
REMARK    3  A    between atoms: N_5  and  C_9
REMARK    4  A    between atoms: C_9  and  C_10
REMARK    5  A    between atoms: C_10  and  C_12
REMARK    6  A    between atoms: C_10  and  O_22
REMARK    7  A    between atoms: C_12  and  O_13
REMARK    8  A    between atoms: O_13  and  C_14
REMARK    9  A    between atoms: C_28  and  O_33
REMARK   10  A    between atoms: O_33  and  C_34
REMARK                            x       y       z     vdW  Elec       q    Type
REMARK                         _______ _______ _______ _____ _____    ______ ____
ROOT
ATOM      1  C   UNL     1       2.952   0.774  -1.455  0.00  0.00    +0.047 C 
ATOM      2  C   UNL     1       2.493   1.021  -0.017  0.00  0.00    +0.135 C 
ATOM      3  C   UNL     1       2.357  -0.290   0.732  0.00  0.00    +0.251 C 
ATOM      4  O   UNL     1       1.615  -1.212   0.465  0.00  0.00    -0.272 OA
ATOM      5  N   UNL     1       3.231  -0.219   1.755  0.00  0.00    -0.221 N 
ATOM      6  C   UNL     1       3.894   0.943   1.756  0.00  0.00    +0.310 C 
ATOM      7  O   UNL     1       4.736   1.240   2.582  0.00  0.00    -0.252 OA
ATOM      8  N   UNL     1       3.527   1.749   0.739  0.00  0.00    -0.281 N 
ATOM      9  H   UNL     1       3.873   2.633   0.543  0.00  0.00    +0.152 HD
ENDROOT
BRANCH   2  10
ATOM     10  C   UNL     1       1.191   1.779   0.000  0.00  0.00    -0.015 A 
ATOM     11  C   UNL     1      -0.013   1.076   0.008  0.00  0.00    +0.007 A 
ATOM     12  C   UNL     1      -1.206   1.730   0.017  0.00  0.00    +0.009 A 
ATOM     13  C   UNL     1      -1.228   3.135   0.031  0.00  0.00    -0.014 A 
ATOM     14  C   UNL     1      -2.441   3.844   0.045  0.00  0.00    +0.054 A 
ATOM     15  C   UNL     1      -2.425   5.210   0.052  0.00  0.00    +0.121 A 
ATOM     16  C   UNL     1      -1.216   5.913   0.044  0.00  0.00    +0.046 A 
ATOM     17  C   UNL     1      -0.025   5.256   0.030  0.00  0.00    +0.012 A 
ATOM     18  C   UNL     1      -0.004   3.850   0.023  0.00  0.00    -0.017 A 
ATOM     19  C   UNL     1       1.208   3.140   0.007  0.00  0.00    +0.014 A 
BRANCH  15  20
ATOM     20  O   UNL     1      -3.599   5.894   0.066  0.00  0.00    -0.495 OA
ATOM     21  C   UNL     1      -3.517   7.321   0.073  0.00  0.00    +0.277 C 
ENDBRANCH  15  20
ENDBRANCH   2  10
BRANCH   5  22
ATOM     22  C   UNL     1       3.432  -1.282   2.742  0.00  0.00    +0.152 C 
BRANCH  22  23
ATOM     23  C   UNL     1       4.525  -2.234   2.252  0.00  0.00    +0.170 C 
BRANCH  23  24
ATOM     24  O   UNL     1       5.771  -1.537   2.189  0.00  0.00    -0.387 OA
ATOM     25  H   UNL     1       6.064  -1.179   3.038  0.00  0.00    +0.210 HD
ENDBRANCH  23  24
BRANCH  23  26
ATOM     26  C   UNL     1       4.648  -3.412   3.221  0.00  0.00    +0.262 C 
BRANCH  26  27
ATOM     27  O   UNL     1       5.585  -4.358   2.704  0.00  0.00    -0.488 OA
BRANCH  27  28
ATOM     28  C   UNL     1       5.812  -5.472   3.449  0.00  0.00    +0.139 A 
ATOM     29  C   UNL     1       5.151  -5.647   4.655  0.00  0.00    +0.048 A 
ATOM     30  C   UNL     1       5.379  -6.783   5.409  0.00  0.00    +0.023 A 
ATOM     31  C   UNL     1       6.275  -7.740   4.966  0.00  0.00    +0.043 A 
ATOM     32  C   UNL     1       6.940  -7.566   3.766  0.00  0.00    +0.043 A 
ATOM     33  C   UNL     1       6.710  -6.433   3.006  0.00  0.00    +0.084 A 
ATOM     34 CL   UNL     1       7.545  -6.214   1.500  0.00  0.00    -0.080 Cl
ATOM     35 CL   UNL     1       6.565  -9.162   5.919  0.00  0.00    -0.083 Cl
ENDBRANCH  27  28
ENDBRANCH  26  27
ENDBRANCH  23  26
ENDBRANCH  22  23
ENDBRANCH   5  22
TORSDOF 8
