REMARK  Name = ZINC22325249
REMARK  6 active torsions:
REMARK  status: ('A' for Active; 'I' for Inactive)
REMARK    1  A    between atoms: C_1  and  C_2
REMARK    2  A    between atoms: C_5  and  C_36
REMARK    3  A    between atoms: N_8  and  C_10
REMARK    4  A    between atoms: C_10  and  C_11
REMARK    5  A    between atoms: N_16  and  C_17
REMARK    6  A    between atoms: C_17  and  C_19
REMARK                            x       y       z     vdW  Elec       q    Type
REMARK                         _______ _______ _______ _____ _____    ______ ____
ROOT
ATOM      1  C   UNL     1       6.424   0.855   1.826  0.00  0.00    +0.269 C 
ATOM      2  O   UNL     1       6.603   1.557   2.806  0.00  0.00    -0.268 OA
ENDROOT
BRANCH   1   3
ATOM      3  C   UNL     1       7.505   0.692   0.823  0.00  0.00    +0.041 A 
ATOM      4  C   UNL     1       7.295  -0.125  -0.294  0.00  0.00    +0.014 A 
ATOM      5  C   UNL     1       8.280  -0.288  -1.228  0.00  0.00    +0.016 A 
ATOM      6  C   UNL     1       9.503   0.357  -1.068  0.00  0.00    +0.065 A 
ATOM      7  C   UNL     1       9.734   1.168   0.066  0.00  0.00    +0.079 A 
ATOM      8  C   UNL     1       8.719   1.341   1.005  0.00  0.00    +0.041 A 
ATOM      9  N   UNL     1      10.955   1.719   0.214  0.00  0.00    -0.233 NA
ATOM     10  C   UNL     1      11.934   1.589  -0.664  0.00  0.00    +0.113 A 
ATOM     11  N   UNL     1      11.739   0.963  -1.836  0.00  0.00    -0.296 N 
ATOM     12  C   UNL     1      10.597   0.234  -2.038  0.00  0.00    +0.262 A 
ATOM     13  O   UNL     1      10.514  -0.492  -3.011  0.00  0.00    -0.267 OA
ATOM     14  C   UNL     1      12.606   1.020  -3.002  0.00  0.00    +0.126 C 
ATOM     15  C   UNL     1      14.066   1.430  -2.689  0.00  0.00    +0.022 C 
ATOM     16  C   UNL     1      14.126   2.916  -3.154  0.00  0.00    +0.002 C 
ATOM     17  C   UNL     1      13.239   3.721  -2.187  0.00  0.00    +0.000 C 
ATOM     18  C   UNL     1      13.544   3.541  -0.716  0.00  0.00    +0.008 C 
ATOM     19  C   UNL     1      13.237   2.162  -0.168  0.00  0.00    +0.074 C 
ENDBRANCH   1   3
BRANCH   1  25
ATOM     20  C   UNL     1       2.197   0.113   3.583  0.00  0.00    +0.008 A 
ATOM     21  C   UNL     1       2.652   0.926   4.544  0.00  0.00    +0.067 A 
ATOM     22  S   UNL     1       4.302   1.288   3.971  0.00  0.00    -0.061 S 
ATOM     23  C   UNL     1       4.286   0.379   2.557  0.00  0.00    +0.163 A 
ATOM     24  N   UNL     1       3.043  -0.174   2.558  0.00  0.00    -0.341 N 
ATOM     25  N   UNL     1       5.257   0.233   1.656  0.00  0.00    -0.152 NA
ATOM     26  H   UNL     1       2.763  -0.762   1.838  0.00  0.00    +0.167 HD
BRANCH  20  27
ATOM     27  C   UNL     1       0.807  -0.464   3.639  0.00  0.00    -0.024 C 
BRANCH  27  33
ATOM     28  C   UNL     1      -1.329  -0.427  -0.001  0.00  0.00    +0.005 C 
ATOM     29  C   UNL     1      -2.096  -0.113   1.286  0.00  0.00    -0.031 C 
ATOM     30  C   UNL     1      -2.303   1.400   1.401  0.00  0.00    +0.003 C 
ATOM     31  C   UNL     1      -0.938   2.086   1.509  0.00  0.00    -0.031 C 
ATOM     32  C   UNL     1      -0.179   1.512   2.708  0.00  0.00    -0.075 C 
ATOM     33  N   UNL     1       0.011   0.068   2.525  0.00  0.00    +0.384 N 
ATOM     34  C   UNL     1      -1.294  -0.606   2.492  0.00  0.00    -0.075 C 
ATOM     35  C   UNL     1      -1.137   3.591   1.702  0.00  0.00    +0.005 C 
ATOM     36  H   UNL     1       0.496  -0.099   1.657  0.00  0.00    -0.081 HD
ENDBRANCH  27  33
ENDBRANCH  20  27
ENDBRANCH   1  25
TORSDOF 4
