REMARK  Name = ZINC27259132
REMARK  8 active torsions:
REMARK  status: ('A' for Active; 'I' for Inactive)
REMARK    1  A    between atoms: C_1  and  C_2
REMARK    2  A    between atoms: C_7  and  N_12
REMARK    3  A    between atoms: C_9  and  C_11
REMARK    4  A    between atoms: N_12  and  C_13
REMARK    5  A    between atoms: C_13  and  N_15
REMARK    6  A    between atoms: N_15  and  N_16
REMARK    7  A    between atoms: C_17  and  C_19
REMARK    8  A    between atoms: C_22  and  C_24
REMARK                            x       y       z     vdW  Elec       q    Type
REMARK                         _______ _______ _______ _____ _____    ______ ____
ROOT
ATOM      1  N   UNL     1      -5.053  -2.677   0.792  0.00  0.00    -0.246 N 
ATOM      2  H   UNL     1      -5.274  -3.675   0.386  0.00  0.00    +0.172 HD
ENDROOT
BRANCH   1   3
ATOM      3  N   UNL     1      -6.086  -1.890   1.319  0.00  0.00    -0.235 N 
ATOM      4  C   UNL     1      -7.350  -2.357   1.328  0.00  0.00    +0.233 C 
ATOM      5  O   UNL     1      -7.594  -3.458   0.881  0.00  0.00    -0.274 OA
ATOM      6  H   UNL     1      -5.865  -0.892   1.725  0.00  0.00    +0.173 HD
BRANCH   4   7
ATOM      7  C   UNL     1      -8.461  -1.511   1.895  0.00  0.00    +0.084 C 
ATOM      8  C   UNL     1      -9.110  -1.978   3.200  0.00  0.00    +0.022 C 
ATOM      9  C   UNL     1      -9.874  -2.098   1.879  0.00  0.00    +0.032 C 
BRANCH   9  10
ATOM     10  C   UNL     1     -10.049  -3.477   1.298  0.00  0.00    -0.043 A 
ATOM     11  C   UNL     1      -9.375  -4.550   1.851  0.00  0.00    +0.007 A 
ATOM     12  C   UNL     1      -9.539  -5.816   1.323  0.00  0.00    +0.038 A 
ATOM     13  C   UNL     1     -10.369  -6.008   0.231  0.00  0.00    +0.123 A 
ATOM     14  C   UNL     1     -11.039  -4.932  -0.326  0.00  0.00    +0.038 A 
ATOM     15  C   UNL     1     -10.878  -3.667   0.208  0.00  0.00    +0.007 A 
ATOM     16  F   UNL     1     -10.525  -7.245  -0.290  0.00  0.00    -0.205 F 
ENDBRANCH   9  10
ENDBRANCH   4   7
ENDBRANCH   1   3
BRANCH   1  17
ATOM     17  C   UNL     1      -3.789  -2.210   0.782  0.00  0.00    +0.147 C 
ATOM     18  S   UNL     1      -2.527  -3.171   0.139  0.00  0.00    -0.017 S 
BRANCH  17  19
ATOM     19  N   UNL     1      -3.518  -0.987   1.280  0.00  0.00    -0.322 N 
ATOM     20  H   UNL     1      -4.329  -0.370   1.693  0.00  0.00    +0.148 HD
BRANCH  19  26
ATOM     21  C   UNL     1      -0.013   1.086   0.008  0.00  0.00    +0.008 C 
ATOM     22  C   UNL     1      -0.729   1.579   1.267  0.00  0.00    -0.009 C 
ATOM     23  C   UNL     1       0.011   1.072   2.506  0.00  0.00    +0.003 C 
ATOM     24  C   UNL     1       0.032  -0.457   2.498  0.00  0.00    +0.002 C 
ATOM     25  C   UNL     1      -1.403  -0.987   2.509  0.00  0.00    +0.022 C 
ATOM     26  C   UNL     1      -2.143  -0.480   1.269  0.00  0.00    +0.075 C 
ATOM     27  C   UNL     1      -2.164   1.050   1.278  0.00  0.00    +0.009 C 
ATOM     28  C   UNL     1      -2.904   1.556   0.038  0.00  0.00    +0.009 C 
ENDBRANCH  19  26
ENDBRANCH  17  19
ENDBRANCH   1  17
TORSDOF 6
