REMARK  Name = ZINC36206310
REMARK  15 active torsions:
REMARK  status: ('A' for Active; 'I' for Inactive)
REMARK    1  A    between atoms: C_1  and  O_2
REMARK    2  A    between atoms: O_2  and  C_3
REMARK    3  A    between atoms: C_3  and  C_4
REMARK    4  A    between atoms: C_4  and  C_5
REMARK    5  A    between atoms: C_5  and  N_6
REMARK    6  A    between atoms: N_6  and  C_7
REMARK    7  A    between atoms: N_6  and  C_27
REMARK    8  A    between atoms: C_7  and  C_8
REMARK    9  A    between atoms: C_14  and  C_19
REMARK   10  A    between atoms: C_22  and  O_25
REMARK   11  A    between atoms: O_25  and  C_26
REMARK   12  A    between atoms: C_27  and  C_28
REMARK   13  A    between atoms: C_28  and  C_30
REMARK   14  A    between atoms: C_28  and  O_37
REMARK   15  A    between atoms: C_30  and  C_31
REMARK                            x       y       z     vdW  Elec       q    Type
REMARK                         _______ _______ _______ _____ _____    ______ ____
ROOT
ATOM      1  C   UNL     1       1.975  -5.034  -2.999  0.00  0.00    -0.003 C 
ENDROOT
BRANCH   1   2
ATOM      2  C   UNL     1       3.440  -4.860  -2.688  0.00  0.00    +0.094 A 
ATOM      3  N   UNL     1       4.364  -5.485  -3.462  0.00  0.00    -0.312 N 
ATOM      4  H   UNL     1       4.069  -6.036  -4.204  0.00  0.00    +0.170 HD
ATOM      5  C   UNL     1       5.682  -5.356  -3.219  0.00  0.00    +0.260 A 
ATOM      6  O   UNL     1       6.499  -5.923  -3.924  0.00  0.00    -0.267 OA
ATOM      7  C   UNL     1       6.109  -4.542  -2.122  0.00  0.00    +0.080 A 
ATOM      8  C   UNL     1       7.460  -4.248  -1.662  0.00  0.00    +0.004 A 
ATOM      9  C   UNL     1       7.622  -3.439  -0.587  0.00  0.00    +0.056 A 
ATOM     10  S   UNL     1       5.950  -3.023  -0.129  0.00  0.00    -0.076 S 
ATOM     11  C   UNL     1       5.082  -3.936  -1.379  0.00  0.00    +0.116 A 
ATOM     12  N   UNL     1       3.798  -4.107  -1.684  0.00  0.00    -0.229 NA
BRANCH   8  13
ATOM     13  C   UNL     1       8.637  -4.824  -2.357  0.00  0.00    -0.016 A 
ATOM     14  C   UNL     1       8.686  -6.190  -2.631  0.00  0.00    +0.012 A 
ATOM     15  C   UNL     1       9.782  -6.723  -3.278  0.00  0.00    +0.046 A 
ATOM     16  C   UNL     1      10.834  -5.900  -3.657  0.00  0.00    +0.120 A 
ATOM     17  C   UNL     1      10.788  -4.540  -3.385  0.00  0.00    +0.046 A 
ATOM     18  C   UNL     1       9.693  -4.000  -2.744  0.00  0.00    +0.012 A 
BRANCH  16  19
ATOM     19  O   UNL     1      11.912  -6.428  -4.294  0.00  0.00    -0.495 OA
ATOM     20  C   UNL     1      12.959  -5.525  -4.656  0.00  0.00    +0.277 C 
ENDBRANCH  16  19
ENDBRANCH   8  13
ENDBRANCH   1   2
BRANCH   1  21
ATOM     21  N   UNL     1       1.177  -4.263  -2.037  0.00  0.00    +0.386 N 
ATOM     22  H   UNL     1       1.424  -4.537  -1.098  0.00  0.00    -0.081 HD
BRANCH  21  23
ATOM     23  C   UNL     1       1.444  -2.829  -2.215  0.00  0.00    -0.076 C 
BRANCH  23  24
ATOM     24  C   UNL     1       0.972  -2.391  -3.603  0.00  0.00    +0.009 C 
BRANCH  24  25
ATOM     25  C   UNL     1       1.341  -0.923  -3.827  0.00  0.00    +0.157 C 
BRANCH  25  27
ATOM     26  C   UNL     1       1.196   0.849  -5.435  0.00  0.00    +0.193 C 
ATOM     27  O   UNL     1       0.899  -0.514  -5.123  0.00  0.00    -0.383 OA
ENDBRANCH  25  27
ENDBRANCH  24  25
ENDBRANCH  23  24
ENDBRANCH  21  23
BRANCH  21  28
ATOM     28  C   UNL     1      -0.251  -4.526  -2.263  0.00  0.00    -0.046 C 
BRANCH  28  29
ATOM     29  C   UNL     1      -1.077  -3.820  -1.186  0.00  0.00    +0.102 C 
BRANCH  29  30
ATOM     30  O   UNL     1      -0.693  -4.304   0.102  0.00  0.00    -0.393 OA
ATOM     31  H   UNL     1      -0.823  -5.255   0.220  0.00  0.00    +0.210 HD
ENDBRANCH  29  30
BRANCH  29  32
ATOM     32  C   UNL     1      -2.563  -4.104  -1.415  0.00  0.00    +0.064 C 
BRANCH  32  33
ATOM     33  C   UNL     1      -3.383  -3.311  -0.431  0.00  0.00    -0.045 A 
ATOM     34  C   UNL     1      -3.701  -3.855   0.800  0.00  0.00    +0.004 A 
ATOM     35  C   UNL     1      -4.454  -3.128   1.703  0.00  0.00    +0.000 A 
ATOM     36  C   UNL     1      -4.888  -1.857   1.376  0.00  0.00    +0.000 A 
ATOM     37  C   UNL     1      -4.569  -1.313   0.146  0.00  0.00    +0.000 A 
ATOM     38  C   UNL     1      -3.813  -2.038  -0.755  0.00  0.00    +0.004 A 
ENDBRANCH  32  33
ENDBRANCH  29  32
ENDBRANCH  28  29
ENDBRANCH  21  28
ENDBRANCH   1  21
TORSDOF 13
