REMARK  Name = ZINC59404970
REMARK  12 active torsions:
REMARK  status: ('A' for Active; 'I' for Inactive)
REMARK    1  A    between atoms: C_1  and  C_2
REMARK    2  A    between atoms: C_2  and  C_3
REMARK    3  A    between atoms: C_3  and  N_4
REMARK    4  A    between atoms: N_4  and  C_5
REMARK    5  A    between atoms: N_4  and  C_19
REMARK    6  A    between atoms: C_5  and  C_6
REMARK    7  A    between atoms: N_8  and  N_9
REMARK    8  A    between atoms: C_10  and  C_12
REMARK    9  A    between atoms: C_12  and  C_13
REMARK   10  A    between atoms: C_15  and  C_18
REMARK   11  A    between atoms: C_19  and  C_21
REMARK   12  A    between atoms: C_19  and  C_22
REMARK                            x       y       z     vdW  Elec       q    Type
REMARK                         _______ _______ _______ _____ _____    ______ ____
ROOT
ATOM      1  C   UNL     1      -2.670  -2.558  -0.062  0.00  0.00    +0.021 C 
ENDROOT
BRANCH   1   2
ATOM      2  C   UNL     1      -3.219  -2.215  -1.423  0.00  0.00    +0.213 C 
ATOM      3  O   UNL     1      -2.565  -1.536  -2.186  0.00  0.00    -0.276 OA
ATOM      4  N   UNL     1      -4.436  -2.662  -1.791  0.00  0.00    -0.236 N 
ATOM      5  H   UNL     1      -4.958  -3.204  -1.180  0.00  0.00    +0.173 HD
BRANCH   4   6
ATOM      6  N   UNL     1      -4.946  -2.342  -3.056  0.00  0.00    -0.234 N 
ATOM      7  C   UNL     1      -6.162  -2.789  -3.424  0.00  0.00    +0.235 C 
ATOM      8  O   UNL     1      -6.816  -3.468  -2.661  0.00  0.00    -0.274 OA
ATOM      9  H   UNL     1      -4.423  -1.800  -3.667  0.00  0.00    +0.173 HD
BRANCH   7  10
ATOM     10  C   UNL     1      -6.711  -2.446  -4.785  0.00  0.00    +0.160 C 
BRANCH  10  11
ATOM     11  C   UNL     1      -8.077  -3.062  -4.947  0.00  0.00    +0.087 A 
ATOM     12  N   UNL     1      -9.243  -2.545  -4.652  0.00  0.00    -0.249 NA
ATOM     13  C   UNL     1     -10.361  -3.214  -4.852  0.00  0.00    +0.046 A 
ATOM     14  C   UNL     1     -10.246  -4.461  -5.377  0.00  0.00    +0.070 A 
ATOM     15  S   UNL     1      -8.473  -4.580  -5.556  0.00  0.00    -0.080 S 
ATOM     16  C   UNL     1     -11.705  -2.622  -4.513  0.00  0.00    +0.066 C 
ENDBRANCH  10  11
ENDBRANCH   7  10
ENDBRANCH   4   6
ENDBRANCH   1   2
BRANCH   1  17
ATOM     17  N   UNL     1      -1.339  -1.957   0.096  0.00  0.00    +0.390 N 
ATOM     18  H   UNL     1      -0.744  -2.253  -0.664  0.00  0.00    -0.080 HD
BRANCH  17  19
ATOM     19  C   UNL     1      -0.754  -2.390   1.372  0.00  0.00    -0.040 C 
ATOM     20  C   UNL     1      -0.504  -3.899   1.333  0.00  0.00    -0.008 C 
BRANCH  19  21
ATOM     21  C   UNL     1       0.551  -1.670   1.596  0.00  0.00    -0.060 A 
ATOM     22  C   UNL     1       1.480  -1.589   0.575  0.00  0.00    +0.003 A 
ATOM     23  C   UNL     1       2.677  -0.930   0.779  0.00  0.00    +0.021 A 
ATOM     24  C   UNL     1       2.947  -0.350   2.006  0.00  0.00    +0.059 A 
ATOM     25  C   UNL     1       2.017  -0.430   3.028  0.00  0.00    +0.059 A 
ATOM     26  C   UNL     1       0.817  -1.087   2.820  0.00  0.00    +0.023 A 
ATOM     27 CL   UNL     1       2.354   0.296   4.568  0.00  0.00    -0.082 Cl
ATOM     28 CL   UNL     1       4.451   0.478   2.264  0.00  0.00    -0.082 Cl
ENDBRANCH  19  21
ENDBRANCH  17  19
BRANCH  17  29
ATOM     29  C   UNL     1      -1.458  -0.493   0.083  0.00  0.00    -0.078 C 
BRANCH  29  31
ATOM     30  C   UNL     1      -2.353   1.489   1.313  0.00  0.00    +0.002 C 
ATOM     31  C   UNL     1      -2.304  -0.040   1.274  0.00  0.00    -0.022 C 
ENDBRANCH  29  31
ENDBRANCH  17  29
ENDBRANCH   1  17
TORSDOF 9
