REMARK  Name = ZINC36962062
REMARK  7 active torsions:
REMARK  status: ('A' for Active; 'I' for Inactive)
REMARK    1  A    between atoms: C_1  and  O_2
REMARK    2  A    between atoms: O_2  and  C_3
REMARK    3  A    between atoms: C_5  and  C_11
REMARK    4  A    between atoms: C_7  and  O_9
REMARK    5  A    between atoms: O_9  and  C_10
REMARK    6  A    between atoms: C_11  and  C_13
REMARK    7  A    between atoms: C_11  and  N_20
REMARK                            x       y       z     vdW  Elec       q    Type
REMARK                         _______ _______ _______ _____ _____    ______ ____
ROOT
ATOM      1  C   UNL     1      -2.533  -4.175   0.015  0.00  0.00    -0.011 C 
ENDROOT
BRANCH   1   2
ATOM      2  C   UNL     1      -2.808  -4.665  -1.383  0.00  0.00    -0.035 A 
ATOM      3  C   UNL     1      -4.101  -4.944  -1.788  0.00  0.00    +0.026 A 
ATOM      4  C   UNL     1      -4.313  -5.384  -3.053  0.00  0.00    +0.056 A 
ATOM      5  S   UNL     1      -2.656  -5.416  -3.716  0.00  0.00    -0.074 S 
ATOM      6  C   UNL     1      -1.793  -4.835  -2.265  0.00  0.00    +0.058 A 
ATOM      7 BR   UNL     1       0.059  -4.537  -2.022  0.00  0.00    -0.042 Br
ATOM      8 BR   UNL     1      -5.942  -5.845  -3.895  0.00  0.00    -0.043 Br
ENDBRANCH   1   2
BRANCH   1  11
ATOM      9  C   UNL     1      -1.200  -0.637   0.010  0.00  0.00    +0.124 A 
ATOM     10  C   UNL     1      -1.255  -2.024   0.009  0.00  0.00    +0.048 A 
ATOM     11  C   UNL     1      -2.477  -2.669   0.017  0.00  0.00    -0.051 A 
ATOM     12  C   UNL     1      -3.647  -1.935   0.025  0.00  0.00    +0.048 A 
ATOM     13  C   UNL     1      -3.598  -0.548   0.027  0.00  0.00    +0.124 A 
ATOM     14  C   UNL     1      -2.373   0.101   0.025  0.00  0.00    +0.091 A 
BRANCH   9  16
ATOM     15  C   UNL     1      -0.017   1.425   0.010  0.00  0.00    +0.277 C 
ATOM     16  O   UNL     1       0.002  -0.004   0.002  0.00  0.00    -0.495 OA
ENDBRANCH   9  16
BRANCH  13  17
ATOM     17  O   UNL     1      -4.750   0.173   0.036  0.00  0.00    -0.495 OA
ATOM     18  C   UNL     1      -4.624   1.597   0.037  0.00  0.00    +0.277 C 
ENDBRANCH  13  17
ENDBRANCH   1  11
BRANCH   1  19
ATOM     19  N   UNL     1      -3.605  -4.626   0.912  0.00  0.00    +0.385 N 
ATOM     20  H   UNL     1      -4.488  -4.256   0.593  0.00  0.00    -0.089 HD
ATOM     21  H   UNL     1      -3.643  -5.634   0.911  0.00  0.00    -0.089 HD
ATOM     22  H   UNL     1      -3.421  -4.297   1.848  0.00  0.00    -0.089 HD
ENDBRANCH   1  19
TORSDOF 5
