REMARK  Name = ZINC59818258
REMARK  13 active torsions:
REMARK  status: ('A' for Active; 'I' for Inactive)
REMARK    1  A    between atoms: C_1  and  C_2
REMARK    2  A    between atoms: C_2  and  N_3
REMARK    3  A    between atoms: N_3  and  C_4
REMARK    4  A    between atoms: C_5  and  C_7
REMARK    5  A    between atoms: C_7  and  C_9
REMARK    6  A    between atoms: C_7  and  S_10
REMARK    7  A    between atoms: S_10  and  C_11
REMARK    8  A    between atoms: N_16  and  N_17
REMARK    9  A    between atoms: C_18  and  C_19
REMARK   10  A    between atoms: C_22  and  C_24
REMARK   11  A    between atoms: C_24  and  O_25
REMARK   12  A    between atoms: O_25  and  C_26
REMARK   13  A    between atoms: C_27  and  C_33
REMARK                            x       y       z     vdW  Elec       q    Type
REMARK                         _______ _______ _______ _____ _____    ______ ____
ROOT
ATOM      1  C   UNL     1      -5.874  -1.355   2.555  0.00  0.00    +0.211 A 
ATOM      2  N   UNL     1      -6.849  -1.221   3.460  0.00  0.00    -0.186 NA
ATOM      3  C   UNL     1      -7.966  -1.734   2.987  0.00  0.00    +0.232 A 
ATOM      4  N   UNL     1      -7.714  -2.211   1.750  0.00  0.00    -0.245 N 
ATOM      5  N   UNL     1      -6.359  -1.950   1.491  0.00  0.00    -0.144 NA
ATOM      6  N   UNL     1      -9.182  -1.776   3.643  0.00  0.00    -0.205 N 
ATOM      7  H   UNL     1      -9.952  -2.177   3.210  0.00  0.00    +0.177 HD
ATOM      8  H   UNL     1      -8.345  -2.646   1.155  0.00  0.00    +0.192 HD
ENDROOT
BRANCH   6   9
ATOM      9  N   UNL     1      -9.303  -1.240   4.931  0.00  0.00    -0.184 NA
ATOM     10  C   UNL     1     -10.447  -1.280   5.548  0.00  0.00    +0.176 C 
BRANCH  10  11
ATOM     11  C   UNL     1     -10.573  -0.718   6.897  0.00  0.00    +0.148 A 
ATOM     12  C   UNL     1     -11.708  -0.699   7.654  0.00  0.00    +0.051 A 
ATOM     13  C   UNL     1     -11.374  -0.070   8.868  0.00  0.00    +0.049 A 
ATOM     14  C   UNL     1     -10.069   0.261   8.797  0.00  0.00    +0.143 A 
ATOM     15  O   UNL     1      -9.587  -0.136   7.607  0.00  0.00    -0.455 OA
BRANCH  14  16
ATOM     16  C   UNL     1      -9.280   0.957   9.876  0.00  0.00    +0.303 C 
BRANCH  16  17
ATOM     17  O   UNL     1      -8.698  -0.017  10.744  0.00  0.00    -0.483 OA
BRANCH  17  18
ATOM     18  C   UNL     1      -7.949   0.447  11.779  0.00  0.00    +0.142 A 
ATOM     19  C   UNL     1      -6.588   0.656  11.612  0.00  0.00    -0.007 A 
ATOM     20  C   UNL     1      -5.828   1.128  12.664  0.00  0.00    +0.007 A 
ATOM     21  C   UNL     1      -6.422   1.393  13.884  0.00  0.00    +0.002 A 
ATOM     22  C   UNL     1      -7.779   1.186  14.054  0.00  0.00    +0.024 A 
ATOM     23  C   UNL     1      -8.545   0.719  13.002  0.00  0.00    +0.083 A 
ATOM     24 CL   UNL     1     -10.249   0.466  13.214  0.00  0.00    -0.080 Cl
ATOM     25  C   UNL     1      -5.938   0.367  10.283  0.00  0.00    +0.047 C 
ENDBRANCH  17  18
ENDBRANCH  16  17
ENDBRANCH  14  16
ENDBRANCH  10  11
ENDBRANCH   6   9
BRANCH   1  26
ATOM     26  S   UNL     1      -4.210  -0.812   2.755  0.00  0.00    -0.072 S 
BRANCH  26  27
ATOM     27  C   UNL     1      -3.407  -1.272   1.195  0.00  0.00    +0.137 C 
ATOM     28  C   UNL     1      -3.389  -2.796   1.061  0.00  0.00    +0.029 C 
BRANCH  27  31
ATOM     29  N   UNL     1      -1.372  -0.511   0.012  0.00  0.00    -0.304 N 
ATOM     30  C   UNL     1      -2.072  -0.758  -1.251  0.00  0.00    +0.132 C 
ATOM     31  C   UNL     1      -1.993  -0.751   1.184  0.00  0.00    +0.228 C 
ATOM     32  O   UNL     1      -1.415  -0.546   2.230  0.00  0.00    -0.274 OA
BRANCH  29  34
ATOM     33  C   UNL     1      -0.019   1.526   0.010  0.00  0.00    +0.024 C 
ATOM     34  C   UNL     1       0.002  -0.004   0.002  0.00  0.00    +0.104 C 
ENDBRANCH  29  34
ENDBRANCH  27  31
ENDBRANCH  26  27
ENDBRANCH   1  26
TORSDOF 9
