REMARK  Name = ZINC66589168
REMARK  7 active torsions:
REMARK  status: ('A' for Active; 'I' for Inactive)
REMARK    1  A    between atoms: C_3  and  S_12
REMARK    2  A    between atoms: C_6  and  S_7
REMARK    3  A    between atoms: S_7  and  N_10
REMARK    4  A    between atoms: S_12  and  N_15
REMARK    5  A    between atoms: N_15  and  N_16
REMARK    6  A    between atoms: C_17  and  C_19
REMARK    7  A    between atoms: C_19  and  C_20
REMARK                            x       y       z     vdW  Elec       q    Type
REMARK                         _______ _______ _______ _____ _____    ______ ____
ROOT
ATOM      1  S   UNL     1       3.890   2.317  -0.023  0.00  0.00    +0.076 S 
ATOM      2  O   UNL     1       4.688   1.761  -1.059  0.00  0.00    -0.152 OA
ATOM      3  O   UNL     1       3.541   3.694   0.014  0.00  0.00    -0.152 OA
ENDROOT
BRANCH   1   6
ATOM      4  C   UNL     1      -0.017   1.378   0.010  0.00  0.00    +0.030 A 
ATOM      5  C   UNL     1       1.171   2.087   0.002  0.00  0.00    +0.033 A 
ATOM      6  C   UNL     1       2.377   1.414  -0.013  0.00  0.00    +0.142 A 
ATOM      7  C   UNL     1       2.397   0.029  -0.021  0.00  0.00    +0.152 A 
ATOM      8  C   UNL     1       1.208  -0.679  -0.013  0.00  0.00    +0.068 A 
ATOM      9  C   UNL     1       0.002  -0.004   0.002  0.00  0.00    +0.108 A 
ATOM     10  F   UNL     1       3.577  -0.630  -0.036  0.00  0.00    -0.203 F 
BRANCH   9  11
ATOM     11  S   UNL     1      -1.512  -0.905   0.012  0.00  0.00    +0.056 S 
ATOM     12  O   UNL     1      -1.218  -2.186   0.553  0.00  0.00    -0.153 OA
ATOM     13  O   UNL     1      -2.492  -0.046   0.578  0.00  0.00    -0.153 OA
BRANCH  11  14
ATOM     14  N   UNL     1      -1.948  -1.147  -1.567  0.00  0.00    -0.204 NA
ATOM     15  H   UNL     1      -1.389  -0.806  -2.282  0.00  0.00    +0.144 HD
ATOM     16  H   UNL     1      -2.763  -1.630  -1.776  0.00  0.00    +0.144 HD
ENDBRANCH  11  14
ENDBRANCH   9  11
ENDBRANCH   1   6
BRANCH   1  17
ATOM     17  N   UNL     1       4.667   1.987   1.401  0.00  0.00    -0.108 NA
ATOM     18  H   UNL     1       4.876   2.706   2.018  0.00  0.00    +0.172 HD
BRANCH  17  19
ATOM     19  N   UNL     1       5.023   0.669   1.716  0.00  0.00    -0.232 N 
ATOM     20  C   UNL     1       6.302   0.369   2.014  0.00  0.00    +0.228 C 
ATOM     21  O   UNL     1       7.146   1.240   2.010  0.00  0.00    -0.274 OA
ATOM     22  H   UNL     1       4.348  -0.028   1.720  0.00  0.00    +0.171 HD
BRANCH  20  23
ATOM     23  C   UNL     1       6.685  -1.049   2.353  0.00  0.00    +0.100 C 
BRANCH  23  24
ATOM     24  C   UNL     1       8.184  -1.116   2.649  0.00  0.00    -0.002 C 
ATOM     25  C   UNL     1       8.970  -0.777   1.381  0.00  0.00    +0.004 C 
ATOM     26  C   UNL     1      10.470  -0.844   1.676  0.00  0.00    +0.000 C 
ATOM     27  C   UNL     1      10.835  -2.255   2.141  0.00  0.00    +0.000 C 
ATOM     28  C   UNL     1      10.050  -2.594   3.409  0.00  0.00    +0.000 C 
ATOM     29  C   UNL     1       8.550  -2.527   3.113  0.00  0.00    +0.004 C 
ENDBRANCH  23  24
ENDBRANCH  20  23
ENDBRANCH  17  19
ENDBRANCH   1  17
TORSDOF 7
