REMARK  Name = ZINC35450625
REMARK  9 active torsions:
REMARK  status: ('A' for Active; 'I' for Inactive)
REMARK    1  A    between atoms: C_1  and  C_2
REMARK    2  A    between atoms: C_2  and  C_3
REMARK    3  A    between atoms: C_2  and  C_4
REMARK    4  A    between atoms: C_4  and  C_5
REMARK    5  A    between atoms: C_5  and  S_6
REMARK    6  A    between atoms: S_6  and  C_7
REMARK    7  A    between atoms: C_14  and  C_26
REMARK    8  A    between atoms: C_20  and  C_24
REMARK    9  A    between atoms: C_20  and  C_25
REMARK                            x       y       z     vdW  Elec       q    Type
REMARK                         _______ _______ _______ _____ _____    ______ ____
ROOT
ATOM      1  C   UNL     1      -4.502  -0.221  -2.813  0.00  0.00    +0.171 A 
ATOM      2  N   UNL     1      -3.741   0.470  -3.638  0.00  0.00    -0.208 NA
ATOM      3  C   UNL     1      -4.210   0.896  -4.816  0.00  0.00    +0.135 A 
ATOM      4  C   UNL     1      -5.515   0.615  -5.180  0.00  0.00    +0.069 A 
ATOM      5  C   UNL     1      -6.318  -0.120  -4.301  0.00  0.00    +0.258 A 
ATOM      6  O   UNL     1      -7.473  -0.389  -4.591  0.00  0.00    -0.267 OA
ATOM      7  N   UNL     1      -5.790  -0.531  -3.129  0.00  0.00    -0.302 N 
ATOM      8  C   UNL     1      -6.065   1.091  -6.492  0.00  0.00    +0.092 C 
ATOM      9  C   UNL     1      -4.960   1.470  -7.445  0.00  0.00    +0.024 C 
ATOM     10  C   UNL     1      -3.709   1.716  -7.003  0.00  0.00    +0.017 C 
ATOM     11  N   UNL     1      -3.400   1.614  -5.674  0.00  0.00    -0.302 N 
ATOM     12  C   UNL     1      -2.612   2.118  -7.959  0.00  0.00    +0.058 C 
ATOM     13  C   UNL     1      -2.857   1.470  -9.324  0.00  0.00    -0.023 C 
ATOM     14  C   UNL     1      -4.231   1.920  -9.833  0.00  0.00    +0.086 C 
ATOM     15  C   UNL     1      -5.274   1.558  -8.813  0.00  0.00    +0.162 C 
ATOM     16  O   UNL     1      -6.412   1.336  -9.177  0.00  0.00    -0.292 OA
ATOM     17  C   UNL     1      -1.773   1.915 -10.307  0.00  0.00    +0.011 C 
ATOM     18  C   UNL     1      -2.833  -0.053  -9.183  0.00  0.00    +0.011 C 
ATOM     19  H   UNL     1      -2.604   2.050  -5.331  0.00  0.00    +0.153 HD
ATOM     20  H   UNL     1      -6.330  -1.045  -2.508  0.00  0.00    +0.171 HD
ENDROOT
BRANCH   8  21
ATOM     21  C   UNL     1      -6.942   2.293  -6.252  0.00  0.00    -0.034 A 
ATOM     22  C   UNL     1      -6.410   3.433  -5.678  0.00  0.00    +0.004 A 
ATOM     23  C   UNL     1      -7.214   4.536  -5.458  0.00  0.00    +0.001 A 
ATOM     24  C   UNL     1      -8.550   4.499  -5.811  0.00  0.00    +0.015 A 
ATOM     25  C   UNL     1      -9.082   3.359  -6.386  0.00  0.00    +0.018 A 
ATOM     26  C   UNL     1      -8.276   2.257  -6.611  0.00  0.00    +0.019 A 
ATOM     27 BR   UNL     1     -10.910   3.308  -6.868  0.00  0.00    -0.050 Br
ENDBRANCH   8  21
BRANCH   1  28
ATOM     28  S   UNL     1      -3.837  -0.759  -1.273  0.00  0.00    -0.088 S 
BRANCH  28  29
ATOM     29  C   UNL     1      -2.135  -0.131  -1.286  0.00  0.00    +0.077 C 
BRANCH  29  30
ATOM     30  C   UNL     1      -1.433  -0.534   0.013  0.00  0.00    +0.014 C 
BRANCH  30  32
ATOM     31  C   UNL     1      -0.019   1.526   0.010  0.00  0.00    +0.007 C 
ATOM     32  C   UNL     1       0.002  -0.004   0.002  0.00  0.00    -0.016 C 
ATOM     33  C   UNL     1       0.742  -0.511   1.242  0.00  0.00    +0.007 C 
ENDBRANCH  30  32
ENDBRANCH  29  30
ENDBRANCH  28  29
ENDBRANCH   1  28
TORSDOF 5
