REMARK  Name = ZINC04908171
REMARK  5 active torsions:
REMARK  status: ('A' for Active; 'I' for Inactive)
REMARK    1  A    between atoms: C_1  and  C_2
REMARK    2  A    between atoms: C_5  and  O_25
REMARK    3  A    between atoms: C_6  and  N_8
REMARK    4  A    between atoms: C_15  and  C_24
REMARK    5  A    between atoms: O_25  and  C_26
REMARK                            x       y       z     vdW  Elec       q    Type
REMARK                         _______ _______ _______ _____ _____    ______ ____
ROOT
ATOM      1  N   UNL     1       3.690   2.095  -1.683  0.00  0.00    -0.213 N 
ATOM      2  C   UNL     1       3.329   3.284  -2.189  0.00  0.00    +0.310 C 
ATOM      3  O   UNL     1       3.526   3.504  -3.368  0.00  0.00    -0.252 OA
ATOM      4  N   UNL     1       2.756   4.241  -1.440  0.00  0.00    -0.292 N 
ATOM      5  C   UNL     1       2.438   3.971  -0.028  0.00  0.00    +0.114 C 
ATOM      6  C   UNL     1       3.566   3.096   0.543  0.00  0.00    +0.096 C 
ATOM      7  C   UNL     1       3.565   1.788  -0.261  0.00  0.00    +0.185 C 
ATOM      8  O   UNL     1       2.351   1.091   0.003  0.00  0.00    -0.468 OA
ATOM      9  C   UNL     1       1.184   1.786   0.000  0.00  0.00    +0.128 A 
ATOM     10  C   UNL     1       1.156   3.169   0.001  0.00  0.00    +0.016 A 
ATOM     11  C   UNL     1      -0.053   3.840   0.019  0.00  0.00    +0.029 A 
ATOM     12  C   UNL     1      -1.241   3.131   0.029  0.00  0.00    +0.042 A 
ATOM     13  C   UNL     1      -1.218   1.748   0.017  0.00  0.00    +0.023 A 
ATOM     14  C   UNL     1      -0.013   1.076   0.008  0.00  0.00    +0.047 A 
ATOM     15 CL   UNL     1      -2.757   3.975   0.050  0.00  0.00    -0.084 Cl
ATOM     16  C   UNL     1       4.747   0.921   0.178  0.00  0.00    +0.079 C 
ATOM     17  H   UNL     1       2.554   5.107  -1.827  0.00  0.00    +0.151 HD
ENDROOT
BRANCH   1  23
ATOM     18  C   UNL     1       2.930  -1.727  -4.682  0.00  0.00    +0.044 C 
ATOM     19  C   UNL     1       3.860  -0.748  -4.013  0.00  0.00    -0.048 A 
ATOM     20  C   UNL     1       5.220  -0.814  -4.252  0.00  0.00    +0.007 A 
ATOM     21  C   UNL     1       6.077   0.082  -3.642  0.00  0.00    +0.048 A 
ATOM     22  C   UNL     1       5.574   1.054  -2.792  0.00  0.00    +0.142 A 
ATOM     23  C   UNL     1       4.204   1.118  -2.546  0.00  0.00    +0.083 A 
ATOM     24  C   UNL     1       3.350   0.215  -3.163  0.00  0.00    +0.030 A 
BRANCH  22  25
ATOM     25  O   UNL     1       6.415   1.940  -2.196  0.00  0.00    -0.493 OA
ATOM     26  C   UNL     1       7.807   1.815  -2.494  0.00  0.00    +0.277 C 
ENDBRANCH  22  25
ENDBRANCH   1  23
TORSDOF 2
