REMARK  Name = ZINC65273715
REMARK  3 active torsions:
REMARK  status: ('A' for Active; 'I' for Inactive)
REMARK    1  A    between atoms: C_5  and  N_8
REMARK    2  A    between atoms: C_9  and  C_11
REMARK    3  A    between atoms: C_26  and  C_28
REMARK                            x       y       z     vdW  Elec       q    Type
REMARK                         _______ _______ _______ _____ _____    ______ ____
ROOT
ATOM      1  C   UNL     1       3.005  -3.138  -3.812  0.00  0.00    +0.080 C 
ATOM      2  C   UNL     1       3.709  -4.364  -3.224  0.00  0.00    +0.019 C 
ATOM      3  C   UNL     1       4.323  -5.207  -4.343  0.00  0.00    +0.057 C 
ATOM      4  C   UNL     1       3.247  -5.501  -5.379  0.00  0.00    +0.054 A 
ATOM      5  C   UNL     1       2.116  -4.754  -5.430  0.00  0.00    +0.015 A 
ATOM      6  S   UNL     1       1.225  -5.492  -6.771  0.00  0.00    -0.057 S 
ATOM      7  C   UNL     1       2.354  -6.682  -7.156  0.00  0.00    +0.161 A 
ATOM      8  N   UNL     1       3.317  -6.474  -6.285  0.00  0.00    -0.229 NA
ATOM      9  N   UNL     1       2.285  -7.646  -8.150  0.00  0.00    -0.307 N 
ATOM     10  C   UNL     1       1.118  -7.720  -9.040  0.00  0.00    +0.126 C 
ATOM     11  C   UNL     1       1.603  -7.642 -10.492  0.00  0.00    +0.126 C 
ATOM     12  N   UNL     1       2.696  -8.608 -10.675  0.00  0.00    -0.298 N 
ATOM     13  C   UNL     1       3.863  -8.533  -9.785  0.00  0.00    +0.126 C 
ATOM     14  C   UNL     1       3.380  -8.608  -8.336  0.00  0.00    +0.126 C 
ATOM     15  C   UNL     1       2.628  -9.545 -11.641  0.00  0.00    +0.219 C 
ATOM     16  O   UNL     1       1.660  -9.597 -12.369  0.00  0.00    -0.275 OA
ATOM     17  C   UNL     1       1.744  -3.599  -4.562  0.00  0.00    +0.057 C 
ENDROOT
BRANCH   1  19
ATOM     18  N   UNL     1       1.976  -1.046  -2.987  0.00  0.00    -0.312 N 
ATOM     19  C   UNL     1       2.617  -2.197  -2.702  0.00  0.00    +0.217 C 
ATOM     20  O   UNL     1       2.881  -2.474  -1.551  0.00  0.00    -0.275 OA
ATOM     21  H   UNL     1       1.764  -0.824  -3.907  0.00  0.00    +0.149 HD
BRANCH  18  26
ATOM     22  C   UNL     1      -0.019   1.538   0.011  0.00  0.00    +0.000 C 
ATOM     23  C   UNL     1       1.401   2.036  -0.000  0.00  0.00    +0.000 C 
ATOM     24  C   UNL     1       1.910   2.335  -1.423  0.00  0.00    +0.002 C 
ATOM     25  C   UNL     1       1.480   1.268  -2.449  0.00  0.00    +0.022 C 
ATOM     26  C   UNL     1       1.598  -0.131  -1.907  0.00  0.00    +0.073 C 
ATOM     27  C   UNL     1       0.231  -0.548  -1.328  0.00  0.00    +0.022 C 
ATOM     28  C   UNL     1       0.002  -0.004   0.002  0.00  0.00    +0.002 C 
ENDBRANCH  18  26
ENDBRANCH   1  19
BRANCH  15  29
ATOM     29  C   UNL     1       3.757 -10.529 -11.817  0.00  0.00    +0.075 C 
ATOM     30  C   UNL     1       4.932  -9.977 -12.641  0.00  0.00    +0.013 C 
ATOM     31  C   UNL     1       5.018 -11.364 -13.300  0.00  0.00    +0.001 C 
ATOM     32  C   UNL     1       3.527 -11.531 -12.960  0.00  0.00    +0.013 C 
ENDBRANCH  15  29
TORSDOF 3
