REMARK  Name = ZINC67330092
REMARK  6 active torsions:
REMARK  status: ('A' for Active; 'I' for Inactive)
REMARK    1  A    between atoms: C_1  and  C_2
REMARK    2  A    between atoms: C_4  and  C_8
REMARK    3  A    between atoms: C_5  and  C_7
REMARK    4  A    between atoms: C_8  and  C_10
REMARK    5  A    between atoms: C_8  and  N_11
REMARK    6  A    between atoms: C_12  and  C_14
REMARK                            x       y       z     vdW  Elec       q    Type
REMARK                         _______ _______ _______ _____ _____    ______ ____
ROOT
ATOM      1  N   UNL     1      -2.752  -3.099  -0.586  0.00  0.00    -0.305 N 
ATOM      2  C   UNL     1      -3.473  -4.086  -1.154  0.00  0.00    +0.247 C 
ATOM      3  O   UNL     1      -3.031  -5.219  -1.188  0.00  0.00    -0.270 OA
ATOM      4  H   UNL     1      -3.105  -2.196  -0.558  0.00  0.00    +0.150 HD
ENDROOT
BRANCH   2   5
ATOM      5  C   UNL     1      -4.796  -3.793  -1.734  0.00  0.00    +0.067 A 
ATOM      6  C   UNL     1      -5.304  -2.497  -1.702  0.00  0.00    +0.053 A 
ATOM      7  C   UNL     1      -6.547  -2.221  -2.247  0.00  0.00    +0.126 A 
ATOM      8  C   UNL     1      -7.300  -3.225  -2.828  0.00  0.00    +0.066 A 
ATOM      9  C   UNL     1      -6.815  -4.523  -2.872  0.00  0.00    +0.069 A 
ATOM     10  C   UNL     1      -5.554  -4.822  -2.330  0.00  0.00    +0.101 A 
ATOM     11  N   UNL     1      -5.345  -6.141  -2.518  0.00  0.00    -0.235 NA
ATOM     12  C   UNL     1      -6.366  -6.667  -3.131  0.00  0.00    +0.197 A 
ATOM     13  N   UNL     1      -7.308  -5.716  -3.367  0.00  0.00    -0.344 N 
ATOM     14  H   UNL     1      -8.161  -5.847  -3.809  0.00  0.00    +0.167 HD
ATOM     15  F   UNL     1      -7.029  -0.959  -2.209  0.00  0.00    -0.205 F 
ENDBRANCH   2   5
BRANCH   1  16
ATOM     16  C   UNL     1      -1.437  -3.390  -0.009  0.00  0.00    +0.104 C 
ATOM     17  C   UNL     1      -1.609  -3.892   1.426  0.00  0.00    +0.033 C 
BRANCH  16  21
ATOM     18  C   UNL     1      -0.018   1.503   0.010  0.00  0.00    +0.086 C 
ATOM     19  C   UNL     1       0.002  -0.004   0.002  0.00  0.00    +0.103 A 
ATOM     20  C   UNL     1      -1.078  -0.805   0.003  0.00  0.00    +0.050 A 
ATOM     21  C   UNL     1      -0.601  -2.136  -0.007  0.00  0.00    +0.013 A 
ATOM     22  C   UNL     1       0.742  -2.069  -0.013  0.00  0.00    +0.107 A 
ATOM     23  O   UNL     1       1.102  -0.775  -0.013  0.00  0.00    -0.465 OA
ATOM     24  C   UNL     1       1.684  -3.245  -0.023  0.00  0.00    +0.086 C 
ENDBRANCH  16  21
ENDBRANCH   1  16
TORSDOF 3
