REMARK  Name = ZINC14962549
REMARK  5 active torsions:
REMARK  status: ('A' for Active; 'I' for Inactive)
REMARK    1  A    between atoms: C_4  and  C_7
REMARK    2  A    between atoms: C_10  and  C_15
REMARK    3  A    between atoms: N_17  and  C_18
REMARK    4  A    between atoms: C_24  and  C_25
REMARK    5  A    between atoms: C_24  and  N_54
REMARK                            x       y       z     vdW  Elec       q    Type
REMARK                         _______ _______ _______ _____ _____    ______ ____
ROOT
ATOM      1  C   UNL     1       7.277   4.339  -0.049  0.00  0.00    +0.249 C 
ATOM      2  O   UNL     1       8.346   3.763   0.031  0.00  0.00    -0.270 OA
ATOM      3  N   UNL     1       7.241   5.683  -0.143  0.00  0.00    -0.310 N 
ATOM      4  H   UNL     1       6.389   6.147  -0.132  0.00  0.00    +0.149 HD
ENDROOT
BRANCH   1   8
ATOM      5  C   UNL     1       3.656   2.158  -0.028  0.00  0.00    +0.049 A 
ATOM      6  C   UNL     1       4.856   1.472  -0.054  0.00  0.00    +0.027 A 
ATOM      7  C   UNL     1       6.055   2.174  -0.068  0.00  0.00    +0.020 A 
ATOM      8  C   UNL     1       6.026   3.569  -0.041  0.00  0.00    +0.101 A 
ATOM      9  C   UNL     1       4.774   4.235  -0.008  0.00  0.00    +0.261 A 
ATOM     10  O   UNL     1       4.733   5.452   0.015  0.00  0.00    -0.267 OA
ATOM     11  N   UNL     1       3.632   3.522  -0.003  0.00  0.00    -0.321 N 
ATOM     12  H   UNL     1       2.780   3.985   0.020  0.00  0.00    +0.169 HD
BRANCH   5  16
ATOM     13  C   UNL     1       0.003  -0.005  -0.008  0.00  0.00    +0.000 A 
ATOM     14  C   UNL     1      -0.016   1.379   0.018  0.00  0.00    +0.001 A 
ATOM     15  C   UNL     1       1.167   2.088   0.012  0.00  0.00    +0.010 A 
ATOM     16  C   UNL     1       2.386   1.406  -0.020  0.00  0.00    -0.002 A 
ATOM     17  C   UNL     1       2.397   0.009  -0.046  0.00  0.00    +0.010 A 
ATOM     18  C   UNL     1       1.206  -0.687  -0.039  0.00  0.00    +0.001 A 
ENDBRANCH   5  16
ENDBRANCH   1   8
BRANCH   3  19
ATOM     19  C   UNL     1       8.488   6.443  -0.263  0.00  0.00    +0.057 C 
ATOM     20  C   UNL     1       9.063   6.704   1.132  0.00  0.00    +0.018 C 
ATOM     21  C   UNL     1      10.333   7.549   1.001  0.00  0.00    -0.017 C 
ATOM     22  C   UNL     1       9.999   8.854   0.276  0.00  0.00    -0.078 C 
ATOM     23  C   UNL     1       8.207   7.780  -0.952  0.00  0.00    -0.056 C 
ATOM     24  N   UNL     1       9.473   8.535  -1.069  0.00  0.00    +0.384 N 
ATOM     25  H   UNL     1      10.160   7.957  -1.567  0.00  0.00    -0.081 HD
BRANCH  24  26
ATOM     26  C   UNL     1       9.250   9.780  -1.832  0.00  0.00    -0.040 C 
BRANCH  26  27
ATOM     27  C   UNL     1      10.585  10.413  -2.129  0.00  0.00    -0.029 A 
ATOM     28  C   UNL     1      11.027  11.482  -1.372  0.00  0.00    +0.004 A 
ATOM     29  C   UNL     1      12.254  12.059  -1.640  0.00  0.00    +0.000 A 
ATOM     30  C   UNL     1      13.035  11.575  -2.674  0.00  0.00    +0.003 A 
ATOM     31  C   UNL     1      12.593  10.511  -3.435  0.00  0.00    +0.038 A 
ATOM     32  C   UNL     1      11.366   9.928  -3.163  0.00  0.00    +0.125 A 
ATOM     33  F   UNL     1      10.933   8.887  -3.907  0.00  0.00    -0.205 F 
ENDBRANCH  26  27
ENDBRANCH  24  26
ENDBRANCH   3  19
TORSDOF 5
