REMARK  Name = ZINC09461972
REMARK  9 active torsions:
REMARK  status: ('A' for Active; 'I' for Inactive)
REMARK    1  A    between atoms: C_1  and  N_63
REMARK    2  A    between atoms: N_4  and  S_7
REMARK    3  A    between atoms: S_7  and  C_10
REMARK    4  A    between atoms: C_13  and  N_19
REMARK    5  A    between atoms: C_14  and  N_16
REMARK    6  A    between atoms: N_19  and  C_20
REMARK    7  A    between atoms: C_20  and  C_21
REMARK    8  A    between atoms: C_21  and  C_23
REMARK    9  A    between atoms: C_21  and  N_65
REMARK                            x       y       z     vdW  Elec       q    Type
REMARK                         _______ _______ _______ _____ _____    ______ ____
ROOT
ATOM      1  C   UNL     1       1.606   1.094   2.333  0.00  0.00    +0.108 A 
ATOM      2  C   UNL     1       2.714   0.267   2.377  0.00  0.00    +0.030 A 
ATOM      3  C   UNL     1       3.417   0.114   3.555  0.00  0.00    +0.027 A 
ATOM      4  C   UNL     1       3.005   0.784   4.700  0.00  0.00    +0.058 A 
ATOM      5  C   UNL     1       1.889   1.609   4.655  0.00  0.00    +0.149 A 
ATOM      6  C   UNL     1       1.192   1.761   3.471  0.00  0.00    +0.063 A 
ENDROOT
BRANCH   1   7
ATOM      7  S   UNL     1       0.715   1.290   0.826  0.00  0.00    +0.061 S 
ATOM      8  O   UNL     1      -0.604   1.683   1.182  0.00  0.00    -0.153 OA
ATOM      9  O   UNL     1       0.981   0.135   0.043  0.00  0.00    -0.153 OA
BRANCH   7  13
ATOM     10  C   UNL     1       1.629   5.208  -3.238  0.00  0.00    -0.096 C 
ATOM     11  C   UNL     1       2.150   3.063  -2.244  0.00  0.00    -0.062 C 
ATOM     12  C   UNL     1       2.499   2.372  -0.921  0.00  0.00    +0.091 C 
ATOM     13  N   UNL     1       1.389   2.572   0.022  0.00  0.00    -0.180 NA
ATOM     14  C   UNL     1       0.890   3.941   0.229  0.00  0.00    +0.091 C 
ATOM     15  C   UNL     1       0.605   4.570  -1.139  0.00  0.00    -0.062 C 
ATOM     16  N   UNL     1       1.826   4.479  -1.968  0.00  0.00    +0.380 N 
ATOM     17  H   UNL     1       2.608   4.906  -1.457  0.00  0.00    -0.082 HD
ENDBRANCH   7  13
ENDBRANCH   1   7
BRANCH   5  18
ATOM     18  N   UNL     1       1.445   2.324   5.872  0.00  0.00    +0.058 N 
ATOM     19  O   UNL     1       1.558   1.795   6.964  0.00  0.00    -0.126 OA
ATOM     20  O   UNL     1       0.967   3.440   5.783  0.00  0.00    -0.126 OA
ENDBRANCH   5  18
BRANCH   4  21
ATOM     21  N   UNL     1       3.711   0.627   5.896  0.00  0.00    -0.343 N 
ATOM     22  H   UNL     1       3.400   1.065   6.703  0.00  0.00    +0.146 HD
BRANCH  21  23
ATOM     23  C   UNL     1       4.921  -0.198   5.929  0.00  0.00    +0.094 C 
BRANCH  23  24
ATOM     24  C   UNL     1       5.496  -0.203   7.346  0.00  0.00    +0.016 C 
BRANCH  24  30
ATOM     25  C   UNL     1       6.595   1.897   6.856  0.00  0.00    -0.078 C 
ATOM     26  C   UNL     1       6.686   3.368   7.268  0.00  0.00    -0.019 C 
ATOM     27  C   UNL     1       7.241   3.461   8.692  0.00  0.00    -0.004 C 
ATOM     28  C   UNL     1       6.336   2.665   9.637  0.00  0.00    -0.019 C 
ATOM     29  C   UNL     1       6.255   1.214   9.156  0.00  0.00    -0.078 C 
ATOM     30  N   UNL     1       5.691   1.192   7.790  0.00  0.00    +0.387 N 
ATOM     31  H   UNL     1       4.782   1.670   7.797  0.00  0.00    -0.081 HD
ENDBRANCH  24  30
BRANCH  24  32
ATOM     32  C   UNL     1       6.805  -0.950   7.355  0.00  0.00    +0.093 A 
ATOM     33  C   UNL     1       7.013  -2.167   7.888  0.00  0.00    +0.043 A 
ATOM     34  C   UNL     1       8.375  -2.481   7.673  0.00  0.00    +0.041 A 
ATOM     35  C   UNL     1       8.917  -1.437   7.021  0.00  0.00    +0.195 A 
ATOM     36  O   UNL     1       7.960  -0.515   6.826  0.00  0.00    -0.469 OA
ENDBRANCH  24  32
ENDBRANCH  23  24
ENDBRANCH  21  23
ENDBRANCH   4  21
TORSDOF 8
