REMARK  Name = ZINC33780875
REMARK  6 active torsions:
REMARK  status: ('A' for Active; 'I' for Inactive)
REMARK    1  A    between atoms: C_2  and  C_3
REMARK    2  A    between atoms: C_3  and  N_4
REMARK    3  A    between atoms: C_8  and  C_9
REMARK    4  A    between atoms: N_18  and  N_19
REMARK    5  A    between atoms: C_20  and  C_22
REMARK    6  A    between atoms: C_27  and  O_28
REMARK                            x       y       z     vdW  Elec       q    Type
REMARK                         _______ _______ _______ _____ _____    ______ ____
ROOT
ATOM      1  N   UNL     1       2.353  -1.964   0.965  0.00  0.00    -0.241 N 
ATOM      2  C   UNL     1       2.513  -1.471   2.181  0.00  0.00    +0.259 C 
ATOM      3  O   UNL     1       2.880  -0.324   2.359  0.00  0.00    -0.269 OA
ATOM      4  C   UNL     1       2.227  -2.374   3.314  0.00  0.00    +0.078 C 
ATOM      5  C   UNL     1       2.307  -2.133   4.647  0.00  0.00    +0.028 C 
ATOM      6  S   UNL     1       1.747  -3.869   2.461  0.00  0.00    -0.047 S 
ATOM      7  C   UNL     1       1.928  -3.272   0.788  0.00  0.00    +0.186 C 
ATOM      8  N   UNL     1       1.714  -3.911  -0.329  0.00  0.00    -0.157 NA
ENDROOT
BRANCH   5   9
ATOM      9  C   UNL     1       2.132  -3.234   5.604  0.00  0.00    -0.024 A 
ATOM     10  C   UNL     1       2.238  -4.562   5.176  0.00  0.00    +0.009 A 
ATOM     11  C   UNL     1       2.073  -5.590   6.080  0.00  0.00    +0.016 A 
ATOM     12  C   UNL     1       1.803  -5.310   7.410  0.00  0.00    +0.018 A 
ATOM     13  C   UNL     1       1.697  -3.998   7.842  0.00  0.00    +0.016 A 
ATOM     14  C   UNL     1       1.865  -2.960   6.951  0.00  0.00    +0.009 A 
ATOM     15 BR   UNL     1       1.578  -6.727   8.642  0.00  0.00    -0.050 Br
ENDBRANCH   5   9
BRANCH   8  16
ATOM     16  N   UNL     1       1.283  -5.244  -0.301  0.00  0.00    -0.201 N 
ATOM     17  C   UNL     1       1.062  -5.905  -1.455  0.00  0.00    +0.267 C 
ATOM     18  O   UNL     1       1.238  -5.344  -2.521  0.00  0.00    -0.268 OA
ATOM     19  H   UNL     1       1.143  -5.691   0.548  0.00  0.00    +0.178 HD
BRANCH  17  20
ATOM     20  C   UNL     1       0.608  -7.308  -1.427  0.00  0.00    +0.080 A 
ATOM     21  C   UNL     1       0.400  -7.954  -0.205  0.00  0.00    +0.017 A 
ATOM     22  C   UNL     1      -0.025  -9.265  -0.185  0.00  0.00    +0.001 A 
ATOM     23  C   UNL     1      -0.246  -9.946  -1.371  0.00  0.00    +0.004 A 
ATOM     24  C   UNL     1      -0.044  -9.319  -2.585  0.00  0.00    +0.046 A 
ATOM     25  C   UNL     1       0.377  -7.999  -2.624  0.00  0.00    +0.129 A 
BRANCH  25  26
ATOM     26  O   UNL     1       0.571  -7.380  -3.816  0.00  0.00    -0.506 OA
ATOM     27  H   UNL     1       1.468  -7.473  -4.166  0.00  0.00    +0.292 HD
ENDBRANCH  25  26
ENDBRANCH  17  20
ENDBRANCH   8  16
BRANCH   1  28
ATOM     28  C   UNL     1       2.619  -1.121  -0.204  0.00  0.00    +0.142 C 
BRANCH  28  30
ATOM     29  C   UNL     1       1.361   0.912  -0.698  0.00  0.00    +0.005 C 
ATOM     30  C   UNL     1       1.359  -0.395  -0.597  0.00  0.00    -0.015 C 
ENDBRANCH  28  30
ENDBRANCH   1  28
TORSDOF 6
