REMARK  Name = ZINC20530079
REMARK  8 active torsions:
REMARK  status: ('A' for Active; 'I' for Inactive)
REMARK    1  A    between atoms: C_4  and  S_7
REMARK    2  A    between atoms: S_7  and  N_10
REMARK    3  A    between atoms: C_13  and  C_16
REMARK    4  A    between atoms: N_18  and  N_19
REMARK    5  A    between atoms: C_20  and  C_21
REMARK    6  A    between atoms: C_20  and  C_28
REMARK    7  A    between atoms: C_24  and  O_27
REMARK    8  A    between atoms: C_31  and  O_34
REMARK                            x       y       z     vdW  Elec       q    Type
REMARK                         _______ _______ _______ _____ _____    ______ ____
ROOT
ATOM      1  C   UNL     1      -2.269  -2.451  -0.558  0.00  0.00    +0.235 C 
ATOM      2  O   UNL     1      -2.342  -3.623  -0.862  0.00  0.00    -0.274 OA
ATOM      3  N   UNL     1      -1.078  -1.912  -0.232  0.00  0.00    -0.206 N 
ATOM      4  H   UNL     1      -1.012  -0.849   0.043  0.00  0.00    +0.177 HD
ENDROOT
BRANCH   1   8
ATOM      5  N   UNL     1      -6.109  -0.908   0.332  0.00  0.00    -0.177 NA
ATOM      6  C   UNL     1      -5.972  -1.567  -0.975  0.00  0.00    +0.110 C 
ATOM      7  C   UNL     1      -4.717  -2.446  -0.954  0.00  0.00    +0.030 C 
ATOM      8  C   UNL     1      -3.511  -1.597  -0.547  0.00  0.00    +0.079 C 
ATOM      9  C   UNL     1      -3.730  -1.035   0.859  0.00  0.00    +0.030 C 
ATOM     10  C   UNL     1      -4.973  -0.140   0.859  0.00  0.00    +0.110 C 
BRANCH   5  11
ATOM     11  S   UNL     1      -7.519  -1.029   1.193  0.00  0.00    +0.061 S 
ATOM     12  O   UNL     1      -7.563   0.097   2.059  0.00  0.00    -0.153 OA
ATOM     13  O   UNL     1      -8.547  -1.309   0.253  0.00  0.00    -0.153 OA
BRANCH  11  17
ATOM     14  C   UNL     1      -7.159  -4.684   3.841  0.00  0.00    +0.000 A 
ATOM     15  C   UNL     1      -6.742  -3.450   4.304  0.00  0.00    +0.002 A 
ATOM     16  C   UNL     1      -6.851  -2.334   3.496  0.00  0.00    +0.028 A 
ATOM     17  C   UNL     1      -7.379  -2.452   2.223  0.00  0.00    +0.105 A 
ATOM     18  C   UNL     1      -7.801  -3.684   1.762  0.00  0.00    +0.028 A 
ATOM     19  C   UNL     1      -7.687  -4.801   2.568  0.00  0.00    +0.002 A 
ENDBRANCH  11  17
ENDBRANCH   5  11
ENDBRANCH   1   8
BRANCH   3  20
ATOM     20  N   UNL     1       0.077  -2.706  -0.242  0.00  0.00    -0.179 NA
ATOM     21  C   UNL     1       1.246  -2.161  -0.035  0.00  0.00    +0.096 C 
BRANCH  21  22
ATOM     22  C   UNL     1       1.369  -0.690   0.072  0.00  0.00    +0.003 A 
ATOM     23  C   UNL     1       2.213  -0.127   1.030  0.00  0.00    +0.013 A 
ATOM     24  C   UNL     1       2.325   1.244   1.127  0.00  0.00    +0.046 A 
ATOM     25  C   UNL     1       1.599   2.063   0.273  0.00  0.00    +0.117 A 
ATOM     26  C   UNL     1       0.758   1.506  -0.681  0.00  0.00    +0.046 A 
ATOM     27  C   UNL     1       0.641   0.137  -0.784  0.00  0.00    +0.013 A 
BRANCH  25  28
ATOM     28  O   UNL     1       1.712   3.414   0.371  0.00  0.00    -0.507 OA
ATOM     29  H   UNL     1       1.137   4.064  -0.304  0.00  0.00    +0.292 HD
ENDBRANCH  25  28
ENDBRANCH  21  22
BRANCH  21  30
ATOM     30  C   UNL     1       2.448  -3.015   0.092  0.00  0.00    +0.003 A 
ATOM     31  C   UNL     1       3.719  -2.439   0.087  0.00  0.00    +0.013 A 
ATOM     32  C   UNL     1       4.837  -3.237   0.210  0.00  0.00    +0.046 A 
ATOM     33  C   UNL     1       4.699  -4.614   0.328  0.00  0.00    +0.117 A 
ATOM     34  C   UNL     1       3.436  -5.192   0.328  0.00  0.00    +0.046 A 
ATOM     35  C   UNL     1       2.314  -4.399   0.211  0.00  0.00    +0.013 A 
BRANCH  33  36
ATOM     36  O   UNL     1       5.802  -5.398   0.445  0.00  0.00    -0.507 OA
ATOM     37  H   UNL     1       5.694  -6.489   0.538  0.00  0.00    +0.292 HD
ENDBRANCH  33  36
ENDBRANCH  21  30
ENDBRANCH   3  20
TORSDOF 8
