REMARK  Name = ZINC35781310
REMARK  9 active torsions:
REMARK  status: ('A' for Active; 'I' for Inactive)
REMARK    1  A    between atoms: C_1  and  C_2
REMARK    2  A    between atoms: C_2  and  C_3
REMARK    3  A    between atoms: C_2  and  C_28
REMARK    4  A    between atoms: C_2  and  O_30
REMARK    5  A    between atoms: C_3  and  N_4
REMARK    6  A    between atoms: N_4  and  C_5
REMARK    7  A    between atoms: N_4  and  C_11
REMARK    8  A    between atoms: C_5  and  C_6
REMARK    9  A    between atoms: C_11  and  C_12
REMARK                            x       y       z     vdW  Elec       q    Type
REMARK                         _______ _______ _______ _____ _____    ______ ____
ROOT
ATOM      1  C   UNL     1       0.730  -0.286   3.639  0.00  0.00    -0.002 C 
ENDROOT
BRANCH   1   2
ATOM      2  C   UNL     1      -0.193   0.175   4.737  0.00  0.00    +0.094 A 
ATOM      3  N   UNL     1       0.203   0.063   6.032  0.00  0.00    -0.312 N 
ATOM      4  H   UNL     1       1.075  -0.312   6.231  0.00  0.00    +0.170 HD
ATOM      5  C   UNL     1      -0.591   0.461   7.043  0.00  0.00    +0.260 A 
ATOM      6  O   UNL     1      -0.221   0.354   8.200  0.00  0.00    -0.267 OA
ATOM      7  C   UNL     1      -1.877   1.014   6.737  0.00  0.00    +0.075 A 
ATOM      8  C   UNL     1      -2.895   1.508   7.669  0.00  0.00    -0.023 A 
ATOM      9  C   UNL     1      -4.036   1.980   7.125  0.00  0.00    -0.004 A 
ATOM     10  S   UNL     1      -3.820   1.807   5.372  0.00  0.00    -0.073 S 
ATOM     11  C   UNL     1      -2.197   1.090   5.374  0.00  0.00    +0.116 A 
ATOM     12  N   UNL     1      -1.357   0.680   4.427  0.00  0.00    -0.229 NA
ATOM     13  C   UNL     1      -5.237   2.522   7.836  0.00  0.00    +0.043 C 
ATOM     14  C   UNL     1      -4.786   3.556   8.875  0.00  0.00    +0.005 C 
ATOM     15  C   UNL     1      -4.519   2.832  10.191  0.00  0.00    +0.001 C 
ATOM     16  C   UNL     1      -3.987   1.427   9.915  0.00  0.00    +0.005 C 
ATOM     17  C   UNL     1      -2.656   1.494   9.176  0.00  0.00    +0.037 C 
ENDBRANCH   1   2
BRANCH   1  18
ATOM     18  N   UNL     1       0.091  -0.060   2.336  0.00  0.00    +0.391 N 
ATOM     19  H   UNL     1      -0.817  -0.499   2.325  0.00  0.00    -0.080 HD
BRANCH  18  20
ATOM     20  C   UNL     1       0.927  -0.637   1.274  0.00  0.00    -0.038 C 
BRANCH  20  22
ATOM     21  C   UNL     1      -0.585  -2.623   1.393  0.00  0.00    +0.044 C 
ATOM     22  C   UNL     1       0.874  -2.164   1.358  0.00  0.00    +0.067 C 
BRANCH  22  23
ATOM     23  C   UNL     1       1.559  -2.757   0.153  0.00  0.00    -0.003 C 
ATOM     24  C   UNL     1       2.598  -3.539   0.310  0.00  0.00    +0.006 C 
ENDBRANCH  22  23
BRANCH  22  25
ATOM     25  O   UNL     1       1.539  -2.599   2.546  0.00  0.00    -0.387 OA
ATOM     26  H   UNL     1       2.470  -2.343   2.592  0.00  0.00    +0.210 HD
ENDBRANCH  22  25
ENDBRANCH  20  22
ENDBRANCH  18  20
BRANCH  18  27
ATOM     27  C   UNL     1      -0.060   1.384   2.109  0.00  0.00    -0.002 C 
BRANCH  27  28
ATOM     28  C   UNL     1      -0.888   1.613   0.871  0.00  0.00    +0.089 A 
ATOM     29  C   UNL     1      -2.220   1.801   0.839  0.00  0.00    +0.042 A 
ATOM     30  C   UNL     1      -2.576   1.976  -0.518  0.00  0.00    +0.041 A 
ATOM     31  C   UNL     1      -1.441   1.884  -1.234  0.00  0.00    +0.195 A 
ATOM     32  O   UNL     1      -0.421   1.670  -0.387  0.00  0.00    -0.470 OA
ENDBRANCH  27  28
ENDBRANCH  18  27
ENDBRANCH   1  18
TORSDOF 8
