REMARK  Name = ZINC40840776
REMARK  8 active torsions:
REMARK  status: ('A' for Active; 'I' for Inactive)
REMARK    1  A    between atoms: C_1  and  C_2
REMARK    2  A    between atoms: C_2  and  C_3
REMARK    3  A    between atoms: N_13  and  C_21
REMARK    4  A    between atoms: C_21  and  C_22
REMARK    5  A    between atoms: C_22  and  C_23
REMARK    6  A    between atoms: N_25  and  C_26
REMARK    7  A    between atoms: C_29  and  C_32
REMARK    8  A    between atoms: C_32  and  C_34
REMARK                            x       y       z     vdW  Elec       q    Type
REMARK                         _______ _______ _______ _____ _____    ______ ____
ROOT
ATOM      1  C   UNL     1      -1.881   0.069  -0.242  0.00  0.00    +0.075 C 
ATOM      2  C   UNL     1      -1.519  -1.335  -0.735  0.00  0.00    +0.022 C 
ATOM      3  C   UNL     1      -2.638  -2.309  -0.357  0.00  0.00    +0.003 C 
ATOM      4  C   UNL     1      -2.785  -2.354   1.165  0.00  0.00    +0.019 C 
ATOM      5  C   UNL     1      -3.161  -0.961   1.679  0.00  0.00    +0.107 C 
ATOM      6  N   UNL     1      -2.168   0.009   1.197  0.00  0.00    -0.308 N 
ATOM      7  C   UNL     1      -1.512   0.847   2.082  0.00  0.00    +0.188 A 
ATOM      8  C   UNL     1      -2.155   1.220   3.357  0.00  0.00    +0.292 A 
ATOM      9  O   UNL     1      -3.260   0.795   3.638  0.00  0.00    -0.264 OA
ATOM     10  N   UNL     1      -1.499   2.039   4.208  0.00  0.00    -0.303 N 
ATOM     11  C   UNL     1      -0.244   2.504   3.860  0.00  0.00    +0.070 A 
ATOM     12  C   UNL     1       0.453   3.348   4.718  0.00  0.00    +0.028 A 
ATOM     13  C   UNL     1       1.703   3.807   4.364  0.00  0.00    +0.002 A 
ATOM     14  C   UNL     1       2.274   3.433   3.155  0.00  0.00    +0.002 A 
ATOM     15  C   UNL     1       1.608   2.606   2.298  0.00  0.00    +0.030 A 
ATOM     16  C   UNL     1       0.334   2.125   2.635  0.00  0.00    +0.090 A 
ATOM     17  N   UNL     1      -0.322   1.303   1.790  0.00  0.00    -0.225 NA
ENDROOT
BRANCH   1  19
ATOM     18  C   UNL     1      -0.452   1.129  -1.997  0.00  0.00    +0.006 C 
ATOM     19  C   UNL     1      -0.708   1.019  -0.492  0.00  0.00    +0.019 C 
ENDBRANCH   1  19
BRANCH  10  20
ATOM     20  C   UNL     1      -2.109   2.429   5.481  0.00  0.00    +0.135 C 
BRANCH  20  21
ATOM     21  C   UNL     1      -1.720   1.419   6.563  0.00  0.00    +0.118 C 
BRANCH  21  22
ATOM     22  C   UNL     1      -2.347   1.821   7.873  0.00  0.00    +0.219 C 
ATOM     23  O   UNL     1      -3.038   2.816   7.936  0.00  0.00    -0.275 OA
ATOM     24  N   UNL     1      -2.142   1.074   8.976  0.00  0.00    -0.285 N 
ATOM     25  H   UNL     1      -1.650   0.240   8.912  0.00  0.00    +0.155 HD
BRANCH  24  26
ATOM     26  C   UNL     1      -2.635   1.499  10.208  0.00  0.00    +0.033 A 
ATOM     27  C   UNL     1      -1.919   1.231  11.372  0.00  0.00    +0.024 A 
ATOM     28  C   UNL     1      -2.400   1.648  12.586  0.00  0.00    +0.013 A 
ATOM     29  C   UNL     1      -3.613   2.345  12.654  0.00  0.00    +0.017 A 
ATOM     30  C   UNL     1      -4.330   2.612  11.480  0.00  0.00    +0.013 A 
ATOM     31  C   UNL     1      -3.838   2.196  10.270  0.00  0.00    +0.024 A 
BRANCH  29  32
ATOM     32  C   UNL     1      -4.133   2.793  13.952  0.00  0.00    +0.160 C 
ATOM     33  O   UNL     1      -3.512   2.560  14.968  0.00  0.00    -0.292 OA
ATOM     34  C   UNL     1      -5.439   3.543  14.023  0.00  0.00    +0.091 C 
ENDBRANCH  29  32
ENDBRANCH  24  26
ENDBRANCH  21  22
ENDBRANCH  20  21
ENDBRANCH  10  20
TORSDOF 6
