REMARK  Name = ZINC01092979
REMARK  3 active torsions:
REMARK  status: ('A' for Active; 'I' for Inactive)
REMARK    1  A    between atoms: C_1  and  C_2
REMARK    2  A    between atoms: C_2  and  C_3
REMARK    3  A    between atoms: N_23  and  C_26
REMARK                            x       y       z     vdW  Elec       q    Type
REMARK                         _______ _______ _______ _____ _____    ______ ____
ROOT
ATOM      1  C   UNL     1       0.025   5.520  -0.259  0.00  0.00    +0.033 C 
ATOM      2  C   UNL     1       0.127   4.035   0.050  0.00  0.00    -0.032 A 
ATOM      3  C   UNL     1       1.280   3.305   0.001  0.00  0.00    +0.005 A 
ATOM      4  C   UNL     1       1.228   1.951   0.308  0.00  0.00    +0.000 A 
ATOM      5  C   UNL     1       0.030   1.357   0.657  0.00  0.00    +0.000 A 
ATOM      6  C   UNL     1      -1.140   2.104   0.701  0.00  0.00    +0.004 A 
ATOM      7  C   UNL     1      -1.082   3.436   0.402  0.00  0.00    -0.035 A 
ATOM      8  C   UNL     1      -2.272   4.382   0.412  0.00  0.00    +0.062 C 
ATOM      9  C   UNL     1      -1.859   5.538   1.308  0.00  0.00    -0.035 A 
ATOM     10  C   UNL     1      -0.651   6.137   0.955  0.00  0.00    -0.032 A 
ATOM     11  C   UNL     1      -0.157   7.189   1.673  0.00  0.00    +0.005 A 
ATOM     12  C   UNL     1      -0.880   7.653   2.764  0.00  0.00    +0.000 A 
ATOM     13  C   UNL     1      -2.078   7.059   3.114  0.00  0.00    +0.000 A 
ATOM     14  C   UNL     1      -2.575   5.989   2.380  0.00  0.00    +0.004 A 
ATOM     15  C   UNL     1      -2.340   4.970  -1.014  0.00  0.00    +0.101 C 
ATOM     16  C   UNL     1      -1.006   5.631  -1.404  0.00  0.00    +0.103 C 
ATOM     17  C   UNL     1      -1.370   7.089  -1.587  0.00  0.00    +0.231 C 
ATOM     18  O   UNL     1      -0.601   7.972  -1.900  0.00  0.00    -0.274 OA
ATOM     19  N   UNL     1      -2.678   7.248  -1.348  0.00  0.00    -0.210 N 
ATOM     20  C   UNL     1      -3.322   6.121  -1.017  0.00  0.00    +0.231 C 
ATOM     21  O   UNL     1      -4.504   6.037  -0.761  0.00  0.00    -0.274 OA
ENDROOT
BRANCH  19  22
ATOM     22  C   UNL     1      -3.321   8.491  -1.437  0.00  0.00    +0.044 A 
ATOM     23  C   UNL     1      -4.246   8.725  -2.445  0.00  0.00    +0.024 A 
ATOM     24  C   UNL     1      -4.881   9.949  -2.527  0.00  0.00    +0.002 A 
ATOM     25  C   UNL     1      -4.587  10.944  -1.613  0.00  0.00    +0.000 A 
ATOM     26  C   UNL     1      -3.661  10.716  -0.612  0.00  0.00    +0.002 A 
ATOM     27  C   UNL     1      -3.027   9.492  -0.521  0.00  0.00    +0.024 A 
ENDBRANCH  19  22
BRANCH   1  29
ATOM     28  C   UNL     1       2.313   6.005   0.619  0.00  0.00    +0.005 C 
ATOM     29  C   UNL     1       1.377   6.159  -0.581  0.00  0.00    +0.013 C 
ENDBRANCH   1  29
TORSDOF 2
