REMARK  Name = ZINC09836167
REMARK  9 active torsions:
REMARK  status: ('A' for Active; 'I' for Inactive)
REMARK    1  A    between atoms: C_1  and  C_2
REMARK    2  A    between atoms: C_2  and  O_3
REMARK    3  A    between atoms: O_3  and  C_4
REMARK    4  A    between atoms: C_7  and  N_10
REMARK    5  A    between atoms: C_20  and  C_21
REMARK    6  A    between atoms: C_20  and  O_32
REMARK    7  A    between atoms: N_23  and  C_24
REMARK    8  A    between atoms: C_24  and  C_25
REMARK    9  A    between atoms: C_25  and  C_26
REMARK                            x       y       z     vdW  Elec       q    Type
REMARK                         _______ _______ _______ _____ _____    ______ ____
ROOT
ATOM      1  N   UNL     1       3.686   3.107  -0.017  0.00  0.00    -0.214 N 
ATOM      2  C   UNL     1       3.549   1.828  -0.411  0.00  0.00    +0.314 C 
ATOM      3  O   UNL     1       4.540   1.223  -0.772  0.00  0.00    -0.252 OA
ATOM      4  N   UNL     1       2.371   1.190  -0.423  0.00  0.00    -0.269 N 
ATOM      5  C   UNL     1       1.177   1.793  -0.029  0.00  0.00    +0.043 A 
ATOM      6  C   UNL     1      -0.019   1.087  -0.061  0.00  0.00    +0.024 A 
ATOM      7  C   UNL     1      -1.192   1.704   0.328  0.00  0.00    +0.002 A 
ATOM      8  C   UNL     1      -1.180   3.018   0.762  0.00  0.00    +0.001 A 
ATOM      9  C   UNL     1       0.009   3.726   0.795  0.00  0.00    +0.010 A 
ATOM     10  C   UNL     1       1.178   3.115   0.402  0.00  0.00    +0.033 A 
ATOM     11  C   UNL     1       2.496   3.854   0.424  0.00  0.00    +0.247 C 
ATOM     12  H   UNL     1       2.348   0.267  -0.720  0.00  0.00    +0.156 HD
ENDROOT
BRANCH   1  16
ATOM     13  C   UNL     1       7.436   4.932  -0.044  0.00  0.00    +0.121 A 
ATOM     14  C   UNL     1       7.045   4.167   1.045  0.00  0.00    +0.047 A 
ATOM     15  C   UNL     1       5.804   3.562   1.055  0.00  0.00    +0.027 A 
ATOM     16  C   UNL     1       4.946   3.720  -0.026  0.00  0.00    +0.042 A 
ATOM     17  C   UNL     1       5.340   4.482  -1.118  0.00  0.00    +0.027 A 
ATOM     18  C   UNL     1       6.580   5.090  -1.124  0.00  0.00    +0.047 A 
BRANCH  13  19
ATOM     19  O   UNL     1       8.658   5.527  -0.053  0.00  0.00    -0.492 OA
BRANCH  19  21
ATOM     20  C   UNL     1      10.398   6.887  -1.036  0.00  0.00    +0.048 C 
ATOM     21  C   UNL     1       8.995   6.300  -1.207  0.00  0.00    +0.225 C 
ENDBRANCH  19  21
ENDBRANCH  13  19
ENDBRANCH   1  16
BRANCH  11  22
ATOM     22  C   UNL     1       2.740   4.327   1.834  0.00  0.00    +0.269 C 
ATOM     23  O   UNL     1       2.769   5.514   2.079  0.00  0.00    -0.270 OA
ATOM     24  N   UNL     1       2.926   3.430   2.823  0.00  0.00    -0.311 N 
ATOM     25  H   UNL     1       2.903   2.480   2.627  0.00  0.00    +0.149 HD
BRANCH  24  26
ATOM     26  C   UNL     1       3.163   3.890   4.194  0.00  0.00    +0.108 C 
BRANCH  26  27
ATOM     27  C   UNL     1       3.341   2.680   5.114  0.00  0.00    +0.049 C 
BRANCH  27  28
ATOM     28  C   UNL     1       3.585   3.153   6.524  0.00  0.00    -0.072 C 
ATOM     29  C   UNL     1       2.568   3.240   7.319  0.00  0.00    -0.028 C 
ATOM     30  C   UNL     1       2.652   3.698   8.746  0.00  0.00    +0.027 C 
ATOM     31  C   UNL     1       4.102   3.643   9.233  0.00  0.00    +0.004 C 
ATOM     32  C   UNL     1       4.990   4.341   8.194  0.00  0.00    +0.005 C 
ATOM     33  C   UNL     1       4.991   3.499   6.916  0.00  0.00    +0.030 C 
ENDBRANCH  27  28
ENDBRANCH  26  27
ENDBRANCH  24  26
ENDBRANCH  11  22
BRANCH  11  34
ATOM     34  O   UNL     1       2.368   5.009  -0.407  0.00  0.00    -0.360 OA
ATOM     35  H   UNL     1       1.677   5.623  -0.124  0.00  0.00    +0.213 HD
ENDBRANCH  11  34
TORSDOF 8
