REMARK  Name = ZINC40607734
REMARK  5 active torsions:
REMARK  status: ('A' for Active; 'I' for Inactive)
REMARK    1  A    between atoms: C_10  and  C_11
REMARK    2  A    between atoms: N_13  and  N_14
REMARK    3  A    between atoms: C_16  and  N_29
REMARK    4  A    between atoms: C_17  and  S_21
REMARK    5  A    between atoms: S_21  and  C_22
REMARK                            x       y       z     vdW  Elec       q    Type
REMARK                         _______ _______ _______ _____ _____    ______ ____
ROOT
ATOM      1  N   UNL     1       7.323   0.192   0.031  0.00  0.00    -0.246 N 
ATOM      2  C   UNL     1       8.531  -0.483   0.121  0.00  0.00    +0.170 A 
ATOM      3  C   UNL     1       9.733   0.218   0.121  0.00  0.00    +0.199 A 
ATOM      4  C   UNL     1      10.918  -0.505   0.213  0.00  0.00    +0.137 A 
ATOM      5  N   UNL     1      10.860  -1.834   0.298  0.00  0.00    -0.226 NA
ATOM      6  C   UNL     1       9.701  -2.461   0.295  0.00  0.00    +0.224 A 
ATOM      7  N   UNL     1       8.557  -1.811   0.215  0.00  0.00    -0.217 NA
ATOM      8  H   UNL     1       7.312   1.159  -0.037  0.00  0.00    +0.172 HD
ENDROOT
BRANCH   1  11
ATOM      9  C   UNL     1       4.945   0.132  -0.049  0.00  0.00    +0.261 C 
ATOM     10  O   UNL     1       4.931   1.345  -0.134  0.00  0.00    -0.269 OA
ATOM     11  N   UNL     1       6.119  -0.524   0.038  0.00  0.00    -0.231 N 
ATOM     12  H   UNL     1       6.130  -1.491   0.106  0.00  0.00    +0.173 HD
BRANCH   9  22
ATOM     13  C   UNL     1      -0.015   1.356   0.069  0.00  0.00    +0.001 A 
ATOM     14  C   UNL     1       1.169   2.089   0.063  0.00  0.00    +0.001 A 
ATOM     15  C   UNL     1       2.379   1.464   0.027  0.00  0.00    +0.009 A 
ATOM     16  C   UNL     1       2.437   0.064  -0.004  0.00  0.00    -0.006 A 
ATOM     17  C   UNL     1       1.233  -0.683   0.003  0.00  0.00    -0.017 A 
ATOM     18  C   UNL     1       0.003  -0.004   0.040  0.00  0.00    +0.008 A 
ATOM     19  C   UNL     1       1.289  -2.087  -0.028  0.00  0.00    +0.008 A 
ATOM     20  C   UNL     1       2.494  -2.723  -0.063  0.00  0.00    +0.001 A 
ATOM     21  C   UNL     1       3.685  -2.008  -0.070  0.00  0.00    +0.014 A 
ATOM     22  C   UNL     1       3.677  -0.621  -0.042  0.00  0.00    +0.046 A 
ENDBRANCH   9  22
ENDBRANCH   1  11
BRANCH   3  23
ATOM     23  N   UNL     1       9.751   1.695   0.024  0.00  0.00    +0.063 N 
ATOM     24  O   UNL     1       9.718   2.367   1.028  0.00  0.00    -0.126 OA
ATOM     25  O   UNL     1       9.798   2.230  -1.060  0.00  0.00    -0.126 OA
ENDBRANCH   3  23
BRANCH   4  26
ATOM     26  S   UNL     1      12.473   0.323   0.217  0.00  0.00    -0.068 S 
BRANCH  26  27
ATOM     27  C   UNL     1      13.653  -0.986   0.198  0.00  0.00    +0.014 A 
ATOM     28  C   UNL     1      14.197  -1.415  -1.007  0.00  0.00    +0.016 A 
ATOM     29  C   UNL     1      15.121  -2.441  -1.018  0.00  0.00    +0.021 A 
ATOM     30  C   UNL     1      15.507  -3.041   0.168  0.00  0.00    +0.041 A 
ATOM     31  C   UNL     1      14.967  -2.615   1.369  0.00  0.00    +0.021 A 
ATOM     32  C   UNL     1      14.046  -1.586   1.387  0.00  0.00    +0.016 A 
ATOM     33 CL   UNL     1      16.670  -4.330   0.149  0.00  0.00    -0.084 Cl
ENDBRANCH  26  27
ENDBRANCH   4  26
TORSDOF 5
