REMARK  Name = ZINC22314964
REMARK  11 active torsions:
REMARK  status: ('A' for Active; 'I' for Inactive)
REMARK    1  A    between atoms: C_1  and  C_2
REMARK    2  A    between atoms: C_2  and  C_3
REMARK    3  A    between atoms: C_2  and  C_4
REMARK    4  A    between atoms: C_2  and  C_5
REMARK    5  A    between atoms: C_8  and  O_11
REMARK    6  A    between atoms: O_11  and  C_12
REMARK    7  A    between atoms: C_12  and  C_13
REMARK    8  A    between atoms: C_16  and  S_19
REMARK    9  A    between atoms: N_17  and  N_18
REMARK   10  A    between atoms: S_19  and  C_20
REMARK   11  A    between atoms: C_20  and  C_21
REMARK                            x       y       z     vdW  Elec       q    Type
REMARK                         _______ _______ _______ _____ _____    ______ ____
ROOT
ATOM      1  C   UNL     1      -6.539  -1.883  -4.845  0.00  0.00    +0.189 A 
ATOM      2  N   UNL     1      -6.128  -0.929  -4.059  0.00  0.00    -0.128 NA
ATOM      3  N   UNL     1      -5.103  -1.320  -3.389  0.00  0.00    -0.121 NA
ATOM      4  C   UNL     1      -4.802  -2.556  -3.715  0.00  0.00    +0.209 A 
ATOM      5  N   UNL     1      -5.706  -2.952  -4.659  0.00  0.00    -0.225 N 
ENDROOT
BRANCH   5   6
ATOM      6  N   UNL     1      -5.768  -4.164  -5.285  0.00  0.00    -0.295 N 
ATOM      7  H   UNL     1      -5.033  -4.946  -5.043  0.00  0.00    +0.163 HD
ATOM      8  H   UNL     1      -6.554  -4.359  -6.030  0.00  0.00    +0.163 HD
ENDBRANCH   5   6
BRANCH   1   9
ATOM      9  C   UNL     1      -7.712  -1.818  -5.790  0.00  0.00    +0.306 C 
BRANCH   9  10
ATOM     10  O   UNL     1      -7.272  -1.343  -7.064  0.00  0.00    -0.484 OA
BRANCH  10  14
ATOM     11  C   UNL     1     -10.129  -0.986 -10.018  0.00  0.00    -0.042 A 
ATOM     12  C   UNL     1      -8.814  -0.651 -10.285  0.00  0.00    +0.008 A 
ATOM     13  C   UNL     1      -7.855  -0.770  -9.298  0.00  0.00    +0.046 A 
ATOM     14  C   UNL     1      -8.213  -1.226  -8.037  0.00  0.00    +0.121 A 
ATOM     15  C   UNL     1      -9.532  -1.566  -7.773  0.00  0.00    +0.046 A 
ATOM     16  C   UNL     1     -10.488  -1.439  -8.762  0.00  0.00    +0.008 A 
BRANCH  11  18
ATOM     17  C   UNL     1     -10.796  -1.748 -12.281  0.00  0.00    +0.015 C 
ATOM     18  C   UNL     1     -11.172  -0.855 -11.097  0.00  0.00    -0.013 C 
ATOM     19  C   UNL     1     -12.533  -1.285 -10.546  0.00  0.00    +0.015 C 
ATOM     20  C   UNL     1     -11.247   0.601 -11.561  0.00  0.00    +0.015 C 
ENDBRANCH  11  18
ENDBRANCH  10  14
ENDBRANCH   9  10
ENDBRANCH   1   9
BRANCH   4  21
ATOM     21  S   UNL     1      -3.479  -3.519  -3.063  0.00  0.00    -0.075 S 
BRANCH  21  22
ATOM     22  C   UNL     1      -2.760  -2.325  -1.909  0.00  0.00    +0.173 C 
BRANCH  22  23
ATOM     23  C   UNL     1      -1.576  -2.948  -1.215  0.00  0.00    +0.226 C 
ATOM     24  O   UNL     1      -1.250  -4.087  -1.475  0.00  0.00    -0.275 OA
ATOM     25  N   UNL     1      -0.879  -2.239  -0.305  0.00  0.00    -0.296 N 
ATOM     26  C   UNL     1       0.278  -2.836   0.379  0.00  0.00    +0.113 C 
ATOM     27  C   UNL     1       1.537  -2.060  -0.035  0.00  0.00    +0.061 C 
ATOM     28  C   UNL     1       1.226  -0.598  -0.017  0.00  0.00    -0.004 A 
ATOM     29  C   UNL     1       0.002  -0.004   0.002  0.00  0.00    -0.020 A 
ATOM     30  C   UNL     1      -0.017   1.390   0.010  0.00  0.00    +0.013 A 
ATOM     31  C   UNL     1       1.145   2.082   0.002  0.00  0.00    +0.046 A 
ATOM     32  S   UNL     1       2.356   0.769  -0.018  0.00  0.00    -0.101 S 
ATOM     33  C   UNL     1      -1.264  -0.858   0.018  0.00  0.00    +0.143 C 
ENDBRANCH  22  23
ENDBRANCH  21  22
ENDBRANCH   4  21
TORSDOF 8
