REMARK  Name = ZINC63281848
REMARK  8 active torsions:
REMARK  status: ('A' for Active; 'I' for Inactive)
REMARK    1  A    between atoms: C_1  and  C_2
REMARK    2  A    between atoms: C_2  and  C_3
REMARK    3  A    between atoms: C_2  and  C_4
REMARK    4  A    between atoms: C_4  and  C_5
REMARK    5  A    between atoms: C_5  and  C_7
REMARK    6  A    between atoms: C_5  and  N_11
REMARK    7  A    between atoms: C_7  and  O_9
REMARK    8  A    between atoms: O_9  and  C_10
REMARK                            x       y       z     vdW  Elec       q    Type
REMARK                         _______ _______ _______ _____ _____    ______ ____
ROOT
ATOM      1  N   UNL     1      -0.288   1.102   2.667  0.00  0.00    -0.286 N 
ATOM      2  C   UNL     1      -1.344   1.602   3.339  0.00  0.00    +0.303 C 
ATOM      3  O   UNL     1      -2.235   0.862   3.708  0.00  0.00    -0.253 OA
ATOM      4  N   UNL     1      -1.412   2.922   3.602  0.00  0.00    -0.283 N 
ATOM      5  C   UNL     1      -0.397   3.825   3.049  0.00  0.00    +0.114 C 
ATOM      6  C   UNL     1      -1.083   4.908   2.196  0.00  0.00    +0.052 C 
ATOM      7  C   UNL     1      -2.261   5.405   2.996  0.00  0.00    -0.035 C 
ATOM      8  C   UNL     1      -2.635   6.632   3.338  0.00  0.00    +0.001 A 
ATOM      9  C   UNL     1      -2.103   7.955   2.974  0.00  0.00    +0.030 A 
ATOM     10  C   UNL     1      -2.727   9.027   3.533  0.00  0.00    +0.042 A 
ATOM     11  C   UNL     1      -3.814   8.915   4.407  0.00  0.00    +0.022 A 
ATOM     12  C   UNL     1      -4.373   7.739   4.788  0.00  0.00    +0.027 A 
ATOM     13  C   UNL     1      -3.808   6.542   4.260  0.00  0.00    +0.043 A 
ATOM     14  N   UNL     1      -4.153   5.301   4.435  0.00  0.00    -0.376 N 
ATOM     15  C   UNL     1      -3.289   4.460   3.606  0.00  0.00    +0.124 C 
ATOM     16  C   UNL     1      -2.507   3.443   4.434  0.00  0.00    +0.138 C 
ATOM     17 CL   UNL     1      -2.144  10.615   3.142  0.00  0.00    -0.084 Cl
ATOM     18  H   UNL     1       0.387   1.700   2.309  0.00  0.00    +0.151 HD
ATOM     19  H   UNL     1      -4.862   4.986   5.017  0.00  0.00    +0.160 HD
ENDROOT
BRANCH   1  20
ATOM     20  C   UNL     1      -0.159  -0.345   2.477  0.00  0.00    +0.183 C 
BRANCH  20  21
ATOM     21  C   UNL     1       0.506  -0.953   3.685  0.00  0.00    +0.327 C 
ATOM     22  O   UNL     1       0.838  -0.250   4.610  0.00  0.00    -0.249 OA
BRANCH  21  23
ATOM     23  O   UNL     1       0.729  -2.276   3.733  0.00  0.00    -0.467 OA
ATOM     24  C   UNL     1       1.363  -2.784   4.908  0.00  0.00    +0.280 C 
ENDBRANCH  21  23
ENDBRANCH  20  21
BRANCH  20  25
ATOM     25  C   UNL     1       0.690  -0.622   1.234  0.00  0.00    +0.036 C 
BRANCH  25  27
ATOM     26  C   UNL     1       0.896  -0.205  -1.221  0.00  0.00    +0.007 C 
ATOM     27  C   UNL     1      -0.018  -0.063  -0.002  0.00  0.00    -0.015 C 
ATOM     28  C   UNL     1      -1.314  -0.841  -0.243  0.00  0.00    +0.007 C 
ENDBRANCH  25  27
ENDBRANCH  20  25
ENDBRANCH   1  20
TORSDOF 5
