REMARK  Name = ZINC51727785
REMARK  7 active torsions:
REMARK  status: ('A' for Active; 'I' for Inactive)
REMARK    1  A    between atoms: C_1  and  C_2
REMARK    2  A    between atoms: C_2  and  C_3
REMARK    3  A    between atoms: C_6  and  C_8
REMARK    4  A    between atoms: C_8  and  C_10
REMARK    5  A    between atoms: C_8  and  N_18
REMARK    6  A    between atoms: N_18  and  C_19
REMARK    7  A    between atoms: C_19  and  C_20
REMARK                            x       y       z     vdW  Elec       q    Type
REMARK                         _______ _______ _______ _____ _____    ______ ____
ROOT
ATOM      1  C   UNL     1      -4.461  -1.656   1.674  0.00  0.00    +0.029 C 
ENDROOT
BRANCH   1   2
ATOM      2  C   UNL     1      -5.170  -0.428   2.183  0.00  0.00    -0.019 A 
ATOM      3  C   UNL     1      -4.800   0.133   3.391  0.00  0.00    +0.006 A 
ATOM      4  C   UNL     1      -5.450   1.259   3.859  0.00  0.00    +0.015 A 
ATOM      5  C   UNL     1      -6.472   1.827   3.119  0.00  0.00    +0.021 A 
ATOM      6  C   UNL     1      -6.844   1.267   1.911  0.00  0.00    +0.053 A 
ATOM      7  C   UNL     1      -6.189   0.142   1.439  0.00  0.00    +0.126 A 
ATOM      8  F   UNL     1      -6.548  -0.402   0.256  0.00  0.00    -0.205 F 
ATOM      9 BR   UNL     1      -7.360   3.368   3.761  0.00  0.00    -0.050 Br
ENDBRANCH   1   2
BRANCH   1  13
ATOM     10  C   UNL     1      -1.412  -0.526   0.013  0.00  0.00    +0.105 A 
ATOM     11  C   UNL     1      -2.158  -0.797  -1.073  0.00  0.00    +0.045 A 
ATOM     12  C   UNL     1      -3.409  -1.260  -0.604  0.00  0.00    +0.043 A 
ATOM     13  C   UNL     1      -3.352  -1.244   0.740  0.00  0.00    +0.096 A 
ATOM     14  O   UNL     1      -2.138  -0.804   1.108  0.00  0.00    -0.466 OA
BRANCH  10  16
ATOM     15  C   UNL     1      -0.019   1.526   0.010  0.00  0.00    +0.012 C 
ATOM     16  C   UNL     1       0.002  -0.004   0.002  0.00  0.00    +0.071 C 
ENDBRANCH  10  16
ENDBRANCH   1  13
BRANCH   1  17
ATOM     17  N   UNL     1      -3.895  -2.400   2.807  0.00  0.00    +0.388 N 
ATOM     18  H   UNL     1      -3.352  -3.177   2.461  0.00  0.00    -0.084 HD
ATOM     19  H   UNL     1      -3.303  -1.789   3.349  0.00  0.00    -0.084 HD
BRANCH  17  20
ATOM     20  C   UNL     1      -4.984  -2.904   3.654  0.00  0.00    -0.085 C 
ATOM     21  C   UNL     1      -4.396  -3.680   4.834  0.00  0.00    -0.017 C 
ENDBRANCH  17  20
ENDBRANCH   1  17
TORSDOF 5
