REMARK  Name = ZINC13500217
REMARK  15 active torsions:
REMARK  status: ('A' for Active; 'I' for Inactive)
REMARK    1  A    between atoms: C_1  and  C_2
REMARK    2  A    between atoms: C_5  and  C_8
REMARK    3  A    between atoms: C_8  and  N_9
REMARK    4  A    between atoms: N_9  and  C_10
REMARK    5  A    between atoms: N_9  and  C_24
REMARK    6  A    between atoms: C_10  and  C_11
REMARK    7  A    between atoms: C_15  and  C_23
REMARK    8  A    between atoms: C_24  and  C_26
REMARK    9  A    between atoms: C_24  and  C_35
REMARK   10  A    between atoms: N_30  and  C_31
REMARK   11  A    between atoms: C_31  and  C_32
REMARK   12  A    between atoms: C_31  and  C_33
REMARK   13  A    between atoms: C_31  and  C_34
REMARK   14  A    between atoms: C_35  and  C_36
REMARK   15  A    between atoms: C_35  and  C_37
REMARK                            x       y       z     vdW  Elec       q    Type
REMARK                         _______ _______ _______ _____ _____    ______ ____
ROOT
ATOM      1  N   UNL     1      -2.350   0.229   1.569  0.00  0.00    +0.392 N 
ATOM      2  H   UNL     1      -2.246  -0.850   1.383  0.00  0.00    -0.080 HD
ENDROOT
BRANCH   1   3
ATOM      3  C   UNL     1      -3.375   0.411   2.606  0.00  0.00    -0.042 C 
BRANCH   3   8
ATOM      4  C   UNL     1      -2.409  -3.285   6.942  0.00  0.00    +0.044 C 
ATOM      5  C   UNL     1      -2.661  -2.321   5.811  0.00  0.00    -0.050 A 
ATOM      6  C   UNL     1      -2.179  -1.027   5.886  0.00  0.00    +0.003 A 
ATOM      7  C   UNL     1      -2.411  -0.143   4.848  0.00  0.00    +0.002 A 
ATOM      8  C   UNL     1      -3.123  -0.553   3.737  0.00  0.00    -0.064 A 
ATOM      9  C   UNL     1      -3.608  -1.845   3.664  0.00  0.00    +0.002 A 
ATOM     10  C   UNL     1      -3.373  -2.731   4.699  0.00  0.00    +0.003 A 
ENDBRANCH   3   8
ENDBRANCH   1   3
BRANCH   1  11
ATOM     11  C   UNL     1      -2.755   0.868   0.310  0.00  0.00    -0.036 C 
BRANCH  11  12
ATOM     12  C   UNL     1      -2.053   0.197  -0.842  0.00  0.00    +0.001 A 
ATOM     13  C   UNL     1      -2.368  -1.079  -1.174  0.00  0.00    +0.017 A 
ATOM     14  C   UNL     1      -1.671  -1.701  -2.302  0.00  0.00    -0.001 A 
ATOM     15  C   UNL     1      -1.956  -3.013  -2.695  0.00  0.00    +0.013 A 
ATOM     16  C   UNL     1      -1.284  -3.566  -3.747  0.00  0.00    -0.050 A 
ATOM     17  C   UNL     1      -0.320  -2.837  -4.431  0.00  0.00    +0.005 A 
ATOM     18  C   UNL     1      -0.023  -1.543  -4.062  0.00  0.00    +0.026 A 
ATOM     19  C   UNL     1      -0.695  -0.959  -2.993  0.00  0.00    +0.049 A 
ATOM     20  N   UNL     1      -0.417   0.333  -2.602  0.00  0.00    -0.322 N 
ATOM     21  H   UNL     1       0.345   0.918  -3.137  0.00  0.00    +0.169 HD
ATOM     22  C   UNL     1      -1.066   0.897  -1.568  0.00  0.00    +0.251 A 
ATOM     23  O   UNL     1      -0.795   2.042  -1.250  0.00  0.00    -0.268 OA
ATOM     24  C   UNL     1      -1.591  -4.979  -4.170  0.00  0.00    +0.044 C 
ENDBRANCH  11  12
ENDBRANCH   1  11
BRANCH   1  25
ATOM     25  C   UNL     1      -1.048   0.736   2.022  0.00  0.00    +0.006 C 
BRANCH  25  26
ATOM     26  C   UNL     1       0.053   0.060   1.245  0.00  0.00    +0.139 A 
ATOM     27  N   UNL     1       0.854   0.622   0.373  0.00  0.00    -0.115 NA
ATOM     28  N   UNL     1       1.655  -0.283  -0.072  0.00  0.00    -0.023 NA
ATOM     29  N   UNL     1       1.386  -1.408   0.493  0.00  0.00    -0.043 NA
ATOM     30  N   UNL     1       0.407  -1.236   1.316  0.00  0.00    -0.226 N 
BRANCH  30  31
ATOM     31  C   UNL     1      -0.206  -2.261   2.165  0.00  0.00    +0.059 C 
ATOM     32  C   UNL     1      -1.652  -2.492   1.722  0.00  0.00    +0.036 C 
ATOM     33  C   UNL     1       0.582  -3.566   2.039  0.00  0.00    +0.036 C 
ATOM     34  C   UNL     1      -0.188  -1.793   3.622  0.00  0.00    +0.036 C 
ENDBRANCH  30  31
ENDBRANCH  25  26
BRANCH  25  35
ATOM     35  C   UNL     1      -0.981   2.247   1.792  0.00  0.00    -0.024 C 
ATOM     36  C   UNL     1       0.342   2.789   2.338  0.00  0.00    +0.006 C 
ATOM     37  C   UNL     1      -2.147   2.925   2.513  0.00  0.00    +0.006 C 
ENDBRANCH  25  35
ENDBRANCH   1  25
TORSDOF 8
