REMARK  Name = ZINC46720872
REMARK  7 active torsions:
REMARK  status: ('A' for Active; 'I' for Inactive)
REMARK    1  A    between atoms: C_1  and  C_2
REMARK    2  A    between atoms: C_2  and  C_4
REMARK    3  A    between atoms: C_2  and  N_16
REMARK    4  A    between atoms: N_6  and  C_7
REMARK    5  A    between atoms: C_10  and  C_13
REMARK    6  A    between atoms: C_13  and  C_15
REMARK    7  A    between atoms: C_20  and  C_23
REMARK                            x       y       z     vdW  Elec       q    Type
REMARK                         _______ _______ _______ _____ _____    ______ ____
ROOT
ATOM      1  N   UNL     1       0.516  -0.654   1.217  0.00  0.00    +0.388 N 
ATOM      2  C   UNL     1       0.464  -2.109   1.037  0.00  0.00    -0.078 C 
ATOM      3  C   UNL     1       1.137  -2.799   2.226  0.00  0.00    -0.018 C 
ATOM      4  C   UNL     1       0.403  -2.415   3.514  0.00  0.00    +0.009 C 
ATOM      5  C   UNL     1       0.400  -0.890   3.653  0.00  0.00    +0.059 C 
ATOM      6  C   UNL     1      -0.246  -0.271   2.411  0.00  0.00    -0.065 C 
ATOM      7  H   UNL     1       1.477  -0.365   1.325  0.00  0.00    -0.081 HD
ENDROOT
BRANCH   5   8
ATOM      8  C   UNL     1      -0.386  -0.498   4.878  0.00  0.00    +0.198 A 
ATOM      9  N   UNL     1      -1.638  -0.779   5.078  0.00  0.00    -0.213 NA
ATOM     10  C   UNL     1      -2.014  -0.272   6.284  0.00  0.00    +0.110 A 
ATOM     11  C   UNL     1      -3.212  -0.270   7.000  0.00  0.00    +0.031 A 
ATOM     12  C   UNL     1      -3.271   0.346   8.230  0.00  0.00    +0.002 A 
ATOM     13  C   UNL     1      -2.149   0.965   8.760  0.00  0.00    +0.004 A 
ATOM     14  C   UNL     1      -0.959   0.972   8.063  0.00  0.00    +0.048 A 
ATOM     15  C   UNL     1      -0.881   0.355   6.824  0.00  0.00    +0.155 A 
ATOM     16  O   UNL     1       0.110   0.187   5.920  0.00  0.00    -0.440 OA
ENDBRANCH   5   8
BRANCH   1  18
ATOM     17  C   UNL     1      -0.125   1.515   0.277  0.00  0.00    -0.004 C 
ATOM     18  C   UNL     1      -0.061   0.005   0.037  0.00  0.00    +0.016 C 
BRANCH  18  19
ATOM     19  C   UNL     1       0.800  -0.277  -1.167  0.00  0.00    +0.203 C 
ATOM     20  O   UNL     1       1.907  -0.750  -1.024  0.00  0.00    -0.277 OA
ATOM     21  N   UNL     1       0.339  -0.003  -2.404  0.00  0.00    -0.287 N 
ATOM     22  H   UNL     1      -0.515   0.444  -2.515  0.00  0.00    +0.155 HD
BRANCH  21  23
ATOM     23  C   UNL     1       1.088  -0.362  -3.522  0.00  0.00    +0.033 A 
ATOM     24  C   UNL     1       0.445  -0.780  -4.684  0.00  0.00    +0.024 A 
ATOM     25  C   UNL     1       1.178  -1.134  -5.786  0.00  0.00    +0.013 A 
ATOM     26  C   UNL     1       2.577  -1.075  -5.743  0.00  0.00    +0.017 A 
ATOM     27  C   UNL     1       3.220  -0.653  -4.572  0.00  0.00    +0.013 A 
ATOM     28  C   UNL     1       2.478  -0.296  -3.476  0.00  0.00    +0.024 A 
BRANCH  26  29
ATOM     29  C   UNL     1       3.367  -1.453  -6.921  0.00  0.00    +0.160 C 
ATOM     30  O   UNL     1       2.808  -1.818  -7.934  0.00  0.00    -0.292 OA
ATOM     31  C   UNL     1       4.872  -1.388  -6.872  0.00  0.00    +0.091 C 
ENDBRANCH  26  29
ENDBRANCH  21  23
ENDBRANCH  18  19
ENDBRANCH   1  18
TORSDOF 5
