REMARK  Name = ZINC67373666
REMARK  7 active torsions:
REMARK  status: ('A' for Active; 'I' for Inactive)
REMARK    1  A    between atoms: C_1  and  C_2
REMARK    2  A    between atoms: C_4  and  N_24
REMARK    3  A    between atoms: C_11  and  C_14
REMARK    4  A    between atoms: C_14  and  C_16
REMARK    5  A    between atoms: C_14  and  O_23
REMARK    6  A    between atoms: N_24  and  C_25
REMARK    7  A    between atoms: N_24  and  C_26
REMARK                            x       y       z     vdW  Elec       q    Type
REMARK                         _______ _______ _______ _____ _____    ______ ____
ROOT
ATOM      1  C   UNL     1      -0.438  -2.878  -2.404  0.00  0.00    +0.063 C 
ATOM      2  C   UNL     1      -0.197  -2.085  -1.145  0.00  0.00    +0.019 A 
ATOM      3  C   UNL     1       0.004  -0.720  -1.207  0.00  0.00    +0.064 A 
ATOM      4  C   UNL     1       0.223  -0.024  -0.017  0.00  0.00    +0.126 A 
ATOM      5  N   UNL     1       0.232  -0.695   1.131  0.00  0.00    -0.201 NA
ATOM      6  C   UNL     1       0.035  -2.005   1.148  0.00  0.00    +0.197 A 
ATOM      7  N   UNL     1      -0.180  -2.689   0.034  0.00  0.00    -0.331 N 
ATOM      8  N   UNL     1       0.051  -2.674   2.359  0.00  0.00    -0.301 N 
ATOM      9  C   UNL     1       0.150  -1.931   3.623  0.00  0.00    +0.108 C 
ATOM     10  C   UNL     1       1.324  -2.491   4.432  0.00  0.00    +0.025 C 
ATOM     11  C   UNL     1       1.147  -4.002   4.603  0.00  0.00    +0.025 C 
ATOM     12  C   UNL     1       1.143  -4.675   3.229  0.00  0.00    +0.025 C 
ATOM     13  C   UNL     1      -0.039  -4.139   2.406  0.00  0.00    +0.108 C 
ATOM     14  H   UNL     1      -0.324  -3.647   0.082  0.00  0.00    +0.168 HD
ENDROOT
BRANCH   4  15
ATOM     15  N   UNL     1       0.429   1.346  -0.031  0.00  0.00    -0.321 N 
ATOM     16  C   UNL     1       0.309   2.092  -1.286  0.00  0.00    +0.130 C 
ATOM     17  C   UNL     1       0.767   2.049   1.209  0.00  0.00    +0.130 C 
ENDBRANCH   4  15
BRANCH  11  18
ATOM     18  C   UNL     1       2.299  -4.559   5.440  0.00  0.00    +0.148 C 
BRANCH  18  19
ATOM     19  C   UNL     1       2.125  -6.047   5.609  0.00  0.00    -0.019 A 
ATOM     20  C   UNL     1       2.594  -6.912   4.638  0.00  0.00    +0.007 A 
ATOM     21  C   UNL     1       2.434  -8.276   4.791  0.00  0.00    +0.020 A 
ATOM     22  C   UNL     1       1.804  -8.776   5.917  0.00  0.00    +0.041 A 
ATOM     23  C   UNL     1       1.335  -7.910   6.888  0.00  0.00    +0.020 A 
ATOM     24  C   UNL     1       1.500  -6.546   6.736  0.00  0.00    +0.007 A 
ATOM     25 CL   UNL     1       1.602 -10.489   6.110  0.00  0.00    -0.084 Cl
ENDBRANCH  18  19
BRANCH  18  26
ATOM     26  O   UNL     1       3.539  -4.297   4.779  0.00  0.00    -0.387 OA
ATOM     27  H   UNL     1       3.607  -4.693   3.900  0.00  0.00    +0.210 HD
ENDBRANCH  18  26
ENDBRANCH  11  18
TORSDOF 4
