REMARK  Name = ZINC43736000
REMARK  10 active torsions:
REMARK  status: ('A' for Active; 'I' for Inactive)
REMARK    1  A    between atoms: C_1  and  C_2
REMARK    2  A    between atoms: C_2  and  C_8
REMARK    3  A    between atoms: N_3  and  O_4
REMARK    4  A    between atoms: O_4  and  C_5
REMARK    5  A    between atoms: C_5  and  C_7
REMARK    6  A    between atoms: C_15  and  C_41
REMARK    7  A    between atoms: C_25  and  C_40
REMARK    8  A    between atoms: C_28  and  O_31
REMARK    9  A    between atoms: O_31  and  C_32
REMARK   10  A    between atoms: C_32  and  C_34
REMARK                            x       y       z     vdW  Elec       q    Type
REMARK                         _______ _______ _______ _____ _____    ______ ____
ROOT
ATOM      1  C   UNL     1       0.018  -0.760  -1.302  0.00  0.00    +0.142 C 
ATOM      2  C   UNL     1       1.046  -0.464  -2.422  0.00  0.00    +0.158 C 
ATOM      3  O   UNL     1      -0.326  -0.099  -2.526  0.00  0.00    -0.358 OA
ATOM      4  C   UNL     1       1.514  -1.845  -2.952  0.00  0.00    +0.039 C 
ATOM      5  C   UNL     1       1.285  -2.766  -1.749  0.00  0.00    +0.004 C 
ATOM      6  C   UNL     1      -0.138  -2.278  -1.244  0.00  0.00    +0.008 C 
ATOM      7  C   UNL     1      -0.381  -2.883   0.125  0.00  0.00    +0.010 C 
ATOM      8  C   UNL     1      -0.502  -4.403  -0.069  0.00  0.00    +0.005 C 
ATOM      9  C   UNL     1       0.739  -4.991  -0.732  0.00  0.00    +0.003 C 
ATOM     10  C   UNL     1       1.175  -4.248  -2.057  0.00  0.00    +0.000 C 
ATOM     11  C   UNL     1       2.519  -4.763  -2.584  0.00  0.00    +0.031 C 
ATOM     12  C   UNL     1       2.456  -6.257  -2.721  0.00  0.00    -0.027 C 
ATOM     13  C   UNL     1       1.665  -7.002  -2.007  0.00  0.00    -0.064 C 
ATOM     14  C   UNL     1       0.538  -6.477  -0.975  0.00  0.00    -0.008 C 
ATOM     15  C   UNL     1       0.694  -7.249   0.338  0.00  0.00    +0.015 C 
ATOM     16  C   UNL     1       0.506  -8.744   0.074  0.00  0.00    +0.046 C 
ATOM     17  C   UNL     1       1.600  -9.242  -0.872  0.00  0.00    +0.181 C 
ATOM     18  C   UNL     1       1.697  -8.505  -2.230  0.00  0.00    +0.075 C 
ATOM     19  C   UNL     1      -0.895  -6.691  -1.468  0.00  0.00    +0.016 C 
ATOM     20  C   UNL     1      -1.234  -2.724  -2.214  0.00  0.00    +0.015 C 
ENDROOT
BRANCH   1  22
ATOM     21  C   UNL     1       1.094  -0.197   1.009  0.00  0.00    +0.067 C 
ATOM     22  C   UNL     1      -0.006   0.002  -0.002  0.00  0.00    +0.090 C 
ATOM     23  N   UNL     1      -0.961   0.818   0.244  0.00  0.00    -0.081 NA
BRANCH  23  24
ATOM     24  O   UNL     1      -1.937   1.085  -0.747  0.00  0.00    -0.318 OA
BRANCH  24  25
ATOM     25  C   UNL     1      -2.820   2.035  -0.402  0.00  0.00    +0.333 C 
ATOM     26  O   UNL     1      -2.790   2.513   0.707  0.00  0.00    -0.249 OA
ATOM     27  C   UNL     1      -3.848   2.506  -1.398  0.00  0.00    +0.138 C 
ENDBRANCH  24  25
ENDBRANCH  23  24
ENDBRANCH   1  22
BRANCH  17  28
ATOM     28  O   UNL     1       2.882  -8.944  -0.317  0.00  0.00    -0.458 OA
BRANCH  28  29
ATOM     29  C   UNL     1       3.891  -9.782  -0.623  0.00  0.00    +0.339 C 
ATOM     30  O   UNL     1       3.688 -10.739  -1.342  0.00  0.00    -0.245 OA
BRANCH  29  31
ATOM     31  C   UNL     1       5.245  -9.536  -0.084  0.00  0.00    +0.059 A 
ATOM     32  C   UNL     1       5.480  -8.439   0.747  0.00  0.00    +0.015 A 
ATOM     33  C   UNL     1       6.747  -8.216   1.247  0.00  0.00    +0.001 A 
ATOM     34  C   UNL     1       7.782  -9.075   0.925  0.00  0.00    +0.000 A 
ATOM     35  C   UNL     1       7.556 -10.164   0.102  0.00  0.00    +0.001 A 
ATOM     36  C   UNL     1       6.293 -10.403  -0.400  0.00  0.00    +0.015 A 
ENDBRANCH  29  31
ENDBRANCH  28  29
ENDBRANCH  17  28
TORSDOF 6
