REMARK  Name = ZINC06139769
REMARK  3 active torsions:
REMARK  status: ('A' for Active; 'I' for Inactive)
REMARK    1  A    between atoms: C_4  and  C_7
REMARK    2  A    between atoms: N_12  and  C_15
REMARK    3  A    between atoms: C_13  and  O_14
REMARK                            x       y       z     vdW  Elec       q    Type
REMARK                         _______ _______ _______ _____ _____    ______ ____
ROOT
ATOM      1  C   UNL     1       3.711  -0.707  -0.038  0.00  0.00    +0.092 C 
ATOM      2  C   UNL     1       3.815  -1.573   1.186  0.00  0.00    +0.067 A 
ATOM      3  C   UNL     1       3.679  -2.979   1.122  0.00  0.00    +0.153 A 
ATOM      4  N   UNL     1       3.809  -3.460   2.323  0.00  0.00    -0.148 NA
ATOM      5  N   UNL     1       4.037  -2.388   3.202  0.00  0.00    -0.199 N 
ATOM      6  C   UNL     1       4.037  -1.236   2.471  0.00  0.00    +0.222 A 
ATOM      7  N   UNL     1       3.449  -3.617  -0.101  0.00  0.00    -0.301 N 
ATOM      8  C   UNL     1       3.666  -2.909  -1.257  0.00  0.00    +0.017 C 
ATOM      9  C   UNL     1       3.790  -1.567  -1.281  0.00  0.00    +0.024 C 
ATOM     10  C   UNL     1       4.003  -0.887  -2.495  0.00  0.00    +0.162 C 
ATOM     11  C   UNL     1       4.089  -1.619  -3.804  0.00  0.00    +0.080 C 
ATOM     12  C   UNL     1       3.253  -2.900  -3.709  0.00  0.00    +0.014 C 
ATOM     13  C   UNL     1       3.771  -3.719  -2.530  0.00  0.00    +0.051 C 
ATOM     14  O   UNL     1       4.120   0.323  -2.484  0.00  0.00    -0.292 OA
ATOM     15  H   UNL     1       3.145  -4.537  -0.131  0.00  0.00    +0.153 HD
ENDROOT
BRANCH   1  19
ATOM     16  C   UNL     1      -0.017   1.378   0.010  0.00  0.00    +0.000 A 
ATOM     17  C   UNL     1       1.171   2.086   0.002  0.00  0.00    +0.000 A 
ATOM     18  C   UNL     1       2.377   1.411  -0.013  0.00  0.00    +0.004 A 
ATOM     19  C   UNL     1       2.396   0.029  -0.020  0.00  0.00    -0.035 A 
ATOM     20  C   UNL     1       1.208  -0.679  -0.012  0.00  0.00    +0.004 A 
ATOM     21  C   UNL     1       0.002  -0.004   0.002  0.00  0.00    +0.000 A 
ENDBRANCH   1  19
BRANCH   5  22
ATOM     22  C   UNL     1       4.231  -2.486   4.586  0.00  0.00    +0.069 A 
ATOM     23  C   UNL     1       5.100  -1.615   5.230  0.00  0.00    +0.028 A 
ATOM     24  C   UNL     1       5.289  -1.714   6.594  0.00  0.00    +0.002 A 
ATOM     25  C   UNL     1       4.614  -2.678   7.319  0.00  0.00    +0.000 A 
ATOM     26  C   UNL     1       3.748  -3.547   6.681  0.00  0.00    +0.002 A 
ATOM     27  C   UNL     1       3.549  -3.449   5.318  0.00  0.00    +0.028 A 
ENDBRANCH   5  22
BRANCH   6  28
ATOM     28  O   UNL     1       4.225   0.019   2.952  0.00  0.00    -0.492 OA
ATOM     29  H   UNL     1       3.409   0.464   3.220  0.00  0.00    +0.294 HD
ENDBRANCH   6  28
TORSDOF 3
