REMARK  Name = ZINC39690718
REMARK  9 active torsions:
REMARK  status: ('A' for Active; 'I' for Inactive)
REMARK    1  A    between atoms: C_1  and  C_2
REMARK    2  A    between atoms: C_2  and  C_3
REMARK    3  A    between atoms: C_3  and  C_4
REMARK    4  A    between atoms: C_4  and  C_5
REMARK    5  A    between atoms: C_5  and  C_7
REMARK    6  A    between atoms: C_5  and  C_8
REMARK    7  A    between atoms: C_12  and  C_21
REMARK    8  A    between atoms: N_23  and  C_24
REMARK    9  A    between atoms: C_24  and  C_25
REMARK                            x       y       z     vdW  Elec       q    Type
REMARK                         _______ _______ _______ _____ _____    ______ ____
ROOT
ATOM      1  C   UNL     1       1.596  -3.795   2.569  0.00  0.00    +0.218 C 
ATOM      2  O   UNL     1       1.012  -4.316   1.643  0.00  0.00    -0.275 OA
ATOM      3  N   UNL     1       2.110  -4.555   3.556  0.00  0.00    -0.300 N 
ATOM      4  C   UNL     1       2.844  -4.104   4.762  0.00  0.00    +0.121 C 
ATOM      5  C   UNL     1       2.333  -5.022   5.896  0.00  0.00    +0.100 C 
ATOM      6  C   UNL     1       1.827  -6.285   5.180  0.00  0.00    -0.004 C 
ATOM      7  C   UNL     1       2.063  -6.031   3.684  0.00  0.00    +0.115 C 
ATOM      8  C   UNL     1       0.338  -6.484   5.447  0.00  0.00    -0.010 C 
ATOM      9  C   UNL     1      -0.129  -7.777   4.772  0.00  0.00    -0.082 C 
ATOM     10  N   UNL     1       0.639  -8.911   5.300  0.00  0.00    +0.379 N 
ATOM     11  C   UNL     1       2.058  -8.758   4.958  0.00  0.00    -0.082 C 
ATOM     12  C   UNL     1       2.618  -7.506   5.640  0.00  0.00    -0.010 C 
ATOM     13  H   UNL     1       0.538  -8.946   6.303  0.00  0.00    -0.086 HD
ATOM     14  H   UNL     1       0.289  -9.768   4.899  0.00  0.00    -0.086 HD
ENDROOT
BRANCH   5  15
ATOM     15  C   UNL     1       1.208  -4.354   6.644  0.00  0.00    +0.218 C 
ATOM     16  O   UNL     1       0.476  -3.575   6.071  0.00  0.00    -0.275 OA
ATOM     17  N   UNL     1       1.016  -4.623   7.951  0.00  0.00    -0.311 N 
ATOM     18  H   UNL     1       1.601  -5.246   8.409  0.00  0.00    +0.149 HD
BRANCH  17  19
ATOM     19  C   UNL     1      -0.078  -3.974   8.678  0.00  0.00    +0.140 C 
BRANCH  19  20
ATOM     20  C   UNL     1      -0.075  -4.442  10.111  0.00  0.00    -0.016 A 
ATOM     21  C   UNL     1      -0.954  -5.428  10.518  0.00  0.00    +0.006 A 
ATOM     22  C   UNL     1      -0.951  -5.858  11.832  0.00  0.00    +0.000 A 
ATOM     23  C   UNL     1      -0.069  -5.301  12.739  0.00  0.00    +0.001 A 
ATOM     24  C   UNL     1       0.810  -4.315  12.334  0.00  0.00    +0.015 A 
ATOM     25  C   UNL     1       0.811  -3.888  11.018  0.00  0.00    +0.023 A 
ATOM     26 BR   UNL     1       2.018  -2.544  10.460  0.00  0.00    -0.050 Br
ENDBRANCH  19  20
ENDBRANCH  17  19
ENDBRANCH   5  15
BRANCH   1  27
ATOM     27  C   UNL     1       1.748  -2.296   2.616  0.00  0.00    +0.072 C 
ATOM     28  C   UNL     1       3.234  -1.933   2.627  0.00  0.00    +0.017 C 
BRANCH  27  29
ATOM     29  C   UNL     1       1.081  -1.677   1.386  0.00  0.00    +0.012 C 
BRANCH  29  30
ATOM     30  C   UNL     1       1.125  -0.151   1.496  0.00  0.00    +0.000 C 
BRANCH  30  32
ATOM     31  C   UNL     1       0.501   1.993   0.375  0.00  0.00    +0.004 C 
ATOM     32  C   UNL     1       0.457   0.468   0.266  0.00  0.00    -0.003 C 
ENDBRANCH  30  32
ENDBRANCH  29  30
ENDBRANCH  27  29
ENDBRANCH   1  27
TORSDOF 7
