REMARK  Name = ZINC36730575
REMARK  9 active torsions:
REMARK  status: ('A' for Active; 'I' for Inactive)
REMARK    1  A    between atoms: C_1  and  C_2
REMARK    2  A    between atoms: N_10  and  C_14
REMARK    3  A    between atoms: C_14  and  C_15
REMARK    4  A    between atoms: N_17  and  C_18
REMARK    5  A    between atoms: C_18  and  C_20
REMARK    6  A    between atoms: C_18  and  C_21
REMARK    7  A    between atoms: C_24  and  C_27
REMARK    8  A    between atoms: C_27  and  C_28
REMARK    9  A    between atoms: C_27  and  C_29
REMARK                            x       y       z     vdW  Elec       q    Type
REMARK                         _______ _______ _______ _____ _____    ______ ____
ROOT
ATOM      1  C   UNL     1       3.325  -5.738  -0.062  0.00  0.00    +0.213 C 
ENDROOT
BRANCH   1  11
ATOM      2  C   UNL     1      -0.019   1.526   0.010  0.00  0.00    +0.007 C 
ATOM      3  C   UNL     1       0.002  -0.004   0.002  0.00  0.00    -0.014 C 
ATOM      4  C   UNL     1       0.716  -0.497  -1.258  0.00  0.00    +0.006 C 
ATOM      5  C   UNL     1       0.727  -2.028  -1.271  0.00  0.00    +0.035 C 
ATOM      6  C   UNL     1       1.442  -2.543  -0.027  0.00  0.00    +0.113 C 
ATOM      7  C   UNL     1       0.753  -2.041   1.238  0.00  0.00    +0.035 C 
ATOM      8  C   UNL     1       0.742  -0.510   1.242  0.00  0.00    +0.006 C 
ATOM      9  C   UNL     1       1.495  -4.053  -0.035  0.00  0.00    +0.247 C 
ATOM     10  O   UNL     1       0.556  -4.821  -0.030  0.00  0.00    -0.273 OA
ATOM     11  N   UNL     1       2.807  -4.367  -0.051  0.00  0.00    -0.215 N 
ATOM     12  C   UNL     1       3.576  -3.272  -0.053  0.00  0.00    +0.310 C 
ATOM     13  O   UNL     1       4.791  -3.300  -0.065  0.00  0.00    -0.252 OA
ATOM     14  N   UNL     1       2.853  -2.136  -0.039  0.00  0.00    -0.285 N 
ATOM     15  H   UNL     1       3.196  -1.229  -0.038  0.00  0.00    +0.151 HD
ENDBRANCH   1  11
BRANCH   1  16
ATOM     16  C   UNL     1       3.488  -6.201  -1.487  0.00  0.00    +0.231 C 
ATOM     17  O   UNL     1       3.200  -5.459  -2.403  0.00  0.00    -0.274 OA
ATOM     18  N   UNL     1       3.954  -7.439  -1.744  0.00  0.00    -0.307 N 
ATOM     19  H   UNL     1       4.185  -8.032  -1.012  0.00  0.00    +0.149 HD
BRANCH  18  20
ATOM     20  C   UNL     1       4.112  -7.889  -3.129  0.00  0.00    +0.100 C 
ATOM     21  C   UNL     1       5.469  -7.426  -3.664  0.00  0.00    +0.033 C 
BRANCH  20  22
ATOM     22  C   UNL     1       4.039  -9.393  -3.180  0.00  0.00    -0.027 A 
ATOM     23  C   UNL     1       4.642 -10.149  -2.191  0.00  0.00    +0.006 A 
ATOM     24  C   UNL     1       4.575 -11.528  -2.238  0.00  0.00    +0.004 A 
ATOM     25  C   UNL     1       3.904 -12.153  -3.273  0.00  0.00    -0.045 A 
ATOM     26  C   UNL     1       3.301 -11.398  -4.261  0.00  0.00    +0.004 A 
ATOM     27  C   UNL     1       3.365 -10.018  -4.212  0.00  0.00    +0.006 A 
BRANCH  25  28
ATOM     28  C   UNL     1       3.832 -13.658  -3.324  0.00  0.00    +0.013 C 
ATOM     29  C   UNL     1       2.368 -14.100  -3.284  0.00  0.00    +0.012 C 
ATOM     30  C   UNL     1       4.480 -14.156  -4.618  0.00  0.00    +0.012 C 
ENDBRANCH  25  28
ENDBRANCH  20  22
ENDBRANCH  18  20
ENDBRANCH   1  16
TORSDOF 5
