REMARK  Name = ZINC35415659
REMARK  9 active torsions:
REMARK  status: ('A' for Active; 'I' for Inactive)
REMARK    1  A    between atoms: C_1  and  C_2
REMARK    2  A    between atoms: C_9  and  N_22
REMARK    3  A    between atoms: C_10  and  C_11
REMARK    4  A    between atoms: N_13  and  C_14
REMARK    5  A    between atoms: C_19  and  O_20
REMARK    6  A    between atoms: O_20  and  C_21
REMARK    7  A    between atoms: C_23  and  C_25
REMARK    8  A    between atoms: C_25  and  N_26
REMARK    9  A    between atoms: C_31  and  C_33
REMARK                            x       y       z     vdW  Elec       q    Type
REMARK                         _______ _______ _______ _____ _____    ______ ____
ROOT
ATOM      1  C   UNL     1       0.029   1.512   0.043  0.00  0.00    +0.008 C 
ATOM      2  C   UNL     1       0.040  -0.018   0.029  0.00  0.00    -0.009 C 
ATOM      3  C   UNL     1      -1.399  -0.540   0.041  0.00  0.00    +0.008 C 
ATOM      4  C   UNL     1      -1.408  -2.048  -0.221  0.00  0.00    +0.037 C 
ATOM      5  C   UNL     1      -0.446  -2.717   0.749  0.00  0.00    -0.023 A 
ATOM      6  C   UNL     1       0.506  -2.009   1.394  0.00  0.00    -0.004 A 
ATOM      7  S   UNL     1       1.355  -3.200   2.388  0.00  0.00    -0.077 S 
ATOM      8  C   UNL     1       0.496  -4.582   1.976  0.00  0.00    +0.084 A 
ATOM      9  C   UNL     1      -0.451  -4.134   1.069  0.00  0.00    +0.069 A 
ATOM     10  C   UNL     1       0.771  -0.539   1.274  0.00  0.00    +0.046 C 
ENDROOT
BRANCH   9  11
ATOM     11  C   UNL     1      -1.418  -5.051   0.459  0.00  0.00    +0.251 C 
ATOM     12  O   UNL     1      -1.148  -5.614  -0.587  0.00  0.00    -0.270 OA
ATOM     13  N   UNL     1      -2.607  -5.272   1.055  0.00  0.00    -0.278 N 
ATOM     14  H   UNL     1      -2.797  -4.875   1.919  0.00  0.00    +0.155 HD
BRANCH  13  15
ATOM     15  C   UNL     1      -3.568  -6.074   0.426  0.00  0.00    +0.076 A 
ATOM     16  C   UNL     1      -3.173  -7.163  -0.337  0.00  0.00    +0.027 A 
ATOM     17  C   UNL     1      -4.122  -7.954  -0.956  0.00  0.00    +0.002 A 
ATOM     18  C   UNL     1      -5.467  -7.661  -0.818  0.00  0.00    +0.004 A 
ATOM     19  C   UNL     1      -5.868  -6.577  -0.060  0.00  0.00    +0.047 A 
ATOM     20  C   UNL     1      -4.923  -5.783   0.569  0.00  0.00    +0.141 A 
BRANCH  20  21
ATOM     21  O   UNL     1      -5.316  -4.720   1.320  0.00  0.00    -0.493 OA
ATOM     22  C   UNL     1      -6.721  -4.483   1.423  0.00  0.00    +0.277 C 
ENDBRANCH  20  21
ENDBRANCH  13  15
ENDBRANCH   9  11
BRANCH   8  23
ATOM     23  N   UNL     1       0.690  -5.876   2.437  0.00  0.00    -0.281 N 
ATOM     24  C   UNL     1       1.669  -6.135   3.326  0.00  0.00    +0.201 C 
ATOM     25  O   UNL     1       2.380  -5.236   3.724  0.00  0.00    -0.278 OA
ATOM     26  H   UNL     1       0.122  -6.594   2.118  0.00  0.00    +0.155 HD
BRANCH  24  27
ATOM     27  C   UNL     1       1.880  -7.540   3.827  0.00  0.00    +0.019 C 
BRANCH  27  28
ATOM     28  N   UNL     1       2.998  -7.558   4.779  0.00  0.00    +0.387 N 
ATOM     29  C   UNL     1       2.644  -6.765   5.963  0.00  0.00    -0.078 C 
ATOM     30  C   UNL     1       3.834  -6.713   6.922  0.00  0.00    -0.019 C 
ATOM     31  C   UNL     1       4.200  -8.137   7.351  0.00  0.00    -0.003 C 
ATOM     32  C   UNL     1       4.495  -8.975   6.104  0.00  0.00    -0.016 C 
ATOM     33  C   UNL     1       3.280  -8.943   5.175  0.00  0.00    -0.071 C 
ATOM     34  C   UNL     1       3.571  -9.780   3.927  0.00  0.00    -0.013 C 
ATOM     35  H   UNL     1       3.817  -7.161   4.343  0.00  0.00    -0.081 HD
ENDBRANCH  27  28
ENDBRANCH  24  27
ENDBRANCH   8  23
TORSDOF 6
