REMARK  Name = ZINC39655633
REMARK  12 active torsions:
REMARK  status: ('A' for Active; 'I' for Inactive)
REMARK    1  A    between atoms: C_1  and  C_2
REMARK    2  A    between atoms: C_2  and  O_3
REMARK    3  A    between atoms: O_3  and  C_4
REMARK    4  A    between atoms: C_11  and  C_18
REMARK    5  A    between atoms: C_13  and  O_14
REMARK    6  A    between atoms: C_18  and  O_19
REMARK    7  A    between atoms: O_19  and  C_20
REMARK    8  A    between atoms: C_20  and  C_22
REMARK    9  A    between atoms: C_22  and  C_24
REMARK   10  A    between atoms: C_22  and  N_27
REMARK   11  A    between atoms: C_24  and  C_25
REMARK   12  A    between atoms: C_24  and  C_26
REMARK                            x       y       z     vdW  Elec       q    Type
REMARK                         _______ _______ _______ _____ _____    ______ ____
ROOT
ATOM      1  C   UNL     1       2.017  -6.523  -0.604  0.00  0.00    +0.405 C 
ATOM      2  O   UNL     1       1.667  -5.700  -1.433  0.00  0.00    -0.226 OA
ATOM      3  N   UNL     1       1.118  -7.318  -0.039  0.00  0.00    -0.251 N 
ATOM      4  C   UNL     1      -0.168  -7.311  -0.479  0.00  0.00    +0.040 A 
ATOM      5  C   UNL     1      -1.182  -7.881   0.313  0.00  0.00    +0.024 A 
ATOM      6  C   UNL     1      -2.470  -7.880  -0.116  0.00  0.00    +0.014 A 
ATOM      7  C   UNL     1      -2.797  -7.306  -1.358  0.00  0.00    +0.024 A 
ATOM      8  C   UNL     1      -4.129  -7.294  -1.821  0.00  0.00    +0.007 A 
ATOM      9  C   UNL     1      -4.396  -6.718  -3.047  0.00  0.00    +0.095 A 
ATOM     10  C   UNL     1      -3.365  -6.168  -3.793  0.00  0.00    +0.285 A 
ATOM     11  O   UNL     1      -2.102  -6.181  -3.351  0.00  0.00    -0.425 OA
ATOM     12  C   UNL     1      -1.785  -6.731  -2.160  0.00  0.00    +0.141 A 
ATOM     13  C   UNL     1      -0.477  -6.732  -1.712  0.00  0.00    +0.070 A 
ATOM     14  H   UNL     1       1.379  -7.904   0.689  0.00  0.00    +0.158 HD
ENDROOT
BRANCH  10  15
ATOM     15  O   UNL     1      -3.639  -5.609  -4.987  0.00  0.00    -0.480 OA
ATOM     16  H   UNL     1      -2.865  -5.250  -5.441  0.00  0.00    +0.295 HD
ENDBRANCH  10  15
BRANCH   1  17
ATOM     17  O   UNL     1       3.320  -6.626  -0.261  0.00  0.00    -0.450 OA
BRANCH  17  19
ATOM     18  C   UNL     1       5.651  -6.000  -0.397  0.00  0.00    +0.048 C 
ATOM     19  C   UNL     1       4.233  -5.738  -0.909  0.00  0.00    +0.230 C 
ENDBRANCH  17  19
ENDBRANCH   1  17
BRANCH   8  20
ATOM     20  C   UNL     1      -5.236  -7.898  -0.995  0.00  0.00    +0.268 C 
BRANCH  20  21
ATOM     21  O   UNL     1      -6.222  -6.901  -0.720  0.00  0.00    -0.459 OA
BRANCH  21  22
ATOM     22  C   UNL     1      -7.329  -7.301  -0.074  0.00  0.00    +0.329 C 
ATOM     23  O   UNL     1      -7.417  -8.438   0.327  0.00  0.00    -0.249 OA
BRANCH  22  24
ATOM     24  C   UNL     1      -8.462  -6.334   0.149  0.00  0.00    +0.196 C 
BRANCH  24  25
ATOM     25  N   UNL     1      -9.706  -7.079   0.362  0.00  0.00    -0.220 N 
ATOM     26  C   UNL     1      -9.946  -7.872   1.422  0.00  0.00    +0.255 C 
ATOM     27  O   UNL     1      -9.177  -8.081   2.339  0.00  0.00    -0.270 OA
ATOM     28  C   UNL     1     -11.301  -8.446   1.284  0.00  0.00    +0.049 A 
ATOM     29  C   UNL     1     -12.069  -9.309   2.048  0.00  0.00    +0.014 A 
ATOM     30  C   UNL     1     -13.340  -9.659   1.622  0.00  0.00    +0.001 A 
ATOM     31  C   UNL     1     -13.847  -9.152   0.439  0.00  0.00    +0.001 A 
ATOM     32  C   UNL     1     -13.090  -8.288  -0.336  0.00  0.00    +0.014 A 
ATOM     33  C   UNL     1     -11.817  -7.930   0.078  0.00  0.00    +0.049 A 
ATOM     34  C   UNL     1     -10.760  -7.055  -0.473  0.00  0.00    +0.255 C 
ATOM     35  O   UNL     1     -10.831  -6.423  -1.508  0.00  0.00    -0.270 OA
ENDBRANCH  24  25
BRANCH  24  36
ATOM     36  C   UNL     1      -8.165  -5.475   1.380  0.00  0.00    +0.015 C 
ATOM     37  C   UNL     1      -6.837  -4.741   1.180  0.00  0.00    +0.009 C 
ATOM     38  C   UNL     1      -9.288  -4.454   1.573  0.00  0.00    +0.009 C 
ENDBRANCH  24  36
ENDBRANCH  22  24
ENDBRANCH  21  22
ENDBRANCH  20  21
ENDBRANCH   8  20
TORSDOF 9
