REMARK  Name = ZINC16886260
REMARK  12 active torsions:
REMARK  status: ('A' for Active; 'I' for Inactive)
REMARK    1  A    between atoms: C_1  and  C_2
REMARK    2  A    between atoms: C_4  and  C_23
REMARK    3  A    between atoms: C_5  and  C_9
REMARK    4  A    between atoms: C_6  and  C_8
REMARK    5  A    between atoms: C_9  and  S_10
REMARK    6  A    between atoms: S_10  and  C_11
REMARK    7  A    between atoms: C_13  and  O_22
REMARK    8  A    between atoms: C_14  and  C_18
REMARK    9  A    between atoms: C_15  and  O_17
REMARK   10  A    between atoms: C_18  and  C_19
REMARK   11  A    between atoms: C_19  and  C_20
REMARK   12  A    between atoms: C_19  and  C_21
REMARK                            x       y       z     vdW  Elec       q    Type
REMARK                         _______ _______ _______ _____ _____    ______ ____
ROOT
ATOM      1  C   UNL     1       5.741  -1.842  -1.480  0.00  0.00    +0.195 A 
ATOM      2  N   UNL     1       6.145  -2.062  -0.237  0.00  0.00    -0.187 NA
ATOM      3  C   UNL     1       7.283  -2.704   0.004  0.00  0.00    +0.223 A 
ATOM      4  C   UNL     1       8.057  -3.137  -1.067  0.00  0.00    +0.075 A 
ATOM      5  C   UNL     1       7.604  -2.884  -2.357  0.00  0.00    +0.223 A 
ATOM      6  N   UNL     1       6.453  -2.241  -2.524  0.00  0.00    -0.187 NA
ENDROOT
BRANCH   5   7
ATOM      7  O   UNL     1       8.326  -3.288  -3.430  0.00  0.00    -0.492 OA
ATOM      8  H   UNL     1       8.967  -2.634  -3.741  0.00  0.00    +0.294 HD
ENDBRANCH   5   7
BRANCH   3   9
ATOM      9  O   UNL     1       7.688  -2.930   1.278  0.00  0.00    -0.492 OA
ATOM     10  H   UNL     1       8.236  -2.224   1.647  0.00  0.00    +0.294 HD
ENDBRANCH   3   9
BRANCH   1  11
ATOM     11  S   UNL     1       4.221  -0.993  -1.751  0.00  0.00    -0.081 S 
BRANCH  11  12
ATOM     12  C   UNL     1       3.711  -0.707  -0.038  0.00  0.00    +0.113 C 
BRANCH  12  17
ATOM     13  C   UNL     1      -1.332   2.114   0.020  0.00  0.00    +0.044 C 
ATOM     14  C   UNL     1      -0.017   1.378   0.010  0.00  0.00    -0.050 A 
ATOM     15  C   UNL     1       1.171   2.086   0.002  0.00  0.00    +0.007 A 
ATOM     16  C   UNL     1       2.377   1.411  -0.014  0.00  0.00    -0.046 A 
ATOM     17  C   UNL     1       2.396   0.029  -0.021  0.00  0.00    -0.031 A 
ATOM     18  C   UNL     1       1.208  -0.679  -0.014  0.00  0.00    -0.046 A 
ATOM     19  C   UNL     1       0.002  -0.004   0.002  0.00  0.00    +0.007 A 
ATOM     20  C   UNL     1       1.229  -2.186  -0.022  0.00  0.00    +0.044 C 
ATOM     21  C   UNL     1       3.672   2.182  -0.023  0.00  0.00    +0.044 C 
ENDBRANCH  12  17
ENDBRANCH  11  12
ENDBRANCH   1  11
BRANCH   4  22
ATOM     22  C   UNL     1       9.357  -3.864  -0.836  0.00  0.00    +0.049 C 
BRANCH  22  23
ATOM     23  C   UNL     1      10.501  -2.851  -0.758  0.00  0.00    -0.013 C 
ATOM     24  C   UNL     1      10.310  -1.960   0.472  0.00  0.00    +0.007 C 
ATOM     25  C   UNL     1      11.833  -3.595  -0.648  0.00  0.00    +0.007 C 
ENDBRANCH  22  23
ENDBRANCH   4  22
TORSDOF 7
