REMARK  Name = ZINC16922335
REMARK  6 active torsions:
REMARK  status: ('A' for Active; 'I' for Inactive)
REMARK    1  A    between atoms: C_1  and  C_2
REMARK    2  A    between atoms: C_5  and  O_25
REMARK    3  A    between atoms: C_6  and  N_8
REMARK    4  A    between atoms: C_9  and  C_11
REMARK    5  A    between atoms: C_11  and  N_12
REMARK    6  A    between atoms: C_16  and  C_17
REMARK                            x       y       z     vdW  Elec       q    Type
REMARK                         _______ _______ _______ _____ _____    ______ ____
ROOT
ATOM      1  C   UNL     1      -0.018  -0.004   0.003  0.00  0.00    +0.211 C 
ENDROOT
BRANCH   1   2
ATOM      2  N   UNL     1      -0.044   1.461   0.012  0.00  0.00    -0.246 N 
ATOM      3  C   UNL     1      -1.209   2.087   0.030  0.00  0.00    +0.259 C 
ATOM      4  O   UNL     1      -2.262   1.476   0.038  0.00  0.00    -0.269 OA
ATOM      5  C   UNL     1      -1.169   3.559   0.043  0.00  0.00    +0.080 C 
ATOM      6  C   UNL     1      -2.197   4.455   0.065  0.00  0.00    +0.066 C 
ATOM      7  S   UNL     1       0.594   3.848   0.015  0.00  0.00    -0.061 S 
ATOM      8  C   UNL     1       1.121   2.142  -0.004  0.00  0.00    +0.121 C 
ATOM      9  S   UNL     1       2.716   1.520  -0.034  0.00  0.00    -0.027 S 
BRANCH   6  10
ATOM     10  C   UNL     1      -1.924   5.843   0.069  0.00  0.00    +0.129 A 
ATOM     11  C   UNL     1      -2.862   6.856   0.085  0.00  0.00    +0.049 A 
ATOM     12  C   UNL     1      -2.145   8.063   0.086  0.00  0.00    +0.042 A 
ATOM     13  C   UNL     1      -0.831   7.748   0.062  0.00  0.00    +0.195 A 
ATOM     14  O   UNL     1      -0.701   6.413   0.052  0.00  0.00    -0.463 OA
ENDBRANCH   6  10
ENDBRANCH   1   2
BRANCH   1  16
ATOM     15  N   UNL     1       0.042  -1.840   1.659  0.00  0.00    -0.281 N 
ATOM     16  C   UNL     1       0.014  -0.514   1.421  0.00  0.00    +0.235 C 
ATOM     17  O   UNL     1       0.015   0.269   2.347  0.00  0.00    -0.274 OA
ATOM     18  H   UNL     1      -0.024  -2.467   0.922  0.00  0.00    +0.155 HD
BRANCH  15  24
ATOM     19  C   UNL     1      -0.952  -1.345   6.449  0.00  0.00    +0.044 C 
ATOM     20  C   UNL     1      -0.305  -2.094   5.313  0.00  0.00    -0.048 A 
ATOM     21  C   UNL     1       0.411  -3.249   5.568  0.00  0.00    +0.007 A 
ATOM     22  C   UNL     1       1.007  -3.941   4.530  0.00  0.00    +0.047 A 
ATOM     23  C   UNL     1       0.888  -3.477   3.229  0.00  0.00    +0.138 A 
ATOM     24  C   UNL     1       0.166  -2.314   2.972  0.00  0.00    +0.076 A 
ATOM     25  C   UNL     1      -0.424  -1.622   4.019  0.00  0.00    +0.030 A 
BRANCH  23  26
ATOM     26  O   UNL     1       1.474  -4.156   2.207  0.00  0.00    -0.505 OA
ATOM     27  H   UNL     1       2.378  -3.874   2.015  0.00  0.00    +0.292 HD
ENDBRANCH  23  26
ENDBRANCH  15  24
ENDBRANCH   1  16
TORSDOF 5
