REMARK  Name = ZINC15502219
REMARK  4 active torsions:
REMARK  status: ('A' for Active; 'I' for Inactive)
REMARK    1  A    between atoms: C_4  and  N_18
REMARK    2  A    between atoms: C_5  and  N_7
REMARK    3  A    between atoms: N_7  and  N_8
REMARK    4  A    between atoms: C_9  and  C_11
REMARK                            x       y       z     vdW  Elec       q    Type
REMARK                         _______ _______ _______ _____ _____    ______ ____
ROOT
ATOM      1  N   UNL     1      -1.269   2.004   0.069  0.00  0.00    -0.262 N 
ATOM      2  H   UNL     1      -2.089   1.492  -0.001  0.00  0.00    +0.170 HD
ENDROOT
BRANCH   1   7
ATOM      3  C   UNL     1       2.357   1.423   0.205  0.00  0.00    +0.002 A 
ATOM      4  C   UNL     1       2.414   0.064  -0.045  0.00  0.00    +0.002 A 
ATOM      5  C   UNL     1       1.250  -0.652  -0.256  0.00  0.00    +0.034 A 
ATOM      6  C   UNL     1       0.027  -0.012  -0.217  0.00  0.00    +0.148 A 
ATOM      7  C   UNL     1      -0.034   1.353   0.034  0.00  0.00    +0.075 A 
ATOM      8  C   UNL     1       1.138   2.070   0.246  0.00  0.00    +0.027 A 
BRANCH   6   9
ATOM      9  N   UNL     1      -1.219  -0.779  -0.443  0.00  0.00    +0.058 N 
ATOM     10  O   UNL     1      -1.313  -1.922  -0.031  0.00  0.00    -0.126 OA
ATOM     11  O   UNL     1      -2.149  -0.269  -1.041  0.00  0.00    -0.126 OA
ENDBRANCH   6   9
ENDBRANCH   1   7
BRANCH   1  12
ATOM     12  N   UNL     1      -1.322   3.398   0.204  0.00  0.00    -0.232 N 
ATOM     13  C   UNL     1      -2.514   4.026   0.238  0.00  0.00    +0.267 C 
ATOM     14  O   UNL     1      -3.544   3.383   0.150  0.00  0.00    -0.268 OA
ATOM     15  H   UNL     1      -0.501   3.910   0.274  0.00  0.00    +0.173 HD
BRANCH  13  16
ATOM     16  C   UNL     1      -2.570   5.483   0.379  0.00  0.00    +0.077 A 
ATOM     17  C   UNL     1      -3.679   6.314   0.434  0.00  0.00    +0.037 A 
ATOM     18  C   UNL     1      -3.446   7.659   0.572  0.00  0.00    +0.040 A 
ATOM     19  C   UNL     1      -2.163   8.106   0.647  0.00  0.00    +0.070 A 
ATOM     20  S   UNL     1      -1.229   6.650   0.534  0.00  0.00    -0.076 S 
ATOM     21 BR   UNL     1      -1.547   9.884   0.838  0.00  0.00    -0.041 Br
ATOM     22 BR   UNL     1      -4.890   8.877   0.658  0.00  0.00    -0.049 Br
ENDBRANCH  13  16
ENDBRANCH   1  12
TORSDOF 4
