REMARK  Name = ZINC33253608
REMARK  9 active torsions:
REMARK  status: ('A' for Active; 'I' for Inactive)
REMARK    1  A    between atoms: C_1  and  C_2
REMARK    2  A    between atoms: C_2  and  O_3
REMARK    3  A    between atoms: O_3  and  C_4
REMARK    4  A    between atoms: C_7  and  S_10
REMARK    5  A    between atoms: S_10  and  N_13
REMARK    6  A    between atoms: N_13  and  C_14
REMARK    7  A    between atoms: C_17  and  N_23
REMARK    8  A    between atoms: C_18  and  C_20
REMARK    9  A    between atoms: C_26  and  N_29
REMARK                            x       y       z     vdW  Elec       q    Type
REMARK                         _______ _______ _______ _____ _____    ______ ____
ROOT
ATOM      1  C   UNL     1       0.010  -0.024   0.026  0.00  0.00    +0.049 A 
ATOM      2  C   UNL     1       1.210  -0.726  -0.039  0.00  0.00    +0.026 A 
ATOM      3  C   UNL     1       2.413  -0.052  -0.024  0.00  0.00    +0.026 A 
ATOM      4  C   UNL     1       2.436   1.334   0.057  0.00  0.00    +0.044 A 
ATOM      5  C   UNL     1       1.230   2.049   0.122  0.00  0.00    +0.086 A 
ATOM      6  C   UNL     1       0.015   1.357   0.106  0.00  0.00    +0.041 A 
ENDROOT
BRANCH   4   7
ATOM      7  N   UNL     1       3.650   2.013   0.071  0.00  0.00    -0.329 N 
ATOM      8  C   UNL     1       4.375   1.822  -1.191  0.00  0.00    +0.103 C 
ATOM      9  C   UNL     1       5.632   2.695  -1.197  0.00  0.00    +0.004 C 
ATOM     10  C   UNL     1       6.522   2.308  -0.012  0.00  0.00    -0.066 C 
ATOM     11  C   UNL     1       5.727   2.470   1.287  0.00  0.00    +0.004 C 
ATOM     12  C   UNL     1       4.468   1.603   1.220  0.00  0.00    +0.103 C 
BRANCH  10  13
ATOM     13  N   UNL     1       7.702   3.183   0.022  0.00  0.00    +0.382 N 
ATOM     14  C   UNL     1       7.308   4.593   0.142  0.00  0.00    -0.078 C 
ATOM     15  C   UNL     1       8.558   5.458   0.320  0.00  0.00    -0.019 C 
ATOM     16  C   UNL     1       9.482   5.268  -0.886  0.00  0.00    -0.004 C 
ATOM     17  C   UNL     1       9.837   3.784  -1.017  0.00  0.00    -0.019 C 
ATOM     18  C   UNL     1       8.551   2.967  -1.157  0.00  0.00    -0.078 C 
ATOM     19  H   UNL     1       8.292   2.922   0.913  0.00  0.00    -0.081 HD
ENDBRANCH  10  13
ENDBRANCH   4   7
BRANCH   5  20
ATOM     20  C   UNL     1       1.244   3.519   0.207  0.00  0.00    +0.388 C 
ATOM     21  O   UNL     1       2.302   4.117   0.221  0.00  0.00    -0.241 OA
ATOM     22  O   UNL     1       0.083   4.202   0.270  0.00  0.00    -0.241 OA
ENDBRANCH   5  20
BRANCH   1  23
ATOM     23  N   UNL     1      -1.206  -0.718   0.009  0.00  0.00    -0.216 N 
ATOM     24  H   UNL     1      -1.997  -0.459   0.729  0.00  0.00    +0.174 HD
BRANCH  23  25
ATOM     25  S   UNL     1      -1.454  -1.928  -1.094  0.00  0.00    +0.072 S 
ATOM     26  O   UNL     1      -0.351  -2.816  -0.977  0.00  0.00    -0.150 OA
ATOM     27  O   UNL     1      -2.799  -2.358  -0.929  0.00  0.00    -0.150 OA
BRANCH  25  31
ATOM     28  C   UNL     1      -1.186  -0.062  -5.211  0.00  0.00    +0.121 A 
ATOM     29  C   UNL     1      -0.070  -0.664  -4.647  0.00  0.00    +0.047 A 
ATOM     30  C   UNL     1      -0.155  -1.233  -3.391  0.00  0.00    +0.032 A 
ATOM     31  C   UNL     1      -1.350  -1.202  -2.696  0.00  0.00    +0.109 A 
ATOM     32  C   UNL     1      -2.464  -0.607  -3.258  0.00  0.00    +0.032 A 
ATOM     33  C   UNL     1      -2.384  -0.032  -4.512  0.00  0.00    +0.047 A 
BRANCH  28  34
ATOM     34  O   UNL     1      -1.105   0.498  -6.447  0.00  0.00    -0.492 OA
BRANCH  34  36
ATOM     35  C   UNL     1      -2.010   1.673  -8.355  0.00  0.00    +0.048 C 
ATOM     36  C   UNL     1      -2.293   1.101  -6.965  0.00  0.00    +0.225 C 
ENDBRANCH  34  36
ENDBRANCH  28  34
ENDBRANCH  25  31
ENDBRANCH  23  25
ENDBRANCH   1  23
TORSDOF 8
