REMARK  Name = ZINC16376117
REMARK  11 active torsions:
REMARK  status: ('A' for Active; 'I' for Inactive)
REMARK    1  A    between atoms: C_1  and  C_2
REMARK    2  A    between atoms: C_2  and  N_61
REMARK    3  A    between atoms: C_3  and  C_4
REMARK    4  A    between atoms: C_3  and  N_61
REMARK    5  A    between atoms: C_4  and  C_5
REMARK    6  A    between atoms: N_7  and  C_8
REMARK    7  A    between atoms: C_9  and  C_18
REMARK    8  A    between atoms: C_20  and  C_21
REMARK    9  A    between atoms: C_20  and  N_61
REMARK   10  A    between atoms: N_23  and  C_24
REMARK   11  A    between atoms: C_29  and  C_30
REMARK                            x       y       z     vdW  Elec       q    Type
REMARK                         _______ _______ _______ _____ _____    ______ ____
ROOT
ATOM      1  N   UNL     1       2.375   0.951   0.033  0.00  0.00    +0.386 N 
ATOM      2  H   UNL     1       2.208   0.264   0.777  0.00  0.00    -0.081 HD
ENDROOT
BRANCH   1   4
ATOM      3  C   UNL     1       2.810   1.227  -2.385  0.00  0.00    -0.017 C 
ATOM      4  C   UNL     1       2.490   0.242  -1.259  0.00  0.00    -0.082 C 
ENDBRANCH   1   4
BRANCH   1   5
ATOM      5  C   UNL     1       3.629   1.678   0.323  0.00  0.00    -0.069 C 
BRANCH   5   6
ATOM      6  C   UNL     1       4.766   0.665   0.466  0.00  0.00    +0.077 C 
BRANCH   6   7
ATOM      7  C   UNL     1       6.019   1.376   0.908  0.00  0.00    +0.216 C 
ATOM      8  O   UNL     1       6.004   2.575   1.090  0.00  0.00    -0.276 OA
ATOM      9  N   UNL     1       7.157   0.679   1.101  0.00  0.00    -0.279 N 
ATOM     10  H   UNL     1       7.170  -0.279   0.955  0.00  0.00    +0.155 HD
BRANCH   9  11
ATOM     11  C   UNL     1       8.311   1.334   1.508  0.00  0.00    +0.090 A 
ATOM     12  C   UNL     1       9.562   0.797   1.761  0.00  0.00    +0.084 A 
ATOM     13  C   UNL     1      10.621   1.707   2.174  0.00  0.00    -0.018 A 
ATOM     14  C   UNL     1      10.249   3.002   2.281  0.00  0.00    -0.004 A 
ATOM     15  S   UNL     1       8.535   3.021   1.830  0.00  0.00    -0.077 S 
ATOM     16  C   UNL     1      11.091   4.164   2.704  0.00  0.00    +0.043 C 
ATOM     17  C   UNL     1      12.412   4.144   1.922  0.00  0.00    +0.005 C 
ATOM     18  C   UNL     1      13.423   3.313   2.707  0.00  0.00    +0.001 C 
ATOM     19  C   UNL     1      12.713   2.184   3.450  0.00  0.00    +0.005 C 
ATOM     20  C   UNL     1      12.041   1.236   2.462  0.00  0.00    +0.037 C 
BRANCH  12  21
ATOM     21  C   UNL     1       9.808  -0.607   1.618  0.00  0.00    +0.102 C 
ATOM     22  N   UNL     1      10.002  -1.720   1.504  0.00  0.00    -0.191 NA
ENDBRANCH  12  21
ENDBRANCH   9  11
ENDBRANCH   6   7
ENDBRANCH   5   6
ENDBRANCH   1   5
BRANCH   1  23
ATOM     23  C   UNL     1       1.241   1.898  -0.010  0.00  0.00    +0.019 C 
BRANCH  23  24
ATOM     24  C   UNL     1      -0.044   1.114  -0.086  0.00  0.00    +0.201 C 
ATOM     25  O   UNL     1      -0.014  -0.098  -0.119  0.00  0.00    -0.278 OA
ATOM     26  N   UNL     1      -1.226   1.760  -0.123  0.00  0.00    -0.287 N 
ATOM     27  H   UNL     1      -1.255   2.725  -0.033  0.00  0.00    +0.155 HD
BRANCH  26  28
ATOM     28  C   UNL     1      -2.413   1.038  -0.292  0.00  0.00    +0.045 A 
ATOM     29  C   UNL     1      -2.543  -0.228   0.265  0.00  0.00    +0.024 A 
ATOM     30  C   UNL     1      -3.717  -0.936   0.100  0.00  0.00    +0.002 A 
ATOM     31  C   UNL     1      -4.759  -0.390  -0.626  0.00  0.00    +0.001 A 
ATOM     32  C   UNL     1      -4.632   0.868  -1.186  0.00  0.00    +0.014 A 
ATOM     33  C   UNL     1      -3.462   1.583  -1.021  0.00  0.00    +0.076 A 
BRANCH  33  34
ATOM     34  C   UNL     1      -3.323   2.954  -1.632  0.00  0.00    +0.419 C 
ATOM     35  F   UNL     1      -4.501   3.283  -2.312  0.00  0.00    -0.166 F 
ATOM     36  F   UNL     1      -3.090   3.893  -0.622  0.00  0.00    -0.166 F 
ATOM     37  F   UNL     1      -2.250   2.958  -2.529  0.00  0.00    -0.166 F 
ENDBRANCH  33  34
ENDBRANCH  26  28
ENDBRANCH  23  24
ENDBRANCH   1  23
TORSDOF 10
