REMARK  Name = ZINC59831226
REMARK  11 active torsions:
REMARK  status: ('A' for Active; 'I' for Inactive)
REMARK    1  A    between atoms: C_1  and  C_2
REMARK    2  A    between atoms: C_4  and  N_9
REMARK    3  A    between atoms: C_10  and  C_12
REMARK    4  A    between atoms: C_12  and  S_13
REMARK    5  A    between atoms: S_13  and  C_14
REMARK    6  A    between atoms: N_19  and  N_20
REMARK    7  A    between atoms: C_21  and  C_22
REMARK    8  A    between atoms: C_23  and  C_31
REMARK    9  A    between atoms: N_25  and  C_28
REMARK   10  A    between atoms: C_26  and  C_27
REMARK   11  A    between atoms: C_28  and  C_29
REMARK                            x       y       z     vdW  Elec       q    Type
REMARK                         _______ _______ _______ _____ _____    ______ ____
ROOT
ATOM      1  C   UNL     1       0.537  -7.345  -5.022  0.00  0.00    +0.211 A 
ATOM      2  N   UNL     1       0.658  -8.650  -5.285  0.00  0.00    -0.186 NA
ATOM      3  C   UNL     1       0.727  -8.835  -6.587  0.00  0.00    +0.232 A 
ATOM      4  N   UNL     1       0.650  -7.627  -7.184  0.00  0.00    -0.245 N 
ATOM      5  N   UNL     1       0.522  -6.682  -6.154  0.00  0.00    -0.144 NA
ATOM      6  N   UNL     1       0.857 -10.053  -7.229  0.00  0.00    -0.205 N 
ATOM      7  H   UNL     1       0.900 -10.088  -8.197  0.00  0.00    +0.177 HD
ATOM      8  H   UNL     1       0.674  -7.448  -8.137  0.00  0.00    +0.192 HD
ENDROOT
BRANCH   6   9
ATOM      9  N   UNL     1       0.926 -11.235  -6.481  0.00  0.00    -0.187 NA
ATOM     10  C   UNL     1       1.047 -12.378  -7.083  0.00  0.00    +0.141 C 
BRANCH  10  11
ATOM     11  C   UNL     1       1.119 -13.624  -6.295  0.00  0.00    +0.038 A 
ATOM     12  C   UNL     1       1.064 -13.729  -4.889  0.00  0.00    +0.069 A 
ATOM     13  N   UNL     1       1.159 -14.992  -4.572  0.00  0.00    -0.175 NA
ATOM     14  N   UNL     1       1.278 -15.745  -5.745  0.00  0.00    -0.264 N 
ATOM     15  C   UNL     1       1.248 -14.901  -6.796  0.00  0.00    +0.045 A 
ATOM     16  C   UNL     1       1.341 -15.284  -8.251  0.00  0.00    +0.066 C 
ATOM     17  C   UNL     1       0.921 -12.582  -3.921  0.00  0.00    +0.068 C 
BRANCH  14  18
ATOM     18  C   UNL     1       1.409 -17.202  -5.819  0.00  0.00    +0.170 C 
BRANCH  18  19
ATOM     19  C   UNL     1       0.039 -17.825  -5.910  0.00  0.00    -0.012 C 
ATOM     20  C   UNL     1      -0.247 -18.637  -6.897  0.00  0.00    +0.006 C 
ENDBRANCH  18  19
ENDBRANCH  14  18
ENDBRANCH  10  11
ENDBRANCH   6   9
BRANCH   1  21
ATOM     21  S   UNL     1       0.411  -6.631  -3.416  0.00  0.00    -0.075 S 
BRANCH  21  22
ATOM     22  C   UNL     1       0.265  -4.851  -3.737  0.00  0.00    +0.173 C 
BRANCH  22  24
ATOM     23  N   UNL     1       0.028  -2.771  -2.420  0.00  0.00    -0.285 N 
ATOM     24  C   UNL     1       0.148  -4.113  -2.428  0.00  0.00    +0.227 C 
ATOM     25  O   UNL     1       0.162  -4.727  -1.382  0.00  0.00    -0.275 OA
ATOM     26  H   UNL     1      -0.060  -2.287  -3.256  0.00  0.00    +0.155 HD
BRANCH  23  30
ATOM     27  C   UNL     1       1.619  -2.350   2.213  0.00  0.00    +0.045 C 
ATOM     28  C   UNL     1       0.793  -1.849   1.057  0.00  0.00    -0.035 A 
ATOM     29  C   UNL     1       0.792  -2.538  -0.141  0.00  0.00    +0.027 A 
ATOM     30  C   UNL     1       0.030  -2.075  -1.206  0.00  0.00    +0.034 A 
ATOM     31  C   UNL     1      -0.729  -0.921  -1.063  0.00  0.00    +0.024 A 
ATOM     32  C   UNL     1      -0.724  -0.236   0.136  0.00  0.00    +0.017 A 
ATOM     33  C   UNL     1       0.032  -0.703   1.197  0.00  0.00    +0.021 A 
ATOM     34 BR   UNL     1       0.029   0.233   2.841  0.00  0.00    -0.050 Br
ENDBRANCH  23  30
ENDBRANCH  22  24
ENDBRANCH  21  22
ENDBRANCH   1  21
TORSDOF 8
