REMARK  Name = ZINC39914604
REMARK  8 active torsions:
REMARK  status: ('A' for Active; 'I' for Inactive)
REMARK    1  A    between atoms: C_1  and  C_2
REMARK    2  A    between atoms: C_4  and  O_39
REMARK    3  A    between atoms: C_5  and  C_9
REMARK    4  A    between atoms: N_17  and  C_33
REMARK    5  A    between atoms: C_18  and  C_20
REMARK    6  A    between atoms: C_24  and  O_26
REMARK    7  A    between atoms: O_26  and  C_27
REMARK    8  A    between atoms: C_33  and  C_34
REMARK                            x       y       z     vdW  Elec       q    Type
REMARK                         _______ _______ _______ _____ _____    ______ ____
ROOT
ATOM      1  C   UNL     1       0.279  -4.350  -0.188  0.00  0.00    +0.102 A 
ATOM      2  C   UNL     1       0.255  -5.105   0.990  0.00  0.00    +0.035 A 
ATOM      3  C   UNL     1       0.186  -6.426   0.590  0.00  0.00    +0.126 A 
ATOM      4  N   UNL     1       0.173  -6.408  -0.776  0.00  0.00    -0.272 N 
ATOM      5  H   UNL     1       0.128  -7.193  -1.343  0.00  0.00    +0.189 HD
ATOM      6  N   UNL     1       0.222  -5.194  -1.199  0.00  0.00    -0.173 NA
ATOM      7  C   UNL     1       0.157  -7.275   1.785  0.00  0.00    +0.266 C 
ATOM      8  O   UNL     1       0.098  -8.490   1.773  0.00  0.00    -0.268 OA
ATOM      9  N   UNL     1       0.205  -6.520   2.898  0.00  0.00    -0.278 N 
ATOM     10  C   UNL     1       0.270  -5.109   2.494  0.00  0.00    +0.142 C 
ENDROOT
BRANCH   1  15
ATOM     11  C   UNL     1       0.550   1.396  -0.552  0.00  0.00    +0.045 C 
ATOM     12  C   UNL     1       0.481  -0.107  -0.458  0.00  0.00    -0.029 A 
ATOM     13  C   UNL     1       1.301  -0.884  -1.255  0.00  0.00    +0.050 A 
ATOM     14  C   UNL     1       1.241  -2.266  -1.173  0.00  0.00    +0.126 A 
ATOM     15  C   UNL     1       0.350  -2.871  -0.281  0.00  0.00    +0.045 A 
ATOM     16  C   UNL     1      -0.471  -2.079   0.517  0.00  0.00    +0.034 A 
ATOM     17  C   UNL     1      -0.398  -0.702   0.430  0.00  0.00    +0.045 A 
ATOM     18 CL   UNL     1      -1.417   0.284   1.431  0.00  0.00    -0.083 Cl
BRANCH  14  19
ATOM     19  O   UNL     1       2.045  -3.031  -1.957  0.00  0.00    -0.506 OA
ATOM     20  H   UNL     1       2.900  -3.242  -1.556  0.00  0.00    +0.292 HD
ENDBRANCH  14  19
ENDBRANCH   1  15
BRANCH  10  21
ATOM     21  C   UNL     1       1.543  -4.482   3.002  0.00  0.00    -0.019 A 
ATOM     22  C   UNL     1       2.749  -5.137   2.837  0.00  0.00    +0.006 A 
ATOM     23  C   UNL     1       3.919  -4.565   3.301  0.00  0.00    +0.004 A 
ATOM     24  C   UNL     1       3.885  -3.336   3.932  0.00  0.00    +0.046 A 
ATOM     25  C   UNL     1       2.676  -2.676   4.098  0.00  0.00    +0.129 A 
ATOM     26  C   UNL     1       1.504  -3.251   3.626  0.00  0.00    +0.052 A 
BRANCH  25  27
ATOM     27  O   UNL     1       2.640  -1.468   4.718  0.00  0.00    -0.456 OA
BRANCH  27  28
ATOM     28  C   UNL     1       2.216  -1.425   6.008  0.00  0.00    +0.128 A 
ATOM     29  C   UNL     1       1.757  -2.579   6.628  0.00  0.00    +0.046 A 
ATOM     30  C   UNL     1       1.326  -2.532   7.940  0.00  0.00    +0.004 A 
ATOM     31  C   UNL     1       1.352  -1.338   8.635  0.00  0.00    +0.000 A 
ATOM     32  C   UNL     1       1.809  -0.186   8.020  0.00  0.00    +0.004 A 
ATOM     33  C   UNL     1       2.247  -0.229   6.711  0.00  0.00    +0.046 A 
ENDBRANCH  27  28
ENDBRANCH  25  27
ENDBRANCH  10  21
BRANCH   9  34
ATOM     34  C   UNL     1       0.194  -7.019   4.275  0.00  0.00    +0.183 C 
BRANCH  34  35
ATOM     35  C   UNL     1       1.609  -7.259   4.734  0.00  0.00    +0.122 A 
ATOM     36  C   UNL     1       2.400  -6.361   5.349  0.00  0.00    +0.046 A 
ATOM     37  C   UNL     1       3.634  -7.004   5.598  0.00  0.00    +0.041 A 
ATOM     38  C   UNL     1       3.524  -8.257   5.119  0.00  0.00    +0.195 A 
ATOM     39  O   UNL     1       2.294  -8.407   4.602  0.00  0.00    -0.466 OA
ENDBRANCH  34  35
ENDBRANCH   9  34
TORSDOF 7
