REMARK  Name = ZINC20874663
REMARK  11 active torsions:
REMARK  status: ('A' for Active; 'I' for Inactive)
REMARK    1  A    between atoms: C_1  and  C_2
REMARK    2  A    between atoms: C_5  and  C_8
REMARK    3  A    between atoms: C_8  and  O_9
REMARK    4  A    between atoms: O_9  and  C_10
REMARK    5  A    between atoms: C_15  and  C_16
REMARK    6  A    between atoms: C_16  and  N_17
REMARK    7  A    between atoms: N_17  and  C_18
REMARK    8  A    between atoms: C_18  and  C_19
REMARK    9  A    between atoms: C_19  and  S_20
REMARK   10  A    between atoms: S_20  and  C_21
REMARK   11  A    between atoms: N_25  and  C_26
REMARK                            x       y       z     vdW  Elec       q    Type
REMARK                         _______ _______ _______ _____ _____    ______ ____
ROOT
ATOM      1  C   UNL     1      -2.553   3.879   0.047  0.00  0.00    -0.043 C 
ENDROOT
BRANCH   1   7
ATOM      2  C   UNL     1      -1.223   1.754   0.017  0.00  0.00    +0.122 A 
ATOM      3  C   UNL     1      -0.013   1.076   0.008  0.00  0.00    +0.047 A 
ATOM      4  C   UNL     1       1.174   1.783   0.000  0.00  0.00    +0.019 A 
ATOM      5  C   UNL     1       1.156   3.167   0.008  0.00  0.00    +0.018 A 
ATOM      6  C   UNL     1      -0.050   3.844   0.024  0.00  0.00    +0.020 A 
ATOM      7  C   UNL     1      -1.239   3.140   0.031  0.00  0.00    -0.022 A 
ATOM      8 BR   UNL     1       2.781   4.132  -0.002  0.00  0.00    -0.050 Br
BRANCH   2   9
ATOM      9  O   UNL     1      -2.392   1.060   0.019  0.00  0.00    -0.487 OA
BRANCH   9  10
ATOM     10  C   UNL     1      -2.299  -0.366   0.011  0.00  0.00    +0.264 C 
BRANCH  10  15
ATOM     11  C   UNL     1      -7.611  -2.642   0.023  0.00  0.00    +0.044 C 
ATOM     12  C   UNL     1      -6.226  -2.049   0.020  0.00  0.00    -0.050 A 
ATOM     13  C   UNL     1      -5.596  -1.769  -1.179  0.00  0.00    +0.004 A 
ATOM     14  C   UNL     1      -4.326  -1.225  -1.182  0.00  0.00    +0.007 A 
ATOM     15  C   UNL     1      -3.685  -0.960   0.014  0.00  0.00    -0.010 A 
ATOM     16  C   UNL     1      -4.312  -1.244   1.213  0.00  0.00    +0.007 A 
ATOM     17  C   UNL     1      -5.585  -1.784   1.216  0.00  0.00    +0.004 A 
ENDBRANCH  10  15
ENDBRANCH   9  10
ENDBRANCH   2   9
ENDBRANCH   1   7
BRANCH   1  18
ATOM     18  N   UNL     1      -3.084   3.902   1.417  0.00  0.00    +0.382 N 
ATOM     19  H   UNL     1      -3.239   2.871   1.767  0.00  0.00    -0.085 HD
ATOM     20  H   UNL     1      -2.369   4.411   2.079  0.00  0.00    -0.085 HD
BRANCH  18  21
ATOM     21  C   UNL     1      -4.367   4.616   1.471  0.00  0.00    -0.071 C 
BRANCH  21  22
ATOM     22  C   UNL     1      -4.888   4.618   2.910  0.00  0.00    +0.058 C 
BRANCH  22  23
ATOM     23  S   UNL     1      -6.469   5.498   2.977  0.00  0.00    -0.086 S 
BRANCH  23  24
ATOM     24  C   UNL     1      -6.827   5.351   4.696  0.00  0.00    +0.214 A 
ATOM     25  N   UNL     1      -6.086   4.749   5.601  0.00  0.00    -0.101 NA
ATOM     26  N   UNL     1      -6.638   4.827   6.758  0.00  0.00    -0.022 NA
ATOM     27  N   UNL     1      -7.752   5.471   6.683  0.00  0.00    -0.038 NA
ATOM     28  N   UNL     1      -7.917   5.843   5.338  0.00  0.00    -0.187 N 
BRANCH  28  29
ATOM     29  C   UNL     1      -8.981   6.566   4.778  0.00  0.00    +0.070 A 
ATOM     30  C   UNL     1      -8.747   7.456   3.739  0.00  0.00    +0.028 A 
ATOM     31  C   UNL     1      -9.797   8.162   3.187  0.00  0.00    +0.002 A 
ATOM     32  C   UNL     1     -11.080   7.992   3.675  0.00  0.00    +0.000 A 
ATOM     33  C   UNL     1     -11.315   7.110   4.714  0.00  0.00    +0.002 A 
ATOM     34  C   UNL     1     -10.270   6.397   5.267  0.00  0.00    +0.028 A 
ENDBRANCH  28  29
ENDBRANCH  23  24
ENDBRANCH  22  23
ENDBRANCH  21  22
ENDBRANCH  18  21
ENDBRANCH   1  18
TORSDOF 10
