REMARK  Name = ZINC39945091
REMARK  9 active torsions:
REMARK  status: ('A' for Active; 'I' for Inactive)
REMARK    1  A    between atoms: C_1  and  C_2
REMARK    2  A    between atoms: C_2  and  C_3
REMARK    3  A    between atoms: C_2  and  C_4
REMARK    4  A    between atoms: C_7  and  N_10
REMARK    5  A    between atoms: C_14  and  S_16
REMARK    6  A    between atoms: S_16  and  C_17
REMARK    7  A    between atoms: C_17  and  C_19
REMARK    8  A    between atoms: C_17  and  C_25
REMARK    9  A    between atoms: C_25  and  C_27
REMARK                            x       y       z     vdW  Elec       q    Type
REMARK                         _______ _______ _______ _____ _____    ______ ____
ROOT
ATOM      1  C   UNL     1      -7.193  -5.411  -5.408  0.00  0.00    +0.154 C 
ENDROOT
BRANCH   1   2
ATOM      2  C   UNL     1      -6.132  -6.378  -4.949  0.00  0.00    -0.027 A 
ATOM      3  C   UNL     1      -6.495  -7.587  -4.386  0.00  0.00    +0.005 A 
ATOM      4  C   UNL     1      -5.521  -8.473  -3.965  0.00  0.00    +0.000 A 
ATOM      5  C   UNL     1      -4.185  -8.151  -4.107  0.00  0.00    +0.000 A 
ATOM      6  C   UNL     1      -3.821  -6.942  -4.671  0.00  0.00    +0.000 A 
ATOM      7  C   UNL     1      -4.795  -6.058  -5.096  0.00  0.00    +0.005 A 
ENDBRANCH   1   2
BRANCH   1   8
ATOM      8  C   UNL     1      -8.047  -6.067  -6.462  0.00  0.00    +0.179 C 
ATOM      9  O   UNL     1      -9.088  -6.610  -6.149  0.00  0.00    -0.291 OA
BRANCH   8  10
ATOM     10  C   UNL     1      -7.639  -6.051  -7.812  0.00  0.00    +0.025 C 
ATOM     11  C   UNL     1      -8.306  -6.597  -8.895  0.00  0.00    +0.006 A 
ATOM     12  C   UNL     1      -9.525  -7.304  -9.017  0.00  0.00    +0.010 A 
ATOM     13  C   UNL     1      -9.945  -7.733 -10.228  0.00  0.00    +0.001 A 
ATOM     14  C   UNL     1      -9.213  -7.506 -11.404  0.00  0.00    +0.002 A 
ATOM     15  C   UNL     1      -8.037  -6.841 -11.397  0.00  0.00    +0.026 A 
ATOM     16  C   UNL     1      -7.507  -6.340 -10.118  0.00  0.00    +0.043 A 
ATOM     17  N   UNL     1      -6.422  -5.681  -9.825  0.00  0.00    -0.380 N 
ATOM     18  C   UNL     1      -6.384  -5.426  -8.381  0.00  0.00    +0.152 C 
ATOM     19  H   UNL     1      -5.746  -5.401 -10.462  0.00  0.00    +0.160 HD
ENDBRANCH   8  10
ENDBRANCH   1   8
BRANCH   1  20
ATOM     20  S   UNL     1      -8.230  -4.937  -3.997  0.00  0.00    -0.081 S 
BRANCH  20  25
ATOM     21  N   UNL     1      -5.318  -1.968   0.043  0.00  0.00    -0.292 N 
ATOM     22  C   UNL     1      -5.803  -2.685  -1.045  0.00  0.00    +0.187 A 
ATOM     23  N   UNL     1      -5.168  -3.093  -2.127  0.00  0.00    -0.125 NA
ATOM     24  N   UNL     1      -5.847  -3.798  -3.094  0.00  0.00    -0.133 NA
ATOM     25  C   UNL     1      -7.129  -4.064  -2.934  0.00  0.00    +0.161 A 
ATOM     26  S   UNL     1      -7.450  -3.308  -1.348  0.00  0.00    -0.024 S 
ATOM     27  H   UNL     1      -5.887  -1.810   0.812  0.00  0.00    +0.154 HD
BRANCH  21  31
ATOM     28  C   UNL     1      -1.423  -0.496  -0.001  0.00  0.00    -0.045 A 
ATOM     29  C   UNL     1      -2.083  -0.737  -1.192  0.00  0.00    +0.006 A 
ATOM     30  C   UNL     1      -3.375  -1.225  -1.181  0.00  0.00    +0.023 A 
ATOM     31  C   UNL     1      -4.011  -1.475   0.028  0.00  0.00    +0.033 A 
ATOM     32  C   UNL     1      -3.345  -1.232   1.223  0.00  0.00    +0.023 A 
ATOM     33  C   UNL     1      -2.051  -0.749   1.205  0.00  0.00    +0.006 A 
BRANCH  28  35
ATOM     34  C   UNL     1       0.895  -0.946  -0.758  0.00  0.00    +0.012 C 
ATOM     35  C   UNL     1      -0.013   0.037  -0.017  0.00  0.00    +0.013 C 
ATOM     36  C   UNL     1       0.012   1.391  -0.729  0.00  0.00    +0.012 C 
ENDBRANCH  28  35
ENDBRANCH  21  31
ENDBRANCH  20  25
ENDBRANCH   1  20
TORSDOF 7
