REMARK  Name = ZINC00678880
REMARK  11 active torsions:
REMARK  status: ('A' for Active; 'I' for Inactive)
REMARK    1  A    between atoms: C_1  and  C_2
REMARK    2  A    between atoms: C_2  and  O_3
REMARK    3  A    between atoms: O_3  and  C_4
REMARK    4  A    between atoms: C_4  and  C_6
REMARK    5  A    between atoms: C_7  and  C_36
REMARK    6  A    between atoms: C_11  and  C_13
REMARK    7  A    between atoms: C_23  and  C_26
REMARK    8  A    between atoms: C_29  and  O_34
REMARK    9  A    between atoms: C_30  and  O_32
REMARK   10  A    between atoms: O_32  and  C_33
REMARK   11  A    between atoms: O_34  and  C_35
REMARK                            x       y       z     vdW  Elec       q    Type
REMARK                         _______ _______ _______ _____ _____    ______ ____
ROOT
ATOM      1  C   UNL     1      -3.255   4.291   2.162  0.00  0.00    +0.065 C 
ATOM      2  C   UNL     1      -3.202   4.908   0.969  0.00  0.00    +0.016 C 
ATOM      3  N   UNL     1      -2.215   4.603   0.075  0.00  0.00    -0.321 N 
ATOM      4  C   UNL     1      -1.515   3.431   0.180  0.00  0.00    +0.016 C 
ATOM      5  C   UNL     1      -1.498   2.745   1.342  0.00  0.00    +0.024 C 
ATOM      6  C   UNL     1      -2.235   3.261   2.552  0.00  0.00    +0.093 C 
ATOM      7  C   UNL     1      -0.796   1.532   1.459  0.00  0.00    +0.162 C 
ATOM      8  O   UNL     1      -0.790   0.944   2.523  0.00  0.00    -0.292 OA
ATOM      9  C   UNL     1      -0.053   0.947   0.289  0.00  0.00    +0.088 C 
ATOM     10  C   UNL     1      -0.730   1.397  -1.010  0.00  0.00    +0.032 C 
ATOM     11  C   UNL     1      -0.769   2.927  -1.031  0.00  0.00    +0.059 C 
ATOM     12  C   UNL     1      -4.240   5.942   0.615  0.00  0.00    +0.061 C 
ATOM     13  H   UNL     1      -1.975   5.303  -0.740  0.00  0.00    +0.152 HD
ENDROOT
BRANCH   6  14
ATOM     14  C   UNL     1      -1.247   3.881   3.507  0.00  0.00    -0.021 A 
ATOM     15  C   UNL     1      -0.471   4.950   3.101  0.00  0.00    +0.005 A 
ATOM     16  C   UNL     1       0.435   5.519   3.976  0.00  0.00    +0.000 A 
ATOM     17  C   UNL     1       0.566   5.018   5.258  0.00  0.00    +0.001 A 
ATOM     18  C   UNL     1      -0.209   3.948   5.665  0.00  0.00    +0.015 A 
ATOM     19  C   UNL     1      -1.120   3.382   4.790  0.00  0.00    +0.022 A 
ATOM     20 BR   UNL     1      -2.186   1.923   5.348  0.00  0.00    -0.050 Br
ENDBRANCH   6  14
BRANCH  10  21
ATOM     21  C   UNL     1       0.058   0.895  -2.192  0.00  0.00    -0.040 A 
ATOM     22  C   UNL     1       1.375   1.281  -2.357  0.00  0.00    +0.008 A 
ATOM     23  C   UNL     1       2.104   0.818  -3.437  0.00  0.00    +0.049 A 
ATOM     24  C   UNL     1       1.511  -0.026  -4.363  0.00  0.00    +0.161 A 
ATOM     25  C   UNL     1       0.184  -0.410  -4.199  0.00  0.00    +0.162 A 
ATOM     26  C   UNL     1      -0.539   0.053  -3.111  0.00  0.00    +0.053 A 
BRANCH  25  27
ATOM     27  O   UNL     1      -0.403  -1.238  -5.104  0.00  0.00    -0.491 OA
ATOM     28  C   UNL     1      -1.768  -1.591  -4.872  0.00  0.00    +0.277 C 
ENDBRANCH  25  27
BRANCH  24  29
ATOM     29  O   UNL     1       2.225  -0.477  -5.429  0.00  0.00    -0.491 OA
ATOM     30  C   UNL     1       3.582  -0.042  -5.532  0.00  0.00    +0.277 C 
ENDBRANCH  24  29
ENDBRANCH  10  21
BRANCH   1  31
ATOM     31  C   UNL     1      -4.291   4.618   3.067  0.00  0.00    +0.338 C 
ATOM     32  O   UNL     1      -5.061   5.525   2.809  0.00  0.00    -0.245 OA
BRANCH  31  33
ATOM     33  O   UNL     1      -4.427   3.925   4.217  0.00  0.00    -0.462 OA
BRANCH  33  35
ATOM     34  C   UNL     1      -5.490   3.417   6.327  0.00  0.00    +0.048 C 
ATOM     35  C   UNL     1      -5.496   4.309   5.085  0.00  0.00    +0.229 C 
ENDBRANCH  33  35
ENDBRANCH  31  33
ENDBRANCH   1  31
TORSDOF 7
