REMARK  Name = ZINC59249351
REMARK  8 active torsions:
REMARK  status: ('A' for Active; 'I' for Inactive)
REMARK    1  A    between atoms: C_1  and  C_2
REMARK    2  A    between atoms: C_2  and  O_3
REMARK    3  A    between atoms: O_3  and  C_4
REMARK    4  A    between atoms: C_6  and  C_14
REMARK    5  A    between atoms: C_8  and  C_11
REMARK    6  A    between atoms: C_9  and  O_10
REMARK    7  A    between atoms: C_11  and  C_12
REMARK    8  A    between atoms: N_15  and  C_16
REMARK                            x       y       z     vdW  Elec       q    Type
REMARK                         _______ _______ _______ _____ _____    ______ ____
ROOT
ATOM      1  C   UNL     1      -1.498  -1.849   0.006  0.00  0.00    +0.163 A 
ATOM      2  C   UNL     1      -0.392  -2.675  -0.003  0.00  0.00    +0.058 A 
ATOM      3  C   UNL     1      -0.560  -4.064  -0.008  0.00  0.00    -0.003 A 
ATOM      4  C   UNL     1      -1.849  -4.609  -0.004  0.00  0.00    +0.017 A 
ATOM      5  C   UNL     1      -2.947  -3.777   0.005  0.00  0.00    +0.002 A 
ATOM      6  C   UNL     1      -2.779  -2.399   0.016  0.00  0.00    +0.162 A 
ENDROOT
BRANCH   6   7
ATOM      7  O   UNL     1      -3.866  -1.585   0.030  0.00  0.00    -0.503 OA
ATOM      8  H   UNL     1      -4.189  -1.344  -0.849  0.00  0.00    +0.292 HD
ENDBRANCH   6   7
BRANCH   3   9
ATOM      9  C   UNL     1       0.615  -4.950  -0.018  0.00  0.00    +0.119 C 
ATOM     10  N   UNL     1       1.815  -4.440  -0.023  0.00  0.00    -0.255 NA
BRANCH  10  11
ATOM     11  C   UNL     1       2.908  -5.264  -0.032  0.00  0.00    +0.065 A 
ATOM     12  C   UNL     1       2.956  -6.375   0.813  0.00  0.00    +0.029 A 
ATOM     13  C   UNL     1       4.059  -7.202   0.798  0.00  0.00    +0.023 A 
ATOM     14  C   UNL     1       5.119  -6.933  -0.051  0.00  0.00    +0.059 A 
ATOM     15  C   UNL     1       5.079  -5.832  -0.891  0.00  0.00    +0.061 A 
ATOM     16  C   UNL     1       3.977  -5.000  -0.891  0.00  0.00    +0.049 A 
ATOM     17 CL   UNL     1       6.413  -5.501  -1.952  0.00  0.00    -0.082 Cl
ATOM     18 CL   UNL     1       6.505  -7.978  -0.062  0.00  0.00    -0.082 Cl
ENDBRANCH  10  11
ENDBRANCH   3   9
BRANCH   1  19
ATOM     19  O   UNL     1      -1.339  -0.499   0.012  0.00  0.00    -0.489 OA
BRANCH  19  21
ATOM     20  C   UNL     1      -0.019   1.526   0.010  0.00  0.00    +0.048 C 
ATOM     21  C   UNL     1       0.002  -0.004   0.002  0.00  0.00    +0.226 C 
ENDBRANCH  19  21
ENDBRANCH   1  19
BRANCH   5  22
ATOM     22  C   UNL     1      -4.335  -4.365   0.009  0.00  0.00    +0.065 C 
BRANCH  22  23
ATOM     23  C   UNL     1      -4.853  -4.441  -1.404  0.00  0.00    -0.030 C 
ATOM     24  C   UNL     1      -5.273  -5.584  -1.887  0.00  0.00    +0.004 C 
ENDBRANCH  22  23
ENDBRANCH   5  22
TORSDOF 7
