REMARK  Name = ZINC15170592
REMARK  6 active torsions:
REMARK  status: ('A' for Active; 'I' for Inactive)
REMARK    1  A    between atoms: C_3  and  C_6
REMARK    2  A    between atoms: C_6  and  C_8
REMARK    3  A    between atoms: C_6  and  N_29
REMARK    4  A    between atoms: C_8  and  N_9
REMARK    5  A    between atoms: C_17  and  C_19
REMARK    6  A    between atoms: C_19  and  N_20
REMARK                            x       y       z     vdW  Elec       q    Type
REMARK                         _______ _______ _______ _____ _____    ______ ____
ROOT
ATOM      1  N   UNL     1      -2.271   1.211   3.526  0.00  0.00    -0.330 N 
ATOM      2  C   UNL     1      -3.148   1.587   4.527  0.00  0.00    +0.131 A 
ATOM      3  C   UNL     1      -4.540   1.323   4.405  0.00  0.00    +0.051 A 
ATOM      4  C   UNL     1      -5.250   0.653   3.303  0.00  0.00    -0.025 A 
ATOM      5  C   UNL     1      -6.580   0.516   3.433  0.00  0.00    -0.004 A 
ATOM      6  S   UNL     1      -6.969   1.251   5.005  0.00  0.00    -0.073 S 
ATOM      7  C   UNL     1      -5.336   1.743   5.485  0.00  0.00    +0.114 A 
ATOM      8  N   UNL     1      -4.812   2.353   6.532  0.00  0.00    -0.223 NA
ATOM      9  C   UNL     1      -3.513   2.577   6.588  0.00  0.00    +0.146 A 
ATOM     10  N   UNL     1      -2.705   2.203   5.612  0.00  0.00    -0.216 NA
ATOM     11  C   UNL     1      -7.198  -0.179   2.249  0.00  0.00    +0.043 C 
ATOM     12  C   UNL     1      -6.008  -0.856   1.533  0.00  0.00    +0.010 C 
ATOM     13  C   UNL     1      -4.832   0.042   1.962  0.00  0.00    +0.037 C 
ATOM     14  H   UNL     1      -2.648   0.699   2.628  0.00  0.00    +0.147 HD
ENDROOT
BRANCH   1  15
ATOM     15  C   UNL     1      -0.840   1.494   3.660  0.00  0.00    +0.095 C 
BRANCH  15  16
ATOM     16  C   UNL     1      -0.099   0.979   2.425  0.00  0.00    +0.016 C 
BRANCH  16  17
ATOM     17  N   UNL     1      -0.700   1.559   1.216  0.00  0.00    +0.387 N 
ATOM     18  C   UNL     1      -0.013   1.086   0.008  0.00  0.00    -0.078 C 
ATOM     19  C   UNL     1      -0.752   1.593  -1.232  0.00  0.00    -0.019 C 
ATOM     20  C   UNL     1      -0.788   3.123  -1.209  0.00  0.00    -0.004 C 
ATOM     21  C   UNL     1      -1.465   3.591   0.082  0.00  0.00    -0.019 C 
ATOM     22  C   UNL     1      -0.705   3.026   1.284  0.00  0.00    -0.078 C 
ATOM     23  H   UNL     1      -1.745   1.222   1.161  0.00  0.00    -0.081 HD
ENDBRANCH  16  17
BRANCH  16  26
ATOM     24  C   UNL     1       3.545   1.360   2.824  0.00  0.00    +0.041 A 
ATOM     25  C   UNL     1       2.364   0.586   2.904  0.00  0.00    +0.043 A 
ATOM     26  C   UNL     1       1.352   1.378   2.506  0.00  0.00    +0.093 A 
ATOM     27  O   UNL     1       1.853   2.586   2.200  0.00  0.00    -0.469 OA
ATOM     28  C   UNL     1       3.182   2.581   2.391  0.00  0.00    +0.195 A 
ENDBRANCH  16  26
ENDBRANCH  15  16
ENDBRANCH   1  15
BRANCH   9  29
ATOM     29  C   UNL     1      -2.938   3.274   7.793  0.00  0.00    +0.160 C 
BRANCH  29  30
ATOM     30  N   UNL     1      -2.936   4.725   7.564  0.00  0.00    -0.291 NA
ATOM     31  C   UNL     1      -2.007   5.086   6.484  0.00  0.00    +0.113 C 
ATOM     32  C   UNL     1      -2.079   6.596   6.239  0.00  0.00    +0.175 C 
ATOM     33  O   UNL     1      -1.787   7.286   7.457  0.00  0.00    -0.377 OA
ATOM     34  C   UNL     1      -2.673   6.959   8.530  0.00  0.00    +0.175 C 
ATOM     35  C   UNL     1      -2.606   5.453   8.799  0.00  0.00    +0.113 C 
ENDBRANCH  29  30
ENDBRANCH   9  29
TORSDOF 6
