REMARK  Name = ZINC04955643
REMARK  8 active torsions:
REMARK  status: ('A' for Active; 'I' for Inactive)
REMARK    1  A    between atoms: C_1  and  O_2
REMARK    2  A    between atoms: O_2  and  C_3
REMARK    3  A    between atoms: C_6  and  C_9
REMARK    4  A    between atoms: C_9  and  C_10
REMARK    5  A    between atoms: C_10  and  N_11
REMARK    6  A    between atoms: C_12  and  C_14
REMARK    7  A    between atoms: C_15  and  N_28
REMARK    8  A    between atoms: C_19  and  C_23
REMARK                            x       y       z     vdW  Elec       q    Type
REMARK                         _______ _______ _______ _____ _____    ______ ____
ROOT
ATOM      1  C   UNL     1       1.019  10.036   0.048  0.00  0.00    +0.097 A 
ATOM      2  C   UNL     1       2.091   9.169   0.032  0.00  0.00    +0.053 A 
ATOM      3  C   UNL     1       1.823   7.740   0.026  0.00  0.00    +0.029 A 
ATOM      4  C   UNL     1       2.752   6.667   0.011  0.00  0.00    +0.014 A 
ATOM      5  C   UNL     1       2.291   5.387   0.009  0.00  0.00    +0.029 A 
ATOM      6  C   UNL     1       0.913   5.129   0.021  0.00  0.00    +0.079 A 
ATOM      7  N   UNL     1       0.045   6.136   0.030  0.00  0.00    -0.239 NA
ATOM      8  C   UNL     1       0.453   7.386   0.038  0.00  0.00    +0.111 A 
ATOM      9  S   UNL     1      -0.392   8.948   0.056  0.00  0.00    -0.062 S 
ENDROOT
BRANCH   6  10
ATOM     10  C   UNL     1       0.425   3.737   0.018  0.00  0.00    +0.038 A 
ATOM     11  C   UNL     1      -0.866   3.275   0.028  0.00  0.00    +0.017 A 
ATOM     12  C   UNL     1      -1.081   1.916   0.017  0.00  0.00    +0.008 A 
ATOM     13  C   UNL     1      -0.013   1.076   0.008  0.00  0.00    +0.046 A 
ATOM     14  S   UNL     1       1.360   2.217   0.001  0.00  0.00    -0.095 S 
ENDBRANCH   6  10
BRANCH   1  16
ATOM     15  N   UNL     1      -0.124  12.139   0.071  0.00  0.00    -0.311 N 
ATOM     16  C   UNL     1       1.036  11.452   0.056  0.00  0.00    +0.253 C 
ATOM     17  O   UNL     1       2.097  12.049   0.048  0.00  0.00    -0.270 OA
ATOM     18  H   UNL     1      -0.969  11.664   0.077  0.00  0.00    +0.149 HD
BRANCH  15  19
ATOM     19  C   UNL     1      -0.106  13.604   0.079  0.00  0.00    +0.109 C 
BRANCH  19  20
ATOM     20  C   UNL     1      -1.543  14.131   0.097  0.00  0.00    +0.054 C 
BRANCH  20  24
ATOM     21  C   UNL     1      -1.492  18.404   0.120  0.00  0.00    +0.120 A 
ATOM     22  C   UNL     1      -1.513  17.716  -1.084  0.00  0.00    +0.046 A 
ATOM     23  C   UNL     1      -1.529  16.335  -1.089  0.00  0.00    +0.007 A 
ATOM     24  C   UNL     1      -1.525  15.638   0.105  0.00  0.00    -0.046 A 
ATOM     25  C   UNL     1      -1.510  16.321   1.307  0.00  0.00    +0.007 A 
ATOM     26  C   UNL     1      -1.488  17.703   1.317  0.00  0.00    +0.046 A 
BRANCH  21  28
ATOM     27  C   UNL     1      -1.455  20.405   1.404  0.00  0.00    +0.277 C 
ATOM     28  O   UNL     1      -1.476  19.763   0.128  0.00  0.00    -0.495 OA
ENDBRANCH  21  28
ENDBRANCH  20  24
ENDBRANCH  19  20
ENDBRANCH  15  19
ENDBRANCH   1  16
BRANCH   2  29
ATOM     29  N   UNL     1       3.393   9.648   0.022  0.00  0.00    -0.356 N 
ATOM     30  H   UNL     1       4.138   9.027   0.011  0.00  0.00    +0.142 HD
ATOM     31  H   UNL     1       3.558  10.604   0.026  0.00  0.00    +0.142 HD
ENDBRANCH   2  29
TORSDOF 7
