REMARK  Name = ZINC36064571
REMARK  15 active torsions:
REMARK  status: ('A' for Active; 'I' for Inactive)
REMARK    1  A    between atoms: C_1  and  C_2
REMARK    2  A    between atoms: C_2  and  C_3
REMARK    3  A    between atoms: C_4  and  C_35
REMARK    4  A    between atoms: C_5  and  C_25
REMARK    5  A    between atoms: C_8  and  C_13
REMARK    6  A    between atoms: C_14  and  N_16
REMARK    7  A    between atoms: N_16  and  C_17
REMARK    8  A    between atoms: N_16  and  C_18
REMARK    9  A    between atoms: C_18  and  C_19
REMARK   10  A    between atoms: C_28  and  O_33
REMARK   11  A    between atoms: C_30  and  O_31
REMARK   12  A    between atoms: O_31  and  C_32
REMARK   13  A    between atoms: O_33  and  C_34
REMARK   14  A    between atoms: C_35  and  O_37
REMARK   15  A    between atoms: O_37  and  C_38
REMARK                            x       y       z     vdW  Elec       q    Type
REMARK                         _______ _______ _______ _____ _____    ______ ____
ROOT
ATOM      1  C   UNL     1       0.936  -1.095  -1.514  0.00  0.00    +0.056 C 
ATOM      2  C   UNL     1       2.308  -1.242  -1.439  0.00  0.00    +0.083 C 
ATOM      3  C   UNL     1       3.071  -1.420  -2.733  0.00  0.00    +0.153 C 
ATOM      4  N   UNL     1       2.277  -1.421  -3.991  0.00  0.00    -0.267 N 
ATOM      5  C   UNL     1       2.758  -1.567  -5.277  0.00  0.00    +0.048 C 
ATOM      6  C   UNL     1       1.863  -1.540  -6.288  0.00  0.00    +0.072 C 
ATOM      7  S   UNL     1       0.327  -1.306  -5.415  0.00  0.00    -0.060 S 
ATOM      8  C   UNL     1       0.927  -1.260  -3.848  0.00  0.00    +0.166 C 
ATOM      9  N   UNL     1       0.323  -1.115  -2.686  0.00  0.00    -0.229 NA
ENDROOT
BRANCH   3  10
ATOM     10  C   UNL     1       3.818  -2.726  -2.656  0.00  0.00    +0.020 A 
ATOM     11  C   UNL     1       3.242  -3.882  -3.147  0.00  0.00    +0.013 A 
ATOM     12  C   UNL     1       3.925  -5.080  -3.078  0.00  0.00    +0.046 A 
ATOM     13  C   UNL     1       5.192  -5.127  -2.514  0.00  0.00    +0.124 A 
ATOM     14  C   UNL     1       5.773  -3.969  -2.020  0.00  0.00    +0.091 A 
ATOM     15  C   UNL     1       5.087  -2.766  -2.096  0.00  0.00    +0.129 A 
BRANCH  15  16
ATOM     16  O   UNL     1       5.656  -1.628  -1.618  0.00  0.00    -0.495 OA
ATOM     17  C   UNL     1       7.004  -1.723  -1.152  0.00  0.00    +0.277 C 
ENDBRANCH  15  16
BRANCH  13  18
ATOM     18  O   UNL     1       5.863  -6.306  -2.446  0.00  0.00    -0.495 OA
ATOM     19  C   UNL     1       5.205  -7.459  -2.974  0.00  0.00    +0.277 C 
ENDBRANCH  13  18
ENDBRANCH   3  10
BRANCH   5  20
ATOM     20  C   UNL     1       4.194  -1.745  -5.536  0.00  0.00    +0.091 C 
ATOM     21  C   UNL     1       4.623  -2.029  -6.781  0.00  0.00    +0.241 C 
ATOM     22  O   UNL     1       3.746  -2.040  -7.814  0.00  0.00    -0.271 OA
BRANCH  21  23
ATOM     23  N   UNL     1       5.961  -2.309  -7.005  0.00  0.00    -0.297 N 
ATOM     24  C   UNL     1       6.892  -2.388  -5.877  0.00  0.00    +0.132 C 
BRANCH  23  25
ATOM     25  C   UNL     1       6.444  -2.527  -8.371  0.00  0.00    +0.142 C 
BRANCH  25  26
ATOM     26  C   UNL     1       6.995  -1.237  -8.921  0.00  0.00    -0.030 A 
ATOM     27  C   UNL     1       6.145  -0.317  -9.507  0.00  0.00    +0.005 A 
ATOM     28  C   UNL     1       6.649   0.867 -10.012  0.00  0.00    +0.000 A 
ATOM     29  C   UNL     1       8.004   1.131  -9.930  0.00  0.00    +0.000 A 
ATOM     30  C   UNL     1       8.853   0.212  -9.344  0.00  0.00    +0.000 A 
ATOM     31  C   UNL     1       8.348  -0.970  -8.835  0.00  0.00    +0.005 A 
ENDBRANCH  25  26
ENDBRANCH  23  25
ENDBRANCH  21  23
ENDBRANCH   5  20
BRANCH   1  33
ATOM     32  C   UNL     1      -0.010   0.577   0.054  0.00  0.00    +0.010 C 
ATOM     33  C   UNL     1       0.133  -0.916  -0.252  0.00  0.00    +0.053 C 
ENDBRANCH   1  33
BRANCH   2  34
ATOM     34  C   UNL     1       2.971  -1.228  -0.205  0.00  0.00    +0.339 C 
ATOM     35  O   UNL     1       3.513  -0.208   0.183  0.00  0.00    -0.245 OA
BRANCH  34  36
ATOM     36  O   UNL     1       3.009  -2.345   0.554  0.00  0.00    -0.465 OA
ATOM     37  C   UNL     1       3.609  -2.231   1.846  0.00  0.00    +0.280 C 
ENDBRANCH  34  36
ENDBRANCH   2  34
TORSDOF 10
