REMARK  Name = ZINC03459974
REMARK  7 active torsions:
REMARK  status: ('A' for Active; 'I' for Inactive)
REMARK    1  A    between atoms: C_1  and  N_2
REMARK    2  A    between atoms: C_11  and  C_13
REMARK    3  A    between atoms: N_15  and  N_16
REMARK    4  A    between atoms: C_17  and  C_19
REMARK    5  A    between atoms: C_19  and  C_20
REMARK    6  A    between atoms: C_20  and  C_21
REMARK    7  A    between atoms: C_21  and  C_22
REMARK                            x       y       z     vdW  Elec       q    Type
REMARK                         _______ _______ _______ _____ _____    ______ ____
ROOT
ATOM      1  N   UNL     1       3.578  -5.042  -0.061  0.00  0.00    -0.234 N 
ATOM      2  C   UNL     1       3.527  -6.388  -0.068  0.00  0.00    +0.229 C 
ATOM      3  O   UNL     1       2.455  -6.955  -0.061  0.00  0.00    -0.274 OA
ATOM      4  H   UNL     1       4.435  -4.588  -0.067  0.00  0.00    +0.173 HD
ENDROOT
BRANCH   1   7
ATOM      5  C   UNL     1       2.442  -2.949  -0.038  0.00  0.00    +0.281 C 
ATOM      6  O   UNL     1       3.517  -2.381  -0.045  0.00  0.00    -0.267 OA
ATOM      7  N   UNL     1       2.392  -4.296  -0.045  0.00  0.00    -0.229 N 
ATOM      8  H   UNL     1       1.534  -4.749  -0.040  0.00  0.00    +0.173 HD
BRANCH   5  19
ATOM      9  C   UNL     1      -2.320  -2.970   0.007  0.00  0.00    +0.176 C 
ATOM     10  N   UNL     1      -1.098  -2.162   0.000  0.00  0.00    -0.231 N 
ATOM     11  C   UNL     1      -1.221  -0.819   0.009  0.00  0.00    +0.275 A 
ATOM     12  O   UNL     1      -2.319  -0.294   0.022  0.00  0.00    -0.266 OA
ATOM     13  C   UNL     1       0.002  -0.004   0.002  0.00  0.00    +0.050 A 
ATOM     14  C   UNL     1      -0.017   1.387   0.010  0.00  0.00    +0.014 A 
ATOM     15  C   UNL     1       1.176   2.079   0.002  0.00  0.00    +0.001 A 
ATOM     16  C   UNL     1       2.389   1.403  -0.013  0.00  0.00    +0.001 A 
ATOM     17  C   UNL     1       2.428   0.025  -0.021  0.00  0.00    +0.011 A 
ATOM     18  C   UNL     1       1.237  -0.693  -0.013  0.00  0.00    +0.020 A 
ATOM     19  C   UNL     1       1.192  -2.164  -0.021  0.00  0.00    +0.155 A 
ATOM     20  N   UNL     1       0.029  -2.768  -0.014  0.00  0.00    -0.163 NA
ENDBRANCH   5  19
ENDBRANCH   1   7
BRANCH   2  21
ATOM     21  C   UNL     1       4.803  -7.190  -0.085  0.00  0.00    +0.097 C 
BRANCH  21  22
ATOM     22  C   UNL     1       4.468  -8.683  -0.091  0.00  0.00    +0.014 C 
BRANCH  22  23
ATOM     23  C   UNL     1       5.763  -9.497  -0.108  0.00  0.00    +0.038 C 
BRANCH  23  24
ATOM     24  C   UNL     1       5.432 -10.967  -0.113  0.00  0.00    -0.022 A 
ATOM     25  C   UNL     1       5.365 -11.774   0.957  0.00  0.00    +0.087 A 
ATOM     26  N   UNL     1       5.036 -13.043   0.565  0.00  0.00    -0.360 N 
ATOM     27  H   UNL     1       4.927 -13.800   1.162  0.00  0.00    +0.165 HD
ATOM     28  C   UNL     1       4.888 -13.086  -0.803  0.00  0.00    +0.047 A 
ATOM     29  C   UNL     1       5.130 -11.788  -1.288  0.00  0.00    +0.003 A 
ATOM     30  C   UNL     1       5.048 -11.529  -2.657  0.00  0.00    +0.010 A 
ATOM     31  C   UNL     1       4.734 -12.541  -3.521  0.00  0.00    +0.001 A 
ATOM     32  C   UNL     1       4.495 -13.823  -3.048  0.00  0.00    +0.002 A 
ATOM     33  C   UNL     1       4.569 -14.101  -1.700  0.00  0.00    +0.026 A 
ENDBRANCH  23  24
ENDBRANCH  22  23
ENDBRANCH  21  22
ENDBRANCH   2  21
TORSDOF 6
