REMARK  Name = ZINC08819122
REMARK  10 active torsions:
REMARK  status: ('A' for Active; 'I' for Inactive)
REMARK    1  A    between atoms: C_1  and  C_2
REMARK    2  A    between atoms: C_2  and  O_3
REMARK    3  A    between atoms: O_3  and  C_4
REMARK    4  A    between atoms: C_7  and  C_10
REMARK    5  A    between atoms: N_14  and  C_18
REMARK    6  A    between atoms: C_18  and  C_19
REMARK    7  A    between atoms: N_21  and  C_22
REMARK    8  A    between atoms: C_23  and  C_35
REMARK    9  A    between atoms: N_24  and  C_34
REMARK   10  A    between atoms: N_25  and  C_28
REMARK                            x       y       z     vdW  Elec       q    Type
REMARK                         _______ _______ _______ _____ _____    ______ ____
ROOT
ATOM      1  C   UNL     1       5.107   7.563   0.384  0.00  0.00    +0.211 C 
ENDROOT
BRANCH   1   6
ATOM      2  C   UNL     1       3.700   2.844  -0.216  0.00  0.00    +0.028 C 
ATOM      3  C   UNL     1       4.559   3.883  -0.060  0.00  0.00    +0.077 C 
ATOM      4  C   UNL     1       4.276   5.324   0.092  0.00  0.00    +0.259 C 
ATOM      5  O   UNL     1       3.138   5.756   0.089  0.00  0.00    -0.269 OA
ATOM      6  N   UNL     1       5.322   6.122   0.230  0.00  0.00    -0.246 N 
ATOM      7  C   UNL     1       6.581   5.640   0.231  0.00  0.00    +0.121 C 
ATOM      8  S   UNL     1       8.050   6.503   0.395  0.00  0.00    -0.027 S 
ATOM      9  S   UNL     1       6.345   3.882   0.027  0.00  0.00    -0.061 S 
BRANCH   2  13
ATOM     10  C   UNL     1       5.180  -1.000  -1.218  0.00  0.00    +0.121 A 
ATOM     11  C   UNL     1       3.847  -0.844  -0.859  0.00  0.00    +0.046 A 
ATOM     12  C   UNL     1       3.361   0.402  -0.533  0.00  0.00    +0.011 A 
ATOM     13  C   UNL     1       4.213   1.513  -0.563  0.00  0.00    -0.024 A 
ATOM     14  C   UNL     1       5.555   1.349  -0.926  0.00  0.00    +0.011 A 
ATOM     15  C   UNL     1       6.030   0.099  -1.250  0.00  0.00    +0.046 A 
BRANCH  10  16
ATOM     16  O   UNL     1       5.655  -2.232  -1.539  0.00  0.00    -0.492 OA
BRANCH  16  18
ATOM     17  C   UNL     1       7.383  -3.776  -2.225  0.00  0.00    +0.048 C 
ATOM     18  C   UNL     1       7.035  -2.322  -1.899  0.00  0.00    +0.225 C 
ENDBRANCH  16  18
ENDBRANCH  10  16
ENDBRANCH   2  13
ENDBRANCH   1   6
BRANCH   1  19
ATOM     19  C   UNL     1       4.971   7.896   1.848  0.00  0.00    +0.235 C 
ATOM     20  O   UNL     1       5.045   7.016   2.680  0.00  0.00    -0.274 OA
ATOM     21  N   UNL     1       4.766   9.172   2.232  0.00  0.00    -0.278 N 
ATOM     22  H   UNL     1       4.647   9.866   1.566  0.00  0.00    +0.155 HD
BRANCH  21  23
ATOM     23  C   UNL     1       4.723   9.496   3.603  0.00  0.00    +0.121 A 
ATOM     24  C   UNL     1       3.721  10.138   4.244  0.00  0.00    +0.059 A 
ATOM     25  N   UNL     1       4.057  10.261   5.567  0.00  0.00    -0.282 N 
ATOM     26  N   UNL     1       5.316   9.687   5.777  0.00  0.00    -0.216 N 
ATOM     27  C   UNL     1       5.758   9.206   4.596  0.00  0.00    +0.293 A 
ATOM     28  O   UNL     1       6.817   8.640   4.395  0.00  0.00    -0.264 OA
ATOM     29  C   UNL     1       3.231  10.897   6.597  0.00  0.00    +0.171 C 
ATOM     30  C   UNL     1       2.447  10.634   3.611  0.00  0.00    +0.067 C 
BRANCH  26  31
ATOM     31  C   UNL     1       5.996   9.623   6.996  0.00  0.00    +0.067 A 
ATOM     32  C   UNL     1       6.044  10.736   7.826  0.00  0.00    +0.028 A 
ATOM     33  C   UNL     1       6.713  10.667   9.032  0.00  0.00    +0.002 A 
ATOM     34  C   UNL     1       7.343   9.496   9.410  0.00  0.00    +0.000 A 
ATOM     35  C   UNL     1       7.302   8.388   8.584  0.00  0.00    +0.002 A 
ATOM     36  C   UNL     1       6.630   8.447   7.379  0.00  0.00    +0.028 A 
ENDBRANCH  26  31
ENDBRANCH  21  23
ENDBRANCH   1  19
TORSDOF 7
