REMARK  Name = ZINC09963904
REMARK  12 active torsions:
REMARK  status: ('A' for Active; 'I' for Inactive)
REMARK    1  A    between atoms: C_1  and  C_2
REMARK    2  A    between atoms: C_2  and  N_3
REMARK    3  A    between atoms: N_5  and  N_19
REMARK    4  A    between atoms: C_6  and  C_9
REMARK    5  A    between atoms: C_12  and  O_18
REMARK    6  A    between atoms: C_13  and  C_15
REMARK    7  A    between atoms: C_20  and  C_21
REMARK    8  A    between atoms: C_23  and  O_30
REMARK    9  A    between atoms: C_24  and  O_29
REMARK   10  A    between atoms: C_25  and  O_27
REMARK   11  A    between atoms: O_27  and  C_28
REMARK   12  A    between atoms: O_30  and  C_31
REMARK                            x       y       z     vdW  Elec       q    Type
REMARK                         _______ _______ _______ _____ _____    ______ ____
ROOT
ATOM      1  N   UNL     1       0.816  -7.144   2.307  0.00  0.00    -0.260 NA
ATOM      2  C   UNL     1       0.655  -6.370   1.264  0.00  0.00    +0.190 A 
ATOM      3  N   UNL     1       0.406  -5.012   1.214  0.00  0.00    -0.208 N 
ATOM      4  C   UNL     1       0.274  -4.417  -0.012  0.00  0.00    +0.082 A 
ATOM      5  C   UNL     1       0.382  -5.162  -1.131  0.00  0.00    +0.077 A 
ATOM      6  S   UNL     1       0.698  -6.790  -0.471  0.00  0.00    -0.056 S 
ENDROOT
BRANCH   4   7
ATOM      7  C   UNL     1       0.007  -2.965  -0.109  0.00  0.00    +0.002 A 
ATOM      8  C   UNL     1      -0.710  -2.318   0.902  0.00  0.00    +0.013 A 
ATOM      9  C   UNL     1      -0.962  -0.966   0.817  0.00  0.00    +0.047 A 
ATOM     10  C   UNL     1      -0.505  -0.236  -0.272  0.00  0.00    +0.129 A 
ATOM     11  C   UNL     1       0.210  -0.877  -1.294  0.00  0.00    +0.078 A 
ATOM     12  C   UNL     1       0.469  -2.244  -1.205  0.00  0.00    +0.026 A 
BRANCH  11  13
ATOM     13  C   UNL     1       0.692  -0.105  -2.456  0.00  0.00    +0.245 C 
ATOM     14  O   UNL     1       0.468   1.087  -2.529  0.00  0.00    -0.270 OA
ATOM     15  N   UNL     1       1.379  -0.723  -3.437  0.00  0.00    -0.325 N 
ATOM     16  H   UNL     1       1.557  -1.675  -3.379  0.00  0.00    +0.145 HD
ATOM     17  H   UNL     1       1.696  -0.216  -4.201  0.00  0.00    +0.145 HD
ENDBRANCH  11  13
BRANCH  10  18
ATOM     18  O   UNL     1      -0.756   1.095  -0.351  0.00  0.00    -0.506 OA
ATOM     19  H   UNL     1      -0.075   1.648   0.054  0.00  0.00    +0.292 HD
ENDBRANCH  10  18
ENDBRANCH   4   7
BRANCH   1  21
ATOM     20  C   UNL     1       2.422  -8.934   2.754  0.00  0.00    +0.029 C 
ATOM     21  C   UNL     1       1.074  -8.574   2.125  0.00  0.00    +0.141 C 
ENDBRANCH   1  21
BRANCH   3  22
ATOM     22  N   UNL     1       0.292  -4.261   2.391  0.00  0.00    -0.172 NA
ATOM     23  C   UNL     1      -0.070  -4.838   3.497  0.00  0.00    +0.141 C 
BRANCH  23  24
ATOM     24  C   UNL     1      -0.059  -4.080   4.761  0.00  0.00    +0.002 A 
ATOM     25  C   UNL     1       0.347  -2.743   4.773  0.00  0.00    +0.059 A 
ATOM     26  C   UNL     1       0.351  -2.034   5.960  0.00  0.00    +0.166 A 
ATOM     27  C   UNL     1      -0.037  -2.653   7.144  0.00  0.00    +0.201 A 
ATOM     28  C   UNL     1      -0.437  -3.986   7.137  0.00  0.00    +0.166 A 
ATOM     29  C   UNL     1      -0.449  -4.699   5.952  0.00  0.00    +0.059 A 
BRANCH  28  30
ATOM     30  O   UNL     1      -0.817  -4.588   8.296  0.00  0.00    -0.491 OA
ATOM     31  C   UNL     1      -1.216  -5.957   8.215  0.00  0.00    +0.277 C 
ENDBRANCH  28  30
BRANCH  27  32
ATOM     32  O   UNL     1      -0.026  -1.954   8.311  0.00  0.00    -0.501 OA
ATOM     33  H   UNL     1       0.811  -2.003   8.791  0.00  0.00    +0.292 HD
ENDBRANCH  27  32
BRANCH  26  34
ATOM     34  O   UNL     1       0.741  -0.731   5.971  0.00  0.00    -0.491 OA
ATOM     35  C   UNL     1       1.126  -0.158   4.720  0.00  0.00    +0.277 C 
ENDBRANCH  26  34
ENDBRANCH  23  24
ENDBRANCH   3  22
TORSDOF 9
