REMARK  Name = ZINC63698884
REMARK  4 active torsions:
REMARK  status: ('A' for Active; 'I' for Inactive)
REMARK    1  A    between atoms: C_10  and  C_26
REMARK    2  A    between atoms: C_13  and  C_15
REMARK    3  A    between atoms: C_15  and  S_16
REMARK    4  A    between atoms: S_16  and  C_17
REMARK                            x       y       z     vdW  Elec       q    Type
REMARK                         _______ _______ _______ _____ _____    ______ ____
ROOT
ATOM      1  C   UNL     1      -0.017   1.380   0.010  0.00  0.00    +0.002 A 
ATOM      2  C   UNL     1       1.168   2.094   0.002  0.00  0.00    +0.002 A 
ATOM      3  C   UNL     1       2.384   1.434   0.009  0.00  0.00    +0.025 A 
ATOM      4  C   UNL     1       2.406   0.049   0.011  0.00  0.00    +0.058 A 
ATOM      5  C   UNL     1       1.218  -0.666  -0.018  0.00  0.00    +0.053 A 
ATOM      6  C   UNL     1       0.002  -0.004   0.002  0.00  0.00    +0.025 A 
ATOM      7  N   UNL     1       1.309  -2.047  -0.133  0.00  0.00    -0.316 N 
ATOM      8  C   UNL     1       1.838  -2.872   0.805  0.00  0.00    +0.017 C 
ATOM      9  C   UNL     1       3.004  -2.658   1.440  0.00  0.00    +0.040 C 
ATOM     10  C   UNL     1       3.922  -1.479   1.232  0.00  0.00    +0.182 C 
ATOM     11  N   UNL     1       3.605  -0.663   0.079  0.00  0.00    -0.254 N 
ATOM     12  C   UNL     1       4.479  -0.591  -0.944  0.00  0.00    +0.231 C 
ATOM     13  O   UNL     1       5.524  -1.206  -0.894  0.00  0.00    -0.274 OA
ATOM     14  C   UNL     1       3.462  -3.577   2.414  0.00  0.00    +0.163 C 
ATOM     15  O   UNL     1       4.530  -3.373   2.956  0.00  0.00    -0.292 OA
ATOM     16  C   UNL     1       2.676  -4.794   2.802  0.00  0.00    +0.080 C 
ATOM     17  C   UNL     1       1.187  -4.511   2.569  0.00  0.00    +0.014 C 
ATOM     18  C   UNL     1       1.014  -4.112   1.105  0.00  0.00    +0.051 C 
ATOM     19  H   UNL     1       0.968  -2.452  -0.946  0.00  0.00    +0.152 HD
ENDROOT
BRANCH  10  20
ATOM     20  C   UNL     1       3.865  -0.607   2.459  0.00  0.00    +0.130 A 
ATOM     21  C   UNL     1       4.773  -0.584   3.451  0.00  0.00    +0.047 A 
ATOM     22  C   UNL     1       4.327   0.372   4.393  0.00  0.00    +0.041 A 
ATOM     23  C   UNL     1       3.173   0.876   3.920  0.00  0.00    +0.195 A 
ATOM     24  O   UNL     1       2.901   0.284   2.746  0.00  0.00    -0.466 OA
ENDBRANCH  10  20
BRANCH  12  25
ATOM     25  C   UNL     1       4.160   0.255  -2.150  0.00  0.00    +0.169 C 
BRANCH  25  26
ATOM     26  S   UNL     1       5.522   0.147  -3.342  0.00  0.00    -0.106 S 
BRANCH  26  27
ATOM     27  C   UNL     1       4.988   1.206  -4.715  0.00  0.00    +0.236 C 
ATOM     28  N   UNL     1       4.713   2.564  -4.228  0.00  0.00    -0.355 N 
ATOM     29  C   UNL     1       3.461   2.820  -4.472  0.00  0.00    +0.061 A 
ATOM     30  C   UNL     1       2.615   3.995  -4.221  0.00  0.00    +0.027 A 
ATOM     31  C   UNL     1       1.319   3.973  -4.594  0.00  0.00    +0.002 A 
ATOM     32  C   UNL     1       0.730   2.862  -5.222  0.00  0.00    +0.002 A 
ATOM     33  C   UNL     1       1.416   1.735  -5.499  0.00  0.00    +0.027 A 
ATOM     34  C   UNL     1       2.837   1.644  -5.137  0.00  0.00    +0.061 A 
ATOM     35  N   UNL     1       3.728   0.705  -5.278  0.00  0.00    -0.355 N 
ATOM     36  H   UNL     1       5.349   3.160  -3.801  0.00  0.00    +0.162 HD
ATOM     37  H   UNL     1       3.585  -0.166  -5.680  0.00  0.00    +0.162 HD
ENDBRANCH  26  27
ENDBRANCH  25  26
ENDBRANCH  12  25
TORSDOF 4
