REMARK  Name = ZINC58845738
REMARK  9 active torsions:
REMARK  status: ('A' for Active; 'I' for Inactive)
REMARK    1  A    between atoms: C_1  and  C_2
REMARK    2  A    between atoms: C_7  and  N_8
REMARK    3  A    between atoms: N_8  and  S_9
REMARK    4  A    between atoms: S_9  and  C_12
REMARK    5  A    between atoms: C_25  and  C_28
REMARK    6  A    between atoms: C_30  and  O_36
REMARK    7  A    between atoms: C_33  and  O_34
REMARK    8  A    between atoms: O_34  and  C_35
REMARK    9  A    between atoms: O_36  and  C_37
REMARK                            x       y       z     vdW  Elec       q    Type
REMARK                         _______ _______ _______ _____ _____    ______ ____
ROOT
ATOM      1  C   UNL     1       2.511  -0.689   3.425  0.00  0.00    +0.109 A 
ATOM      2  C   UNL     1       3.138  -1.748   2.794  0.00  0.00    +0.030 A 
ATOM      3  C   UNL     1       4.499  -1.705   2.572  0.00  0.00    +0.025 A 
ATOM      4  C   UNL     1       5.238  -0.599   2.979  0.00  0.00    +0.031 A 
ATOM      5  C   UNL     1       4.609   0.469   3.600  0.00  0.00    -0.018 A 
ATOM      6  C   UNL     1       3.240   0.414   3.820  0.00  0.00    +0.034 A 
ATOM      7  C   UNL     1       5.361   1.689   4.014  0.00  0.00    +0.049 C 
ATOM      8  C   UNL     1       5.601   1.729   5.502  0.00  0.00    -0.023 C 
ATOM      9  C   UNL     1       6.774   2.254   5.757  0.00  0.00    -0.030 C 
ATOM     10  C   UNL     1       7.486   2.633   4.477  0.00  0.00    +0.033 C 
ATOM     11  C   UNL     1       6.748   1.821   3.388  0.00  0.00    +0.029 C 
ATOM     12  C   UNL     1       7.468   0.500   3.215  0.00  0.00    +0.109 C 
ATOM     13  N   UNL     1       6.611  -0.578   2.766  0.00  0.00    -0.336 N 
ATOM     14  H   UNL     1       7.019  -1.333   2.314  0.00  0.00    +0.147 HD
ENDROOT
BRANCH  12  15
ATOM     15  C   UNL     1       8.106   0.126   4.528  0.00  0.00    +0.018 A 
ATOM     16  C   UNL     1       9.430   0.438   4.766  0.00  0.00    +0.054 A 
ATOM     17  C   UNL     1      10.017   0.094   5.975  0.00  0.00    +0.121 A 
ATOM     18  C   UNL     1       9.274  -0.562   6.945  0.00  0.00    +0.049 A 
ATOM     19  C   UNL     1       7.949  -0.873   6.707  0.00  0.00    +0.049 A 
ATOM     20  C   UNL     1       7.361  -0.525   5.500  0.00  0.00    +0.125 A 
BRANCH  20  21
ATOM     21  O   UNL     1       6.056  -0.827   5.268  0.00  0.00    -0.495 OA
ATOM     22  C   UNL     1       5.349  -1.498   6.313  0.00  0.00    +0.277 C 
ENDBRANCH  20  21
BRANCH  17  23
ATOM     23  O   UNL     1      11.321   0.401   6.209  0.00  0.00    -0.495 OA
ATOM     24  C   UNL     1      11.860   0.017   7.476  0.00  0.00    +0.277 C 
ENDBRANCH  17  23
ENDBRANCH  12  15
BRANCH   1  25
ATOM     25  S   UNL     1       0.774  -0.744   3.718  0.00  0.00    +0.072 S 
ATOM     26  O   UNL     1       0.518   0.133   4.806  0.00  0.00    -0.150 OA
ATOM     27  O   UNL     1       0.410  -2.118   3.744  0.00  0.00    -0.150 OA
BRANCH  25  28
ATOM     28  N   UNL     1       0.033  -0.084   2.392  0.00  0.00    -0.216 N 
ATOM     29  H   UNL     1      -0.528   0.702   2.491  0.00  0.00    +0.174 HD
BRANCH  28  36
ATOM     30  C   UNL     1       0.148   1.644   0.135  0.00  0.00    +0.046 C 
ATOM     31  C   UNL     1       0.276   0.148   0.003  0.00  0.00    -0.028 A 
ATOM     32  C   UNL     1       0.462  -0.422  -1.242  0.00  0.00    +0.005 A 
ATOM     33  C   UNL     1       0.579  -1.794  -1.364  0.00  0.00    +0.000 A 
ATOM     34  C   UNL     1       0.511  -2.600  -0.242  0.00  0.00    +0.002 A 
ATOM     35  C   UNL     1       0.327  -2.037   1.005  0.00  0.00    +0.025 A 
ATOM     36  C   UNL     1       0.214  -0.658   1.132  0.00  0.00    +0.051 A 
ENDBRANCH  28  36
ENDBRANCH  25  28
ENDBRANCH   1  25
TORSDOF 6
