REMARK  Name = ZINC13565220
REMARK  10 active torsions:
REMARK  status: ('A' for Active; 'I' for Inactive)
REMARK    1  A    between atoms: C_1  and  C_2
REMARK    2  A    between atoms: C_7  and  C_31
REMARK    3  A    between atoms: C_10  and  C_12
REMARK    4  A    between atoms: C_12  and  N_67
REMARK    5  A    between atoms: C_16  and  C_18
REMARK    6  A    between atoms: C_21  and  S_24
REMARK    7  A    between atoms: N_22  and  C_23
REMARK    8  A    between atoms: S_24  and  C_25
REMARK    9  A    between atoms: C_25  and  C_26
REMARK   10  A    between atoms: C_26  and  N_69
REMARK                            x       y       z     vdW  Elec       q    Type
REMARK                         _______ _______ _______ _____ _____    ______ ____
ROOT
ATOM      1  C   UNL     1       2.700   1.742  -4.149  0.00  0.00    -0.077 C 
ATOM      2  C   UNL     1       3.599   1.758  -5.403  0.00  0.00    -0.020 C 
ATOM      3  C   UNL     1       2.596   1.483  -6.555  0.00  0.00    -0.009 C 
ATOM      4  C   UNL     1       1.611   0.495  -5.882  0.00  0.00    +0.002 C 
ATOM      5  N   UNL     1       1.485   0.989  -4.497  0.00  0.00    +0.392 N 
ATOM      6  H   UNL     1       0.670   1.610  -4.431  0.00  0.00    -0.080 HD
ENDROOT
BRANCH   4   7
ATOM      7  C   UNL     1       0.271   0.540  -6.571  0.00  0.00    +0.120 A 
ATOM      8  N   UNL     1      -0.588   1.518  -6.524  0.00  0.00    -0.135 NA
ATOM      9  N   UNL     1      -1.624   1.228  -7.228  0.00  0.00    -0.123 NA
ATOM     10  C   UNL     1      -1.484   0.036  -7.759  0.00  0.00    +0.191 A 
ATOM     11  N   UNL     1      -0.270  -0.441  -7.356  0.00  0.00    -0.310 N 
ATOM     12  C   UNL     1       0.330  -1.734  -7.694  0.00  0.00    +0.152 C 
BRANCH  10  13
ATOM     13  S   UNL     1      -2.643  -0.793  -8.796  0.00  0.00    -0.088 S 
BRANCH  13  14
ATOM     14  C   UNL     1      -3.954   0.453  -8.859  0.00  0.00    +0.059 C 
BRANCH  14  15
ATOM     15  C   UNL     1      -5.103  -0.059  -9.730  0.00  0.00    -0.068 C 
BRANCH  15  20
ATOM     16  C   UNL     1      -5.627   2.274 -10.190  0.00  0.00    -0.079 C 
ATOM     17  C   UNL     1      -6.882   3.030 -10.693  0.00  0.00    -0.020 C 
ATOM     18  C   UNL     1      -7.692   1.922 -11.403  0.00  0.00    -0.020 C 
ATOM     19  C   UNL     1      -7.184   0.601 -10.797  0.00  0.00    -0.079 C 
ATOM     20  N   UNL     1      -6.184   0.971  -9.795  0.00  0.00    +0.380 N 
ATOM     21  H   UNL     1      -6.629   1.049  -8.873  0.00  0.00    -0.082 HD
ENDBRANCH  15  20
ENDBRANCH  14  15
ENDBRANCH  13  14
ENDBRANCH  10  13
ENDBRANCH   4   7
BRANCH   5  22
ATOM     22  C   UNL     1       1.303  -0.151  -3.561  0.00  0.00    +0.020 C 
BRANCH  22  30
ATOM     23  C   UNL     1       0.769   1.539   0.217  0.00  0.00    +0.028 C 
ATOM     24  C   UNL     1       0.714   0.010   0.210  0.00  0.00    +0.073 C 
ATOM     25  C   UNL     1      -0.580  -0.460   0.881  0.00  0.00    +0.022 C 
ATOM     26  C   UNL     1      -0.696  -1.980   0.748  0.00  0.00    +0.004 C 
ATOM     27  C   UNL     1      -0.755  -2.361  -0.734  0.00  0.00    +0.022 C 
ATOM     28  C   UNL     1       0.537  -1.912  -1.423  0.00  0.00    +0.073 C 
ATOM     29  N   UNL     1       0.732  -0.477  -1.177  0.00  0.00    -0.297 N 
ATOM     30  C   UNL     1       0.922   0.377  -2.202  0.00  0.00    +0.199 C 
ATOM     31  O   UNL     1       0.787   1.570  -2.031  0.00  0.00    -0.278 OA
ATOM     32  C   UNL     1       0.429  -2.164  -2.929  0.00  0.00    +0.028 C 
ENDBRANCH  22  30
ENDBRANCH   5  22
TORSDOF 7
