REMARK  Name = ZINC40354479
REMARK  4 active torsions:
REMARK  status: ('A' for Active; 'I' for Inactive)
REMARK    1  A    between atoms: C_4  and  C_6
REMARK    2  A    between atoms: C_4  and  N_9
REMARK    3  A    between atoms: C_6  and  N_8
REMARK    4  A    between atoms: C_10  and  C_12
REMARK                            x       y       z     vdW  Elec       q    Type
REMARK                         _______ _______ _______ _____ _____    ______ ____
ROOT
ATOM      1  N   UNL     1       1.904  -0.666  -1.395  0.00  0.00    -0.304 N 
ATOM      2  C   UNL     1       1.288  -1.613  -2.129  0.00  0.00    +0.220 C 
ATOM      3  O   UNL     1       0.450  -2.326  -1.618  0.00  0.00    -0.275 OA
ATOM      4  H   UNL     1       2.624  -0.144  -1.783  0.00  0.00    +0.150 HD
ENDROOT
BRANCH   2   5
ATOM      5  C   UNL     1       1.640  -1.788  -3.584  0.00  0.00    +0.048 C 
ATOM      6  C   UNL     1       1.349  -0.489  -4.338  0.00  0.00    +0.019 C 
ATOM      7  C   UNL     1       1.706  -0.666  -5.815  0.00  0.00    -0.009 C 
ATOM      8  C   UNL     1       0.869  -1.800  -6.410  0.00  0.00    +0.007 C 
ATOM      9  C   UNL     1       1.160  -3.099  -5.656  0.00  0.00    -0.009 C 
ATOM     10  C   UNL     1       0.802  -2.921  -4.179  0.00  0.00    +0.019 C 
ATOM     11  C   UNL     1       2.645  -3.441  -5.784  0.00  0.00    +0.007 C 
ATOM     12  C   UNL     1       3.483  -2.307  -5.189  0.00  0.00    -0.009 C 
ATOM     13  C   UNL     1       3.192  -1.008  -5.943  0.00  0.00    +0.007 C 
ATOM     14  C   UNL     1       3.125  -2.130  -3.712  0.00  0.00    +0.019 C 
ENDBRANCH   2   5
BRANCH   1  18
ATOM     15  C   UNL     1       3.482   0.018   1.377  0.00  0.00    +0.003 C 
ATOM     16  C   UNL     1       3.295  -1.501   1.182  0.00  0.00    +0.003 C 
ATOM     17  C   UNL     1       1.787  -1.661   0.870  0.00  0.00    +0.032 C 
ATOM     18  C   UNL     1       1.487  -0.423  -0.012  0.00  0.00    +0.079 C 
ATOM     19  C   UNL     1       2.332   0.703   0.617  0.00  0.00    +0.032 C 
BRANCH  18  20
ATOM     20  C   UNL     1       0.021  -0.078   0.045  0.00  0.00    +0.070 C 
ATOM     21  S   UNL     1      -0.952  -0.881   1.027  0.00  0.00    -0.038 S 
BRANCH  20  22
ATOM     22  N   UNL     1      -0.469   0.909  -0.731  0.00  0.00    -0.354 N 
ATOM     23  H   UNL     1       0.104   1.347  -1.379  0.00  0.00    +0.143 HD
ATOM     24  H   UNL     1      -1.396   1.180  -0.642  0.00  0.00    +0.143 HD
ENDBRANCH  20  22
ENDBRANCH  18  20
ENDBRANCH   1  18
TORSDOF 4
