REMARK  Name = ZINC20131357
REMARK  13 active torsions:
REMARK  status: ('A' for Active; 'I' for Inactive)
REMARK    1  A    between atoms: C_1  and  C_2
REMARK    2  A    between atoms: C_5  and  C_8
REMARK    3  A    between atoms: C_10  and  C_35
REMARK    4  A    between atoms: C_11  and  S_22
REMARK    5  A    between atoms: C_13  and  C_21
REMARK    6  A    between atoms: C_14  and  C_15
REMARK    7  A    between atoms: C_15  and  O_17
REMARK    8  A    between atoms: O_17  and  C_18
REMARK    9  A    between atoms: C_18  and  C_19
REMARK   10  A    between atoms: S_22  and  C_23
REMARK   11  A    between atoms: C_23  and  C_24
REMARK   12  A    between atoms: N_26  and  C_27
REMARK   13  A    between atoms: C_32  and  C_33
REMARK                            x       y       z     vdW  Elec       q    Type
REMARK                         _______ _______ _______ _____ _____    ______ ____
ROOT
ATOM      1  C   UNL     1       0.976   0.338  -0.288  0.00  0.00    +0.100 C 
ATOM      2  C   UNL     1       0.697   1.813  -0.228  0.00  0.00    +0.069 C 
ATOM      3  C   UNL     1       1.707   2.719  -0.135  0.00  0.00    +0.080 C 
ATOM      4  N   UNL     1       3.019   2.302  -0.101  0.00  0.00    -0.312 N 
ATOM      5  C   UNL     1       3.350   1.041  -0.514  0.00  0.00    +0.016 C 
ATOM      6  C   UNL     1       2.417   0.080  -0.622  0.00  0.00    +0.066 C 
ATOM      7  C   UNL     1       4.784   0.724  -0.852  0.00  0.00    +0.061 C 
ATOM      8  H   UNL     1       3.804   2.983   0.259  0.00  0.00    +0.152 HD
ENDROOT
BRANCH   1  13
ATOM      9  C   UNL     1      -0.243  -2.038   4.837  0.00  0.00    +0.044 C 
ATOM     10  C   UNL     1       0.075  -1.418   3.500  0.00  0.00    -0.050 A 
ATOM     11  C   UNL     1      -0.592  -1.841   2.366  0.00  0.00    +0.003 A 
ATOM     12  C   UNL     1      -0.301  -1.273   1.140  0.00  0.00    +0.005 A 
ATOM     13  C   UNL     1       0.657  -0.281   1.048  0.00  0.00    -0.035 A 
ATOM     14  C   UNL     1       1.328   0.139   2.182  0.00  0.00    +0.005 A 
ATOM     15  C   UNL     1       1.033  -0.426   3.409  0.00  0.00    +0.003 A 
ENDBRANCH   1  13
BRANCH   6  16
ATOM     16  C   UNL     1       2.802  -1.207  -1.061  0.00  0.00    +0.338 C 
ATOM     17  O   UNL     1       3.944  -1.407  -1.431  0.00  0.00    -0.245 OA
BRANCH  16  18
ATOM     18  O   UNL     1       1.903  -2.214  -1.069  0.00  0.00    -0.457 OA
BRANCH  18  19
ATOM     19  C   UNL     1       2.361  -3.489  -1.525  0.00  0.00    +0.259 C 
BRANCH  19  20
ATOM     20  C   UNL     1       1.229  -4.481  -1.463  0.00  0.00    +0.006 C 
ATOM     21  C   UNL     1       1.013  -5.291  -2.470  0.00  0.00    +0.007 C 
ENDBRANCH  19  20
ENDBRANCH  18  19
ENDBRANCH  16  18
ENDBRANCH   6  16
BRANCH   2  22
ATOM     22  C   UNL     1      -0.658   2.275  -0.277  0.00  0.00    +0.098 C 
ATOM     23  N   UNL     1      -1.733   2.641  -0.315  0.00  0.00    -0.191 NA
ENDBRANCH   2  22
BRANCH   3  24
ATOM     24  S   UNL     1       1.335   4.439  -0.057  0.00  0.00    -0.100 S 
BRANCH  24  25
ATOM     25  C   UNL     1       3.009   5.119   0.053  0.00  0.00    +0.171 C 
BRANCH  25  26
ATOM     26  C   UNL     1       2.936   6.622   0.133  0.00  0.00    +0.227 C 
ATOM     27  O   UNL     1       1.859   7.179   0.116  0.00  0.00    -0.275 OA
ATOM     28  N   UNL     1       4.069   7.347   0.222  0.00  0.00    -0.285 N 
ATOM     29  H   UNL     1       5.048   6.848   0.165  0.00  0.00    +0.155 HD
BRANCH  28  30
ATOM     30  C   UNL     1       4.000   8.735   0.387  0.00  0.00    +0.038 A 
ATOM     31  C   UNL     1       2.979   9.457  -0.217  0.00  0.00    +0.043 A 
ATOM     32  C   UNL     1       2.914  10.828  -0.052  0.00  0.00    +0.043 A 
ATOM     33  C   UNL     1       3.864  11.480   0.715  0.00  0.00    +0.020 A 
ATOM     34  C   UNL     1       4.881  10.762   1.317  0.00  0.00    +0.006 A 
ATOM     35  C   UNL     1       4.948   9.392   1.160  0.00  0.00    -0.029 A 
ATOM     36  C   UNL     1       6.054   8.610   1.821  0.00  0.00    +0.045 C 
ATOM     37 CL   UNL     1       1.639  11.733  -0.807  0.00  0.00    -0.083 Cl
ENDBRANCH  28  30
ENDBRANCH  25  26
ENDBRANCH  24  25
ENDBRANCH   3  24
TORSDOF 10
