REMARK  Name = ZINC10518808
REMARK  5 active torsions:
REMARK  status: ('A' for Active; 'I' for Inactive)
REMARK    1  A    between atoms: C_4  and  C_7
REMARK    2  A    between atoms: C_8  and  S_9
REMARK    3  A    between atoms: S_9  and  N_12
REMARK    4  A    between atoms: C_19  and  S_21
REMARK    5  A    between atoms: S_21  and  N_24
REMARK                            x       y       z     vdW  Elec       q    Type
REMARK                         _______ _______ _______ _____ _____    ______ ____
ROOT
ATOM      1  N   UNL     1       1.455  -2.067  -0.024  0.00  0.00    -0.203 N 
ATOM      2  C   UNL     1       2.897  -2.328  -0.040  0.00  0.00    +0.136 C 
ATOM      3  C   UNL     1       3.558  -0.940  -0.038  0.00  0.00    +0.058 C 
ATOM      4  C   UNL     1       2.400   0.032  -0.021  0.00  0.00    -0.021 A 
ATOM      5  C   UNL     1       1.217  -0.692  -0.014  0.00  0.00    +0.055 A 
ATOM      6  C   UNL     1       0.002  -0.004   0.002  0.00  0.00    +0.027 A 
ATOM      7  C   UNL     1      -0.017   1.375   0.010  0.00  0.00    +0.030 A 
ATOM      8  C   UNL     1       1.168   2.087   0.002  0.00  0.00    +0.105 A 
ATOM      9  C   UNL     1       2.376   1.413  -0.013  0.00  0.00    +0.034 A 
ENDROOT
BRANCH   1  10
ATOM     10  S   UNL     1       0.280  -3.233  -0.020  0.00  0.00    +0.068 S 
ATOM     11  O   UNL     1       0.874  -4.407   0.518  0.00  0.00    -0.150 OA
ATOM     12  O   UNL     1      -0.880  -2.639   0.545  0.00  0.00    -0.150 OA
BRANCH  10  14
ATOM     13  C   UNL     1       0.154  -4.790  -2.201  0.00  0.00    +0.028 C 
ATOM     14  C   UNL     1      -0.106  -3.590  -1.702  0.00  0.00    +0.157 C 
BRANCH  13  18
ATOM     15  C   UNL     1      -0.776  -5.650  -6.255  0.00  0.00    +0.000 A 
ATOM     16  C   UNL     1      -0.201  -6.624  -5.459  0.00  0.00    +0.001 A 
ATOM     17  C   UNL     1       0.103  -6.351  -4.141  0.00  0.00    +0.008 A 
ATOM     18  C   UNL     1      -0.169  -5.089  -3.612  0.00  0.00    -0.024 A 
ATOM     19  C   UNL     1      -0.754  -4.113  -4.419  0.00  0.00    +0.008 A 
ATOM     20  C   UNL     1      -1.048  -4.396  -5.737  0.00  0.00    +0.001 A 
ENDBRANCH  13  18
ENDBRANCH  10  14
ENDBRANCH   1  10
BRANCH   8  21
ATOM     21  S   UNL     1       1.140   3.849   0.011  0.00  0.00    +0.056 S 
ATOM     22  O   UNL     1       2.373   4.278  -0.549  0.00  0.00    -0.153 OA
ATOM     23  O   UNL     1      -0.117   4.237  -0.526  0.00  0.00    -0.153 OA
BRANCH  21  24
ATOM     24  N   UNL     1       1.147   4.330   1.596  0.00  0.00    -0.204 NA
ATOM     25  H   UNL     1       1.556   5.174   1.844  0.00  0.00    +0.144 HD
ATOM     26  H   UNL     1       0.742   3.768   2.275  0.00  0.00    +0.144 HD
ENDBRANCH  21  24
ENDBRANCH   8  21
TORSDOF 5
