REMARK  Name = ZINC08837159
REMARK  10 active torsions:
REMARK  status: ('A' for Active; 'I' for Inactive)
REMARK    1  A    between atoms: C_1  and  C_2
REMARK    2  A    between atoms: C_2  and  C_3
REMARK    3  A    between atoms: C_8  and  C_25
REMARK    4  A    between atoms: C_9  and  C_20
REMARK    5  A    between atoms: C_12  and  C_15
REMARK    6  A    between atoms: C_13  and  O_14
REMARK    7  A    between atoms: C_15  and  N_60
REMARK    8  A    between atoms: C_20  and  O_22
REMARK    9  A    between atoms: O_22  and  C_23
REMARK   10  A    between atoms: C_23  and  C_24
REMARK                            x       y       z     vdW  Elec       q    Type
REMARK                         _______ _______ _______ _____ _____    ______ ____
ROOT
ATOM      1  C   UNL     1      -2.391   1.255   2.968  0.00  0.00    -0.005 A 
ATOM      2  C   UNL     1      -2.216   2.552   3.357  0.00  0.00    +0.022 A 
ATOM      3  C   UNL     1      -1.121   3.277   2.884  0.00  0.00    +0.065 A 
ATOM      4  C   UNL     1      -0.905   4.677   3.287  0.00  0.00    +0.203 A 
ATOM      5  O   UNL     1      -1.670   5.248   4.042  0.00  0.00    -0.286 OA
ATOM      6  C   UNL     1       0.295   5.352   2.742  0.00  0.00    +0.104 A 
ATOM      7  C   UNL     1       1.118   4.642   1.891  0.00  0.00    +0.225 A 
ATOM      8  O   UNL     1       0.868   3.369   1.556  0.00  0.00    -0.447 OA
ATOM      9  C   UNL     1      -0.194   2.676   2.011  0.00  0.00    +0.144 A 
ATOM     10  C   UNL     1      -0.391   1.358   1.621  0.00  0.00    +0.021 A 
ATOM     11  C   UNL     1      -1.482   0.653   2.100  0.00  0.00    +0.125 A 
ENDROOT
BRANCH   6  12
ATOM     12  C   UNL     1       0.598   6.751   3.092  0.00  0.00    +0.117 A 
ATOM     13  N   UNL     1       0.744   7.790   2.295  0.00  0.00    -0.239 NA
ATOM     14  C   UNL     1       1.017   9.019   2.753  0.00  0.00    +0.079 A 
ATOM     15  C   UNL     1       1.192  10.211   2.007  0.00  0.00    +0.029 A 
ATOM     16  C   UNL     1       1.473  11.386   2.629  0.00  0.00    +0.002 A 
ATOM     17  C   UNL     1       1.601  11.470   4.009  0.00  0.00    +0.001 A 
ATOM     18  C   UNL     1       1.439  10.331   4.775  0.00  0.00    +0.017 A 
ATOM     19  C   UNL     1       1.153   9.137   4.158  0.00  0.00    +0.040 A 
ATOM     20  S   UNL     1       0.870   7.471   4.705  0.00  0.00    -0.067 S 
ENDBRANCH   6  12
BRANCH   1  22
ATOM     21  C   UNL     1      -3.157  -0.337   4.708  0.00  0.00    +0.009 C 
ATOM     22  C   UNL     1      -3.573   0.472   3.478  0.00  0.00    +0.035 C 
ENDBRANCH   1  22
BRANCH  11  23
ATOM     23  O   UNL     1      -1.669  -0.637   1.720  0.00  0.00    -0.506 OA
ATOM     24  H   UNL     1      -1.244  -1.283   2.301  0.00  0.00    +0.292 HD
ENDBRANCH  11  23
BRANCH   7  25
ATOM     25  C   UNL     1       2.314   5.308   1.333  0.00  0.00    +0.376 C 
ATOM     26  O   UNL     1       2.625   6.418   1.715  0.00  0.00    -0.241 OA
BRANCH  25  27
ATOM     27  O   UNL     1       3.059   4.682   0.400  0.00  0.00    -0.459 OA
BRANCH  27  28
ATOM     28  C   UNL     1       4.219   5.396  -0.104  0.00  0.00    +0.229 C 
ATOM     29  C   UNL     1       4.934   4.534  -1.147  0.00  0.00    +0.048 C 
ENDBRANCH  27  28
ENDBRANCH  25  27
ENDBRANCH   7  25
BRANCH  10  30
ATOM     30  C   UNL     1       0.585   0.694   0.684  0.00  0.00    -0.036 C 
BRANCH  30  35
ATOM     31  C   UNL     1      -0.081   2.346  -0.976  0.00  0.00    -0.078 C 
ATOM     32  C   UNL     1       0.000   2.433  -2.520  0.00  0.00    -0.020 C 
ATOM     33  C   UNL     1       1.126   1.431  -2.864  0.00  0.00    -0.020 C 
ATOM     34  C   UNL     1       1.199   0.478  -1.657  0.00  0.00    -0.078 C 
ATOM     35  N   UNL     1       0.154   0.915  -0.729  0.00  0.00    +0.383 N 
ATOM     36  H   UNL     1      -0.708   0.386  -0.905  0.00  0.00    -0.081 HD
ENDBRANCH  30  35
ENDBRANCH  10  30
TORSDOF 8
