REMARK  Name = ZINC12571091
REMARK  9 active torsions:
REMARK  status: ('A' for Active; 'I' for Inactive)
REMARK    1  A    between atoms: C_1  and  C_2
REMARK    2  A    between atoms: C_5  and  C_30
REMARK    3  A    between atoms: C_6  and  N_8
REMARK    4  A    between atoms: C_10  and  C_19
REMARK    5  A    between atoms: C_11  and  C_13
REMARK    6  A    between atoms: C_19  and  N_53
REMARK    7  A    between atoms: C_20  and  N_53
REMARK    8  A    between atoms: C_21  and  C_22
REMARK    9  A    between atoms: C_21  and  N_53
REMARK                            x       y       z     vdW  Elec       q    Type
REMARK                         _______ _______ _______ _____ _____    ______ ____
ROOT
ATOM      1  N   UNL     1       6.649   4.936  -1.696  0.00  0.00    -0.239 N 
ATOM      2  C   UNL     1       6.250   3.639  -1.768  0.00  0.00    +0.116 A 
ATOM      3  C   UNL     1       6.112   3.178  -0.505  0.00  0.00    -0.018 A 
ATOM      4  C   UNL     1       6.430   4.229   0.377  0.00  0.00    +0.094 A 
ATOM      5  N   UNL     1       6.758   5.281  -0.343  0.00  0.00    -0.166 NA
ENDROOT
BRANCH   1  11
ATOM      6  C   UNL     1       8.715   5.653  -6.101  0.00  0.00    +0.044 C 
ATOM      7  C   UNL     1       7.905   6.152  -4.933  0.00  0.00    -0.048 A 
ATOM      8  C   UNL     1       7.414   7.445  -4.935  0.00  0.00    +0.004 A 
ATOM      9  C   UNL     1       6.670   7.907  -3.865  0.00  0.00    +0.006 A 
ATOM     10  C   UNL     1       6.410   7.076  -2.792  0.00  0.00    -0.025 A 
ATOM     11  C   UNL     1       6.906   5.779  -2.785  0.00  0.00    +0.069 A 
ATOM     12  C   UNL     1       7.653   5.318  -3.861  0.00  0.00    +0.031 A 
ATOM     13  C   UNL     1       5.593   7.578  -1.629  0.00  0.00    +0.046 C 
ENDBRANCH   1  11
BRANCH   4  14
ATOM     14  C   UNL     1       6.405   4.160   1.859  0.00  0.00    +0.002 A 
ATOM     15  C   UNL     1       5.346   3.533   2.512  0.00  0.00    +0.010 A 
ATOM     16  C   UNL     1       5.330   3.468   3.890  0.00  0.00    +0.001 A 
ATOM     17  C   UNL     1       6.357   4.033   4.624  0.00  0.00    +0.000 A 
ATOM     18  C   UNL     1       7.409   4.662   3.981  0.00  0.00    +0.001 A 
ATOM     19  C   UNL     1       7.437   4.728   2.603  0.00  0.00    +0.010 A 
ENDBRANCH   4  14
BRANCH   3  20
ATOM     20  C   UNL     1       5.686   1.787  -0.111  0.00  0.00    -0.039 C 
BRANCH  20  22
ATOM     21  C   UNL     1       7.756   0.689  -0.718  0.00  0.00    -0.095 C 
ATOM     22  N   UNL     1       6.864   1.057   0.402  0.00  0.00    +0.385 N 
ATOM     23  H   UNL     1       7.377   1.665   1.051  0.00  0.00    -0.081 HD
BRANCH  22  24
ATOM     24  C   UNL     1       6.430  -0.158   1.123  0.00  0.00    -0.001 C 
BRANCH  24  25
ATOM     25  C   UNL     1       7.623  -0.761   1.820  0.00  0.00    +0.115 A 
ATOM     26  N   UNL     1       7.605  -1.889   2.603  0.00  0.00    -0.295 N 
ATOM     27  H   UNL     1       6.825  -2.430   2.802  0.00  0.00    +0.172 HD
ATOM     28  C   UNL     1       8.856  -2.113   3.054  0.00  0.00    +0.341 A 
ATOM     29  O   UNL     1       9.209  -3.025   3.779  0.00  0.00    -0.245 OA
ATOM     30  N   UNL     1       9.646  -1.141   2.550  0.00  0.00    -0.227 N 
ATOM     31  H   UNL     1      10.599  -1.040   2.699  0.00  0.00    +0.194 HD
ATOM     32  N   UNL     1       8.832  -0.302   1.777  0.00  0.00    -0.159 NA
ENDBRANCH  24  25
ENDBRANCH  22  24
ENDBRANCH  20  22
ENDBRANCH   3  20
TORSDOF 6
