REMARK  Name = ZINC66814810
REMARK  5 active torsions:
REMARK  status: ('A' for Active; 'I' for Inactive)
REMARK    1  A    between atoms: C_1  and  C_2
REMARK    2  A    between atoms: C_5  and  C_7
REMARK    3  A    between atoms: C_11  and  N_13
REMARK    4  A    between atoms: N_13  and  S_14
REMARK    5  A    between atoms: S_14  and  C_17
REMARK                            x       y       z     vdW  Elec       q    Type
REMARK                         _______ _______ _______ _____ _____    ______ ____
ROOT
ATOM      1  N   UNL     1       1.282  -6.931  -0.051  0.00  0.00    -0.216 N 
ATOM      2  H   UNL     1       0.545  -7.137  -0.646  0.00  0.00    +0.174 HD
ENDROOT
BRANCH   1   7
ATOM      3  C   UNL     1       1.562  -3.258  -0.022  0.00  0.00    +0.039 A 
ATOM      4  C   UNL     1       2.950  -3.105  -0.021  0.00  0.00    +0.013 A 
ATOM      5  C   UNL     1       3.766  -4.218  -0.030  0.00  0.00    +0.003 A 
ATOM      6  C   UNL     1       3.215  -5.485  -0.040  0.00  0.00    +0.024 A 
ATOM      7  C   UNL     1       1.835  -5.648  -0.041  0.00  0.00    +0.049 A 
ATOM      8  C   UNL     1       1.006  -4.536  -0.027  0.00  0.00    +0.037 A 
BRANCH   3  13
ATOM      9  C   UNL     1      -0.018   1.503   0.010  0.00  0.00    +0.088 C 
ATOM     10  C   UNL     1       0.002  -0.004   0.002  0.00  0.00    +0.123 A 
ATOM     11  C   UNL     1      -1.071  -0.816   0.003  0.00  0.00    +0.156 A 
ATOM     12  N   UNL     1      -0.627  -2.083  -0.006  0.00  0.00    -0.217 NA
ATOM     13  C   UNL     1       0.685  -2.068  -0.012  0.00  0.00    +0.227 A 
ATOM     14  O   UNL     1       1.098  -0.788  -0.013  0.00  0.00    -0.441 OA
ENDBRANCH   3  13
ENDBRANCH   1   7
BRANCH   1  15
ATOM     15  S   UNL     1       1.887  -8.101   0.954  0.00  0.00    +0.072 S 
ATOM     16  O   UNL     1       1.109  -9.269   0.732  0.00  0.00    -0.150 OA
ATOM     17  O   UNL     1       3.299  -8.083   0.794  0.00  0.00    -0.150 OA
BRANCH  15  18
ATOM     18  C   UNL     1       1.561  -7.586   2.607  0.00  0.00    +0.112 A 
ATOM     19  C   UNL     1       2.486  -6.808   3.282  0.00  0.00    +0.031 A 
ATOM     20  C   UNL     1       2.238  -6.401   4.578  0.00  0.00    +0.031 A 
ATOM     21  C   UNL     1       1.058  -6.772   5.203  0.00  0.00    +0.087 A 
ATOM     22  C   UNL     1       0.125  -7.555   4.525  0.00  0.00    +0.159 A 
ATOM     23  C   UNL     1       0.381  -7.955   3.222  0.00  0.00    +0.077 A 
ATOM     24  O   UNL     1      -0.916  -7.762   5.368  0.00  0.00    -0.408 OA
ATOM     25  C   UNL     1      -0.669  -7.144   6.533  0.00  0.00    +0.419 A 
ATOM     26  O   UNL     1      -1.411  -7.141   7.497  0.00  0.00    -0.223 OA
ATOM     27  N   UNL     1       0.528  -6.529   6.470  0.00  0.00    -0.288 N 
ATOM     28  H   UNL     1       0.945  -6.011   7.177  0.00  0.00    +0.172 HD
ENDBRANCH  15  18
ENDBRANCH   1  15
TORSDOF 4
