REMARK  Name = ZINC34744086
REMARK  2 active torsions:
REMARK  status: ('A' for Active; 'I' for Inactive)
REMARK    1  A    between atoms: C_1  and  C_2
REMARK    2  A    between atoms: C_2  and  C_3
REMARK                            x       y       z     vdW  Elec       q    Type
REMARK                         _______ _______ _______ _____ _____    ______ ____
ROOT
ATOM      1  C   UNL     1       0.707  -0.490  -1.238  0.00  0.00    -0.044 A 
ATOM      2  C   UNL     1       0.007  -0.624  -2.446  0.00  0.00    +0.021 A 
ATOM      3  C   UNL     1       0.649  -1.062  -3.554  0.00  0.00    +0.084 A 
ATOM      4  N   UNL     1       1.970  -1.374  -3.511  0.00  0.00    -0.355 N 
ATOM      5  H   UNL     1       2.416  -1.687  -4.314  0.00  0.00    +0.166 HD
ATOM      6  C   UNL     1       2.669  -1.255  -2.366  0.00  0.00    +0.084 A 
ATOM      7  S   UNL     1       4.334  -1.653  -2.335  0.00  0.00    -0.033 S 
ATOM      8  C   UNL     1       2.035  -0.799  -1.199  0.00  0.00    +0.037 A 
ENDROOT
BRANCH   1  10
ATOM      9  C   UNL     1      -0.019   1.526   0.010  0.00  0.00    +0.009 C 
ATOM     10  C   UNL     1       0.002  -0.004   0.002  0.00  0.00    +0.032 C 
ENDBRANCH   1  10
TORSDOF 1
