REMARK  Name = ZINC52541712
REMARK  3 active torsions:
REMARK  status: ('A' for Active; 'I' for Inactive)
REMARK    1  A    between atoms: N_9  and  C_15
REMARK    2  A    between atoms: C_15  and  C_16
REMARK    3  A    between atoms: C_16  and  C_17
REMARK                            x       y       z     vdW  Elec       q    Type
REMARK                         _______ _______ _______ _____ _____    ______ ____
ROOT
ATOM      1  C   UNL     1      -0.016   1.347   0.009  0.00  0.00    +0.001 A 
ATOM      2  C   UNL     1       1.165   2.101   0.002  0.00  0.00    +0.002 A 
ATOM      3  C   UNL     1       2.390   1.534  -0.017  0.00  0.00    +0.026 A 
ATOM      4  C   UNL     1       2.529   0.120  -0.031  0.00  0.00    +0.043 A 
ATOM      5  N   UNL     1       3.593  -0.653  -0.026  0.00  0.00    -0.376 N 
ATOM      6  C   UNL     1       3.155  -2.041  -0.140  0.00  0.00    +0.120 C 
ATOM      7  C   UNL     1       3.676  -2.919   1.001  0.00  0.00    +0.113 C 
ATOM      8  N   UNL     1       2.957  -4.202   0.964  0.00  0.00    -0.299 NA
ATOM      9  C   UNL     1       1.532  -4.075   1.282  0.00  0.00    +0.089 C 
ATOM     10  C   UNL     1       0.819  -3.248   0.195  0.00  0.00    +0.049 C 
ATOM     11  C   UNL     1       1.640  -1.996  -0.015  0.00  0.00    -0.036 C 
ATOM     12  C   UNL     1       1.294  -0.703  -0.014  0.00  0.00    -0.001 A 
ATOM     13  C   UNL     1       0.002  -0.004   0.002  0.00  0.00    +0.010 A 
ATOM     14  H   UNL     1       4.512  -0.352   0.043  0.00  0.00    +0.160 HD
ENDROOT
BRANCH   8  15
ATOM     15  C   UNL     1       3.604  -5.194   1.833  0.00  0.00    +0.090 C 
BRANCH  15  16
ATOM     16  C   UNL     1       2.987  -6.571   1.582  0.00  0.00    +0.071 C 
BRANCH  16  17
ATOM     17  C   UNL     1       3.651  -7.589   2.474  0.00  0.00    +0.042 A 
ATOM     18  C   UNL     1       2.878  -8.374   3.308  0.00  0.00    +0.023 A 
ATOM     19  C   UNL     1       3.498  -9.307   4.124  0.00  0.00    +0.003 A 
ATOM     20  C   UNL     1       4.880  -9.416   4.070  0.00  0.00    +0.020 A 
ATOM     21  C   UNL     1       5.587  -8.597   3.211  0.00  0.00    +0.111 A 
ATOM     22  N   UNL     1       4.963  -7.723   2.445  0.00  0.00    -0.260 NA
ENDBRANCH  16  17
ENDBRANCH  15  16
ENDBRANCH   8  15
TORSDOF 3
