REMARK  Name = ZINC09645612
REMARK  7 active torsions:
REMARK  status: ('A' for Active; 'I' for Inactive)
REMARK    1  A    between atoms: C_1  and  C_2
REMARK    2  A    between atoms: C_5  and  N_9
REMARK    3  A    between atoms: C_6  and  C_8
REMARK    4  A    between atoms: N_9  and  C_10
REMARK    5  A    between atoms: C_10  and  C_12
REMARK    6  A    between atoms: C_10  and  C_19
REMARK    7  A    between atoms: C_22  and  C_24
REMARK                            x       y       z     vdW  Elec       q    Type
REMARK                         _______ _______ _______ _____ _____    ______ ____
ROOT
ATOM      1  C   UNL     1       2.453   3.935  -0.000  0.00  0.00    +0.192 C 
ENDROOT
BRANCH   1   2
ATOM      2  C   UNL     1       1.158   3.165   0.007  0.00  0.00    +0.017 A 
ATOM      3  C   UNL     1       1.175   1.783   0.000  0.00  0.00    +0.009 A 
ATOM      4  C   UNL     1      -0.013   1.076   0.008  0.00  0.00    +0.001 A 
ATOM      5  C   UNL     1      -1.220   1.750   0.017  0.00  0.00    +0.003 A 
ATOM      6  C   UNL     1      -1.240   3.132   0.030  0.00  0.00    +0.039 A 
ATOM      7  C   UNL     1      -0.050   3.841   0.022  0.00  0.00    +0.129 A 
ATOM      8  F   UNL     1      -0.068   5.192   0.030  0.00  0.00    -0.205 F 
ENDBRANCH   1   2
BRANCH   1   9
ATOM      9  C   UNL     1       2.834   4.291   1.414  0.00  0.00    +0.242 A 
ATOM     10  N   UNL     1       3.318   3.476   2.309  0.00  0.00    -0.110 NA
ATOM     11  N   UNL     1       3.531   4.117   3.404  0.00  0.00    -0.107 NA
ATOM     12  C   UNL     1       3.179   5.372   3.246  0.00  0.00    +0.248 A 
ATOM     13  O   UNL     1       2.731   5.505   1.982  0.00  0.00    -0.418 OA
BRANCH  12  14
ATOM     14  C   UNL     1       3.259   6.440   4.265  0.00  0.00    +0.038 A 
ATOM     15  C   UNL     1       2.853   7.738   3.953  0.00  0.00    +0.013 A 
ATOM     16  C   UNL     1       2.924   8.729   4.911  0.00  0.00    +0.001 A 
ATOM     17  C   UNL     1       3.409   8.440   6.174  0.00  0.00    +0.000 A 
ATOM     18  C   UNL     1       3.819   7.157   6.488  0.00  0.00    +0.001 A 
ATOM     19  C   UNL     1       3.747   6.156   5.541  0.00  0.00    +0.013 A 
ENDBRANCH  12  14
ENDBRANCH   1   9
BRANCH   1  20
ATOM     20  N   UNL     1       3.507   3.112  -0.598  0.00  0.00    -0.329 N 
ATOM     21  H   UNL     1       4.092   2.586  -0.030  0.00  0.00    +0.147 HD
BRANCH  20  26
ATOM     22  C   UNL     1       4.168   2.998  -6.229  0.00  0.00    +0.044 C 
ATOM     23  C   UNL     1       3.993   3.029  -4.732  0.00  0.00    -0.050 A 
ATOM     24  C   UNL     1       2.997   3.807  -4.170  0.00  0.00    +0.005 A 
ATOM     25  C   UNL     1       2.830   3.833  -2.799  0.00  0.00    +0.023 A 
ATOM     26  C   UNL     1       3.671   3.084  -1.984  0.00  0.00    +0.031 A 
ATOM     27  C   UNL     1       4.670   2.304  -2.552  0.00  0.00    -0.029 A 
ATOM     28  C   UNL     1       4.828   2.279  -3.924  0.00  0.00    +0.008 A 
ATOM     29  C   UNL     1       5.580   1.487  -1.673  0.00  0.00    +0.045 C 
ENDBRANCH  20  26
ENDBRANCH   1  20
TORSDOF 5
