REMARK  Name = ZINC05317129
REMARK  7 active torsions:
REMARK  status: ('A' for Active; 'I' for Inactive)
REMARK    1  A    between atoms: C_1  and  C_2
REMARK    2  A    between atoms: C_2  and  C_22
REMARK    3  A    between atoms: C_3  and  C_4
REMARK    4  A    between atoms: C_4  and  O_5
REMARK    5  A    between atoms: C_6  and  C_7
REMARK    6  A    between atoms: C_7  and  C_9
REMARK    7  A    between atoms: N_11  and  C_12
REMARK                            x       y       z     vdW  Elec       q    Type
REMARK                         _______ _______ _______ _____ _____    ______ ____
ROOT
ATOM      1  C   UNL     1      -4.836  -0.123   1.983  0.00  0.00    +0.284 C 
ATOM      2  O   UNL     1      -4.431   0.704   2.774  0.00  0.00    -0.267 OA
ATOM      3  N   UNL     1      -3.963  -0.812   1.222  0.00  0.00    -0.303 N 
ATOM      4  H   UNL     1      -4.287  -1.473   0.590  0.00  0.00    +0.150 HD
ENDROOT
BRANCH   3   5
ATOM      5  C   UNL     1      -2.525  -0.563   1.349  0.00  0.00    +0.036 C 
ATOM      6  C   UNL     1      -1.763  -1.469   0.381  0.00  0.00    +0.029 C 
ATOM      7  C   UNL     1      -0.261  -1.209   0.513  0.00  0.00    -0.008 C 
ATOM      8  C   UNL     1       0.184  -1.506   1.947  0.00  0.00    +0.007 C 
ATOM      9  C   UNL     1      -0.579  -0.600   2.916  0.00  0.00    -0.008 C 
ATOM     10  C   UNL     1      -2.081  -0.860   2.783  0.00  0.00    +0.029 C 
ATOM     11  C   UNL     1      -0.284   0.865   2.583  0.00  0.00    +0.007 C 
ATOM     12  C   UNL     1      -0.728   1.162   1.150  0.00  0.00    -0.008 C 
ATOM     13  C   UNL     1       0.034   0.255   0.181  0.00  0.00    +0.007 C 
ATOM     14  C   UNL     1      -2.230   0.901   1.017  0.00  0.00    +0.029 C 
ENDBRANCH   3   5
BRANCH   1  15
ATOM     15  C   UNL     1      -6.300  -0.377   1.854  0.00  0.00    +0.244 C 
ATOM     16  O   UNL     1      -6.703  -1.200   1.067  0.00  0.00    -0.282 OA
BRANCH  15  18
ATOM     17  C   UNL     1      -8.680  -0.048   2.383  0.00  0.00    +0.121 C 
ATOM     18  C   UNL     1      -7.276   0.394   2.705  0.00  0.00    +0.101 C 
BRANCH  17  21
ATOM     19  C   UNL     1     -11.304  -0.583   1.484  0.00  0.00    +0.039 C 
ATOM     20  C   UNL     1     -11.062   0.251   2.716  0.00  0.00    -0.072 C 
ATOM     21  C   UNL     1      -9.815   0.556   3.081  0.00  0.00    +0.044 C 
ATOM     22  C   UNL     1     -12.228   0.742   3.534  0.00  0.00    +0.039 C 
ENDBRANCH  17  21
BRANCH  17  23
ATOM     23  O   UNL     1      -8.870  -0.904   1.544  0.00  0.00    -0.507 OA
ATOM     24  H   UNL     1      -7.992  -1.205   1.171  0.00  0.00    +0.292 HD
ENDBRANCH  17  23
ENDBRANCH  15  18
ENDBRANCH   1  15
TORSDOF 5
