REMARK  Name = ZINC63806858
REMARK  6 active torsions:
REMARK  status: ('A' for Active; 'I' for Inactive)
REMARK    1  A    between atoms: C_6  and  C_11
REMARK    2  A    between atoms: C_11  and  C_12
REMARK    3  A    between atoms: C_12  and  N_13
REMARK    4  A    between atoms: C_14  and  C_16
REMARK    5  A    between atoms: N_18  and  C_19
REMARK    6  A    between atoms: C_24  and  O_25
REMARK                            x       y       z     vdW  Elec       q    Type
REMARK                         _______ _______ _______ _____ _____    ______ ____
ROOT
ATOM      1  N   UNL     1       4.977  -3.604  -1.504  0.00  0.00    -0.307 N 
ATOM      2  C   UNL     1       5.294  -4.196  -2.673  0.00  0.00    +0.299 C 
ATOM      3  O   UNL     1       5.163  -3.589  -3.715  0.00  0.00    -0.265 OA
ATOM      4  H   UNL     1       5.082  -4.090  -0.671  0.00  0.00    +0.149 HD
ENDROOT
BRANCH   2   5
ATOM      5  C   UNL     1       5.808  -5.598  -2.685  0.00  0.00    +0.303 C 
ATOM      6  O   UNL     1       5.939  -6.205  -1.642  0.00  0.00    -0.265 OA
ATOM      7  N   UNL     1       6.125  -6.189  -3.854  0.00  0.00    -0.275 N 
ATOM      8  H   UNL     1       5.960  -5.729  -4.691  0.00  0.00    +0.155 HD
BRANCH   7   9
ATOM      9  C   UNL     1       6.694  -7.467  -3.859  0.00  0.00    +0.077 A 
ATOM     10  C   UNL     1       6.316  -8.401  -2.904  0.00  0.00    +0.047 A 
ATOM     11  C   UNL     1       6.879  -9.664  -2.912  0.00  0.00    +0.043 A 
ATOM     12  C   UNL     1       7.820  -9.999  -3.870  0.00  0.00    +0.023 A 
ATOM     13  C   UNL     1       8.201  -9.074  -4.824  0.00  0.00    +0.049 A 
ATOM     14  C   UNL     1       7.637  -7.808  -4.827  0.00  0.00    +0.138 A 
ATOM     15 CL   UNL     1       6.406 -10.831  -1.717  0.00  0.00    -0.083 Cl
BRANCH  14  16
ATOM     16  O   UNL     1       8.007  -6.899  -5.768  0.00  0.00    -0.505 OA
ATOM     17  H   UNL     1       8.760  -6.351  -5.511  0.00  0.00    +0.292 HD
ENDBRANCH  14  16
ENDBRANCH   7   9
ENDBRANCH   2   5
BRANCH   1  18
ATOM     18  C   UNL     1       4.473  -2.229  -1.492  0.00  0.00    +0.109 C 
BRANCH  18  19
ATOM     19  C   UNL     1       4.191  -1.801  -0.050  0.00  0.00    +0.052 C 
BRANCH  19  25
ATOM     20  C   UNL     1      -0.082   1.349   0.004  0.00  0.00    +0.022 A 
ATOM     21  C   UNL     1       1.038   2.102  -0.002  0.00  0.00    +0.027 A 
ATOM     22  C   UNL     1       2.319   1.485  -0.016  0.00  0.00    +0.043 A 
ATOM     23  N   UNL     1       3.530   1.988  -0.024  0.00  0.00    -0.380 N 
ATOM     24  C   UNL     1       4.495   0.883  -0.038  0.00  0.00    +0.144 C 
ATOM     25  C   UNL     1       3.673  -0.386  -0.038  0.00  0.00    -0.040 C 
ATOM     26  C   UNL     1       2.379   0.006  -0.025  0.00  0.00    +0.000 A 
ATOM     27  C   UNL     1       1.115  -0.740  -0.018  0.00  0.00    +0.030 A 
ATOM     28  C   UNL     1      -0.052  -0.054  -0.004  0.00  0.00    +0.042 A 
ATOM     29 CL   UNL     1      -1.549  -0.932   0.004  0.00  0.00    -0.084 Cl
ATOM     30  H   UNL     1       3.751   2.932  -0.021  0.00  0.00    +0.160 HD
ENDBRANCH  19  25
ENDBRANCH  18  19
ENDBRANCH   1  18
TORSDOF 6
