REMARK  Name = ZINC44358969
REMARK  12 active torsions:
REMARK  status: ('A' for Active; 'I' for Inactive)
REMARK    1  A    between atoms: C_1  and  C_2
REMARK    2  A    between atoms: C_2  and  O_3
REMARK    3  A    between atoms: O_3  and  C_4
REMARK    4  A    between atoms: C_4  and  C_6
REMARK    5  A    between atoms: C_6  and  C_8
REMARK    6  A    between atoms: C_6  and  N_27
REMARK    7  A    between atoms: C_8  and  C_9
REMARK    8  A    between atoms: C_12  and  O_25
REMARK    9  A    between atoms: C_13  and  C_15
REMARK   10  A    between atoms: C_15  and  O_16
REMARK   11  A    between atoms: O_16  and  C_17
REMARK   12  A    between atoms: O_25  and  C_26
REMARK                            x       y       z     vdW  Elec       q    Type
REMARK                         _______ _______ _______ _____ _____    ______ ____
ROOT
ATOM      1  C   UNL     1      -4.863  -2.886   1.434  0.00  0.00    -0.048 A 
ATOM      2  C   UNL     1      -5.895  -1.981   1.261  0.00  0.00    +0.007 A 
ATOM      3  C   UNL     1      -7.205  -2.419   1.253  0.00  0.00    +0.046 A 
ATOM      4  C   UNL     1      -7.485  -3.768   1.419  0.00  0.00    +0.126 A 
ATOM      5  C   UNL     1      -6.449  -4.673   1.591  0.00  0.00    +0.031 A 
ATOM      6  C   UNL     1      -5.140  -4.231   1.593  0.00  0.00    +0.014 A 
ENDROOT
BRANCH   4   7
ATOM      7  O   UNL     1      -8.773  -4.201   1.411  0.00  0.00    -0.495 OA
ATOM      8  C   UNL     1      -9.789  -3.212   1.229  0.00  0.00    +0.277 C 
ENDBRANCH   4   7
BRANCH   1   9
ATOM      9  C   UNL     1      -3.435  -2.405   1.443  0.00  0.00    +0.030 C 
BRANCH   9  10
ATOM     10  C   UNL     1      -2.881  -2.427   0.017  0.00  0.00    +0.040 C 
BRANCH  10  11
ATOM     11  N   UNL     1      -2.822  -3.813  -0.465  0.00  0.00    +0.387 N 
ATOM     12  H   UNL     1      -2.219  -4.353   0.138  0.00  0.00    -0.089 HD
ATOM     13  H   UNL     1      -3.749  -4.211  -0.459  0.00  0.00    -0.089 HD
ATOM     14  H   UNL     1      -2.456  -3.827  -1.406  0.00  0.00    -0.089 HD
ENDBRANCH  10  11
BRANCH  10  15
ATOM     15  C   UNL     1      -1.496  -1.832   0.006  0.00  0.00    +0.293 C 
ATOM     16  O   UNL     1      -0.528  -2.555  -0.007  0.00  0.00    -0.253 OA
BRANCH  15  17
ATOM     17  O   UNL     1      -1.339  -0.499   0.012  0.00  0.00    -0.466 OA
BRANCH  17  19
ATOM     18  C   UNL     1      -0.019   1.526   0.010  0.00  0.00    +0.048 C 
ATOM     19  C   UNL     1       0.002  -0.004   0.002  0.00  0.00    +0.228 C 
ENDBRANCH  17  19
ENDBRANCH  15  17
ENDBRANCH  10  15
ENDBRANCH   9  10
ENDBRANCH   1   9
BRANCH   5  20
ATOM     20  C   UNL     1      -6.750  -6.139   1.771  0.00  0.00    +0.268 C 
BRANCH  20  21
ATOM     21  O   UNL     1      -5.527  -6.861   1.929  0.00  0.00    -0.486 OA
BRANCH  21  22
ATOM     22  C   UNL     1      -5.622  -8.205   2.103  0.00  0.00    +0.135 A 
ATOM     23  C   UNL     1      -6.866  -8.818   2.116  0.00  0.00    +0.048 A 
ATOM     24  C   UNL     1      -6.961 -10.185   2.293  0.00  0.00    +0.023 A 
ATOM     25  C   UNL     1      -5.815 -10.943   2.458  0.00  0.00    +0.042 A 
ATOM     26  C   UNL     1      -4.573 -10.335   2.445  0.00  0.00    +0.039 A 
ATOM     27  C   UNL     1      -4.473  -8.968   2.263  0.00  0.00    +0.061 A 
ATOM     28 BR   UNL     1      -2.775  -8.138   2.239  0.00  0.00    -0.046 Br
ATOM     29 CL   UNL     1      -5.937 -12.660   2.681  0.00  0.00    -0.084 Cl
ENDBRANCH  21  22
ENDBRANCH  20  21
ENDBRANCH   5  20
TORSDOF 10
