REMARK  Name = ZINC20779365
REMARK  10 active torsions:
REMARK  status: ('A' for Active; 'I' for Inactive)
REMARK    1  A    between atoms: C_1  and  C_2
REMARK    2  A    between atoms: C_5  and  S_8
REMARK    3  A    between atoms: S_8  and  C_9
REMARK    4  A    between atoms: C_9  and  C_10
REMARK    5  A    between atoms: C_10  and  C_11
REMARK    6  A    between atoms: C_11  and  C_12
REMARK    7  A    between atoms: N_14  and  C_15
REMARK    8  A    between atoms: C_16  and  C_31
REMARK    9  A    between atoms: N_21  and  C_24
REMARK   10  A    between atoms: C_24  and  C_25
REMARK                            x       y       z     vdW  Elec       q    Type
REMARK                         _______ _______ _______ _____ _____    ______ ____
ROOT
ATOM      1  C   UNL     1       2.656   5.804  -6.073  0.00  0.00    +0.084 A 
ATOM      2  C   UNL     1       3.767   5.679  -5.248  0.00  0.00    +0.068 A 
ATOM      3  C   UNL     1       3.536   5.293  -3.869  0.00  0.00    -0.021 A 
ATOM      4  C   UNL     1       2.241   5.092  -3.535  0.00  0.00    +0.010 A 
ATOM      5  S   UNL     1       1.336   5.411  -5.021  0.00  0.00    -0.076 S 
ATOM      6  C   UNL     1       1.723   4.687  -2.190  0.00  0.00    +0.127 C 
ATOM      7  N   UNL     1       2.859   4.194  -1.388  0.00  0.00    -0.293 NA
ATOM      8  C   UNL     1       3.982   5.141  -1.440  0.00  0.00    +0.090 C 
ATOM      9  C   UNL     1       4.632   5.111  -2.826  0.00  0.00    +0.052 C 
ENDROOT
BRANCH   2  10
ATOM     10  C   UNL     1       5.121   5.930  -5.752  0.00  0.00    +0.244 C 
ATOM     11  O   UNL     1       5.770   5.019  -6.231  0.00  0.00    -0.270 OA
ATOM     12  N   UNL     1       5.646   7.169  -5.684  0.00  0.00    -0.325 N 
ATOM     13  H   UNL     1       6.662   7.357  -6.062  0.00  0.00    +0.145 HD
ATOM     14  H   UNL     1       5.060   7.992  -5.251  0.00  0.00    +0.145 HD
ENDBRANCH   2  10
BRANCH   1  17
ATOM     15  C   UNL     1       1.431   6.227  -8.054  0.00  0.00    +0.218 C 
ATOM     16  O   UNL     1       0.403   5.981  -7.459  0.00  0.00    -0.275 OA
ATOM     17  N   UNL     1       2.614   6.158  -7.413  0.00  0.00    -0.279 N 
ATOM     18  H   UNL     1       3.546   6.382  -7.952  0.00  0.00    +0.155 HD
BRANCH  15  19
ATOM     19  C   UNL     1       1.385   6.612  -9.511  0.00  0.00    +0.097 C 
BRANCH  19  20
ATOM     20  C   UNL     1      -0.068   6.616  -9.991  0.00  0.00    +0.020 C 
BRANCH  20  21
ATOM     21  C   UNL     1      -0.115   7.006 -11.470  0.00  0.00    +0.075 C 
BRANCH  21  22
ATOM     22  S   UNL     1      -1.837   7.011 -12.040  0.00  0.00    -0.125 S 
BRANCH  22  27
ATOM     23  C   UNL     1      -1.448   8.595 -17.852  0.00  0.00    +0.044 C 
ATOM     24  C   UNL     1      -1.545   8.199 -16.401  0.00  0.00    -0.050 A 
ATOM     25  C   UNL     1      -2.781   7.942 -15.837  0.00  0.00    +0.004 A 
ATOM     26  C   UNL     1      -2.874   7.580 -14.508  0.00  0.00    +0.015 A 
ATOM     27  C   UNL     1      -1.723   7.473 -13.736  0.00  0.00    +0.008 A 
ATOM     28  C   UNL     1      -0.483   7.737 -14.305  0.00  0.00    +0.015 A 
ATOM     29  C   UNL     1      -0.397   8.093 -15.636  0.00  0.00    +0.004 A 
ENDBRANCH  22  27
ENDBRANCH  21  22
ENDBRANCH  20  21
ENDBRANCH  19  20
ENDBRANCH  15  19
ENDBRANCH   1  17
BRANCH   7  30
ATOM     30  C   UNL     1       2.451   3.937  -0.001  0.00  0.00    +0.120 C 
BRANCH  30  31
ATOM     31  C   UNL     1       1.156   3.165   0.008  0.00  0.00    -0.033 A 
ATOM     32  C   UNL     1       1.175   1.783   0.000  0.00  0.00    +0.005 A 
ATOM     33  C   UNL     1      -0.013   1.076   0.008  0.00  0.00    +0.000 A 
ATOM     34  C   UNL     1      -1.219   1.751   0.017  0.00  0.00    +0.000 A 
ATOM     35  C   UNL     1      -1.238   3.133   0.030  0.00  0.00    +0.000 A 
ATOM     36  C   UNL     1      -0.050   3.840   0.023  0.00  0.00    +0.005 A 
ENDBRANCH  30  31
ENDBRANCH   7  30
TORSDOF 9
