REMARK  Name = ZINC36205309
REMARK  13 active torsions:
REMARK  status: ('A' for Active; 'I' for Inactive)
REMARK    1  A    between atoms: C_1  and  C_2
REMARK    2  A    between atoms: C_5  and  C_9
REMARK    3  A    between atoms: C_7  and  C_8
REMARK    4  A    between atoms: C_18  and  C_20
REMARK    5  A    between atoms: C_20  and  N_21
REMARK    6  A    between atoms: N_21  and  C_22
REMARK    7  A    between atoms: N_21  and  C_33
REMARK    8  A    between atoms: C_22  and  C_23
REMARK    9  A    between atoms: C_23  and  C_25
REMARK   10  A    between atoms: C_23  and  O_32
REMARK   11  A    between atoms: C_25  and  C_26
REMARK   12  A    between atoms: C_33  and  C_34
REMARK   13  A    between atoms: C_33  and  C_35
REMARK                            x       y       z     vdW  Elec       q    Type
REMARK                         _______ _______ _______ _____ _____    ______ ____
ROOT
ATOM      1  C   UNL     1       1.079  -4.720  -0.858  0.00  0.00    +0.004 A 
ATOM      2  C   UNL     1       2.031  -5.523  -0.326  0.00  0.00    +0.056 A 
ATOM      3  S   UNL     1       1.397  -7.163  -0.616  0.00  0.00    -0.076 S 
ATOM      4  C   UNL     1      -0.117  -6.737  -1.437  0.00  0.00    +0.116 A 
ATOM      5  C   UNL     1      -0.098  -5.333  -1.462  0.00  0.00    +0.080 A 
ATOM      6  C   UNL     1      -1.230  -4.708  -2.077  0.00  0.00    +0.260 A 
ATOM      7  O   UNL     1      -1.302  -3.494  -2.151  0.00  0.00    -0.267 OA
ATOM      8  N   UNL     1      -2.212  -5.483  -2.574  0.00  0.00    -0.312 N 
ATOM      9  H   UNL     1      -2.982  -5.065  -2.992  0.00  0.00    +0.170 HD
ATOM     10  C   UNL     1      -2.148  -6.837  -2.501  0.00  0.00    +0.094 A 
ATOM     11  N   UNL     1      -1.124  -7.436  -1.954  0.00  0.00    -0.229 NA
ENDROOT
BRANCH   1  16
ATOM     12  C   UNL     1       1.657   1.008  -0.720  0.00  0.00    +0.044 C 
ATOM     13  C   UNL     1       1.506  -0.491  -0.756  0.00  0.00    -0.048 A 
ATOM     14  C   UNL     1       1.188  -1.123  -1.945  0.00  0.00    +0.004 A 
ATOM     15  C   UNL     1       1.048  -2.495  -1.984  0.00  0.00    +0.009 A 
ATOM     16  C   UNL     1       1.228  -3.245  -0.823  0.00  0.00    -0.016 A 
ATOM     17  C   UNL     1       1.548  -2.603   0.372  0.00  0.00    +0.012 A 
ATOM     18  C   UNL     1       1.691  -1.231   0.398  0.00  0.00    -0.047 A 
ATOM     19  C   UNL     1       2.044  -0.535   1.688  0.00  0.00    +0.044 C 
ENDBRANCH   1  16
BRANCH  10  20
ATOM     20  C   UNL     1      -3.272  -7.664  -3.070  0.00  0.00    -0.003 C 
BRANCH  20  21
ATOM     21  N   UNL     1      -3.064  -9.077  -2.726  0.00  0.00    +0.388 N 
ATOM     22  H   UNL     1      -2.077  -9.287  -2.749  0.00  0.00    -0.081 HD
BRANCH  21  23
ATOM     23  C   UNL     1      -3.588  -9.334  -1.378  0.00  0.00    -0.074 C 
ATOM     24  C   UNL     1      -2.926  -8.380  -0.382  0.00  0.00    -0.014 C 
ATOM     25  C   UNL     1      -5.102  -9.111  -1.369  0.00  0.00    -0.014 C 
ENDBRANCH  21  23
BRANCH  21  26
ATOM     26  C   UNL     1      -3.768  -9.926  -3.696  0.00  0.00    -0.046 C 
BRANCH  26  27
ATOM     27  C   UNL     1      -3.412 -11.392  -3.443  0.00  0.00    +0.102 C 
BRANCH  27  28
ATOM     28  O   UNL     1      -3.967 -11.808  -2.194  0.00  0.00    -0.393 OA
ATOM     29  H   UNL     1      -4.934 -11.813  -2.175  0.00  0.00    +0.210 HD
ENDBRANCH  27  28
BRANCH  27  30
ATOM     30  C   UNL     1      -3.983 -12.257  -4.568  0.00  0.00    +0.064 C 
BRANCH  30  31
ATOM     31  C   UNL     1      -3.530 -13.683  -4.386  0.00  0.00    -0.045 A 
ATOM     32  C   UNL     1      -2.349 -14.111  -4.962  0.00  0.00    +0.004 A 
ATOM     33  C   UNL     1      -1.932 -15.419  -4.795  0.00  0.00    +0.000 A 
ATOM     34  C   UNL     1      -2.697 -16.298  -4.051  0.00  0.00    +0.000 A 
ATOM     35  C   UNL     1      -3.878 -15.869  -3.474  0.00  0.00    +0.000 A 
ATOM     36  C   UNL     1      -4.292 -14.560  -3.638  0.00  0.00    +0.004 A 
ENDBRANCH  30  31
ENDBRANCH  27  30
ENDBRANCH  26  27
ENDBRANCH  21  26
ENDBRANCH  20  21
ENDBRANCH  10  20
TORSDOF 9
