REMARK  Name = ZINC38685842
REMARK  12 active torsions:
REMARK  status: ('A' for Active; 'I' for Inactive)
REMARK    1  A    between atoms: C_1  and  C_2
REMARK    2  A    between atoms: C_2  and  O_3
REMARK    3  A    between atoms: O_3  and  C_4
REMARK    4  A    between atoms: C_7  and  C_10
REMARK    5  A    between atoms: C_15  and  O_24
REMARK    6  A    between atoms: C_19  and  N_23
REMARK    7  A    between atoms: C_20  and  C_21
REMARK    8  A    between atoms: O_24  and  C_25
REMARK    9  A    between atoms: C_25  and  C_27
REMARK   10  A    between atoms: C_27  and  C_29
REMARK   11  A    between atoms: C_27  and  O_30
REMARK   12  A    between atoms: O_30  and  C_31
REMARK                            x       y       z     vdW  Elec       q    Type
REMARK                         _______ _______ _______ _____ _____    ______ ____
ROOT
ATOM      1  C   UNL     1       1.372  -6.024  -1.973  0.00  0.00    +0.098 C 
ATOM      2  C   UNL     1       0.623  -6.435  -3.213  0.00  0.00    +0.008 A 
ATOM      3  C   UNL     1      -0.752  -6.577  -3.161  0.00  0.00    +0.012 A 
ATOM      4  C   UNL     1      -1.456  -6.953  -4.289  0.00  0.00    +0.047 A 
ATOM      5  C   UNL     1      -0.783  -7.189  -5.479  0.00  0.00    +0.135 A 
ATOM      6  C   UNL     1       0.594  -7.048  -5.534  0.00  0.00    +0.093 A 
ATOM      7  C   UNL     1       1.300  -6.669  -4.400  0.00  0.00    +0.138 A 
ATOM      8  O   UNL     1       2.647  -6.535  -4.470  0.00  0.00    -0.441 OA
ATOM      9  C   UNL     1       3.382  -6.556  -3.346  0.00  0.00    +0.199 C 
ATOM     10  C   UNL     1       2.837  -6.321  -2.132  0.00  0.00    +0.098 C 
ENDROOT
BRANCH   1  14
ATOM     11  C   UNL     1       0.840  -1.835  -1.319  0.00  0.00    +0.121 A 
ATOM     12  C   UNL     1       0.420  -2.747  -0.361  0.00  0.00    +0.046 A 
ATOM     13  C   UNL     1       0.593  -4.101  -0.575  0.00  0.00    +0.008 A 
ATOM     14  C   UNL     1       1.185  -4.547  -1.742  0.00  0.00    -0.034 A 
ATOM     15  C   UNL     1       1.605  -3.640  -2.698  0.00  0.00    +0.008 A 
ATOM     16  C   UNL     1       1.428  -2.286  -2.491  0.00  0.00    +0.046 A 
BRANCH  11  17
ATOM     17  O   UNL     1       0.671  -0.503  -1.111  0.00  0.00    -0.492 OA
BRANCH  17  19
ATOM     18  C   UNL     1      -0.047   1.414   0.174  0.00  0.00    +0.048 C 
ATOM     19  C   UNL     1       0.058  -0.111   0.120  0.00  0.00    +0.225 C 
ENDBRANCH  17  19
ENDBRANCH  11  17
ENDBRANCH   1  14
BRANCH   9  20
ATOM     20  N   UNL     1       4.726  -6.824  -3.433  0.00  0.00    -0.328 N 
ATOM     21  H   UNL     1       5.131  -6.994  -4.298  0.00  0.00    +0.145 HD
ATOM     22  H   UNL     1       5.270  -6.843  -2.630  0.00  0.00    +0.145 HD
ENDBRANCH   9  20
BRANCH  10  23
ATOM     23  C   UNL     1       3.676  -6.357  -0.973  0.00  0.00    +0.101 C 
ATOM     24  N   UNL     1       4.342  -6.385  -0.052  0.00  0.00    -0.191 NA
ENDBRANCH  10  23
BRANCH   5  25
ATOM     25  O   UNL     1      -1.474  -7.559  -6.590  0.00  0.00    -0.423 OA
BRANCH  25  26
ATOM     26  C   UNL     1      -1.285  -8.801  -7.065  0.00  0.00    +0.353 C 
ATOM     27  O   UNL     1      -0.596  -9.583  -6.454  0.00  0.00    -0.246 OA
BRANCH  26  28
ATOM     28  C   UNL     1      -1.933  -9.219  -8.360  0.00  0.00    +0.279 C 
ATOM     29  C   UNL     1      -1.350  -8.395  -9.510  0.00  0.00    +0.064 C 
BRANCH  28  30
ATOM     30  O   UNL     1      -1.681 -10.606  -8.593  0.00  0.00    -0.475 OA
BRANCH  30  31
ATOM     31  C   UNL     1      -2.543 -11.260  -9.415  0.00  0.00    +0.157 A 
ATOM     32  C   UNL     1      -3.651 -10.601  -9.926  0.00  0.00    +0.048 A 
ATOM     33  C   UNL     1      -4.527 -11.268 -10.761  0.00  0.00    +0.004 A 
ATOM     34  C   UNL     1      -4.299 -12.592 -11.090  0.00  0.00    +0.003 A 
ATOM     35  C   UNL     1      -3.196 -13.253 -10.583  0.00  0.00    +0.042 A 
ATOM     36  C   UNL     1      -2.312 -12.588  -9.751  0.00  0.00    +0.165 A 
ATOM     37  F   UNL     1      -1.230 -13.232  -9.260  0.00  0.00    -0.202 F 
ENDBRANCH  30  31
ENDBRANCH  28  30
ENDBRANCH  26  28
ENDBRANCH  25  26
ENDBRANCH   5  25
TORSDOF 10
