REMARK  Name = ZINC38669367
REMARK  9 active torsions:
REMARK  status: ('A' for Active; 'I' for Inactive)
REMARK    1  A    between atoms: C_1  and  C_2
REMARK    2  A    between atoms: C_3  and  O_26
REMARK    3  A    between atoms: C_4  and  C_8
REMARK    4  A    between atoms: C_11  and  O_15
REMARK    5  A    between atoms: C_13  and  O_14
REMARK    6  A    between atoms: O_15  and  C_16
REMARK    7  A    between atoms: C_16  and  C_17
REMARK    8  A    between atoms: C_20  and  N_23
REMARK    9  A    between atoms: O_26  and  C_27
REMARK                            x       y       z     vdW  Elec       q    Type
REMARK                         _______ _______ _______ _____ _____    ______ ____
ROOT
ATOM      1  C   UNL     1      -1.089  -2.995  -1.061  0.00  0.00    +0.025 A 
ATOM      2  C   UNL     1      -0.334  -3.170  -2.205  0.00  0.00    +0.013 A 
ATOM      3  C   UNL     1      -0.841  -3.896  -3.266  0.00  0.00    +0.046 A 
ATOM      4  C   UNL     1      -2.111  -4.451  -3.185  0.00  0.00    +0.124 A 
ATOM      5  C   UNL     1      -2.870  -4.277  -2.039  0.00  0.00    +0.091 A 
ATOM      6  C   UNL     1      -2.357  -3.553  -0.973  0.00  0.00    +0.126 A 
ENDROOT
BRANCH   1  10
ATOM      7  C   UNL     1      -0.022   1.491  -0.108  0.00  0.00    +0.071 C 
ATOM      8  C   UNL     1      -0.002  -0.015  -0.050  0.00  0.00    +0.098 C 
ATOM      9  C   UNL     1      -1.094  -0.791   0.098  0.00  0.00    +0.156 C 
ATOM     10  C   UNL     1      -0.533  -2.203   0.094  0.00  0.00    +0.200 C 
ATOM     11  N   UNL     1       0.913  -1.980  -0.070  0.00  0.00    -0.294 N 
ATOM     12  N   UNL     1       1.103  -0.764  -0.144  0.00  0.00    -0.179 NA
ATOM     13  H   UNL     1       1.596  -2.668  -0.115  0.00  0.00    +0.184 HD
BRANCH   9  14
ATOM     14  O   UNL     1      -2.382  -0.405   0.221  0.00  0.00    -0.455 OA
BRANCH  14  15
ATOM     15  C   UNL     1      -3.003  -0.624   1.410  0.00  0.00    +0.142 A 
ATOM     16  C   UNL     1      -2.284  -1.121   2.488  0.00  0.00    +0.047 A 
ATOM     17  C   UNL     1      -2.918  -1.343   3.695  0.00  0.00    +0.004 A 
ATOM     18  C   UNL     1      -4.267  -1.070   3.830  0.00  0.00    +0.001 A 
ATOM     19  C   UNL     1      -4.985  -0.574   2.758  0.00  0.00    +0.019 A 
ATOM     20  C   UNL     1      -4.356  -0.345   1.549  0.00  0.00    +0.060 A 
ATOM     21 BR   UNL     1      -5.337   0.340   0.086  0.00  0.00    -0.046 Br
ENDBRANCH  14  15
ENDBRANCH   9  14
ENDBRANCH   1  10
BRANCH   6  22
ATOM     22  O   UNL     1      -3.097  -3.385   0.154  0.00  0.00    -0.506 OA
ATOM     23  H   UNL     1      -3.659  -2.599   0.142  0.00  0.00    +0.292 HD
ENDBRANCH   6  22
BRANCH   4  24
ATOM     24  O   UNL     1      -2.609  -5.164  -4.229  0.00  0.00    -0.487 OA
BRANCH  24  25
ATOM     25  C   UNL     1      -1.771  -5.303  -5.379  0.00  0.00    +0.264 C 
BRANCH  25  26
ATOM     26  C   UNL     1      -2.486  -6.118  -6.425  0.00  0.00    -0.010 A 
ATOM     27  C   UNL     1      -2.351  -7.494  -6.441  0.00  0.00    +0.009 A 
ATOM     28  C   UNL     1      -3.006  -8.242  -7.401  0.00  0.00    +0.033 A 
ATOM     29  C   UNL     1      -3.797  -7.614  -8.345  0.00  0.00    +0.126 A 
ATOM     30  C   UNL     1      -3.932  -6.238  -8.329  0.00  0.00    +0.033 A 
ATOM     31  C   UNL     1      -3.280  -5.491  -7.367  0.00  0.00    +0.009 A 
BRANCH  29  32
ATOM     32  N   UNL     1      -4.498  -8.415  -9.374  0.00  0.00    +0.056 N 
ATOM     33  O   UNL     1      -4.379  -9.618  -9.389  0.00  0.00    -0.126 OA
ATOM     34  O   UNL     1      -5.189  -7.865 -10.200  0.00  0.00    -0.126 OA
ENDBRANCH  29  32
ENDBRANCH  25  26
ENDBRANCH  24  25
ENDBRANCH   4  24
TORSDOF 8
