REMARK  Name = ZINC36800574
REMARK  6 active torsions:
REMARK  status: ('A' for Active; 'I' for Inactive)
REMARK    1  A    between atoms: C_3  and  S_26
REMARK    2  A    between atoms: C_6  and  N_7
REMARK    3  A    between atoms: C_11  and  S_13
REMARK    4  A    between atoms: S_13  and  C_14
REMARK    5  A    between atoms: C_14  and  C_15
REMARK    6  A    between atoms: S_26  and  C_27
REMARK                            x       y       z     vdW  Elec       q    Type
REMARK                         _______ _______ _______ _____ _____    ______ ____
ROOT
ATOM      1  N   UNL     1      -1.201  -0.721   0.010  0.00  0.00    -0.292 N 
ATOM      2  C   UNL     1      -1.185  -2.106  -0.102  0.00  0.00    +0.187 A 
ATOM      3  N   UNL     1      -0.157  -2.931  -0.130  0.00  0.00    -0.125 NA
ATOM      4  N   UNL     1      -0.368  -4.285  -0.248  0.00  0.00    -0.133 NA
ATOM      5  C   UNL     1      -1.599  -4.752  -0.333  0.00  0.00    +0.160 A 
ATOM      6  S   UNL     1      -2.554  -3.245  -0.240  0.00  0.00    -0.024 S 
ATOM      7  H   UNL     1      -2.045  -0.251   0.102  0.00  0.00    +0.154 HD
ENDROOT
BRANCH   1  13
ATOM      8  C   UNL     1       1.121  -0.540  -0.633  0.00  0.00    +0.024 A 
ATOM      9  C   UNL     1       2.306   0.168  -0.651  0.00  0.00    +0.017 A 
ATOM     10  C   UNL     1       2.380   1.416  -0.046  0.00  0.00    +0.013 A 
ATOM     11  C   UNL     1       1.260   1.952   0.578  0.00  0.00    +0.017 A 
ATOM     12  C   UNL     1       0.075   1.245   0.597  0.00  0.00    +0.024 A 
ATOM     13  C   UNL     1       0.002  -0.003  -0.009  0.00  0.00    +0.033 A 
BRANCH  10  14
ATOM     14  S   UNL     1       3.893   2.319  -0.070  0.00  0.00    -0.056 S 
BRANCH  14  15
ATOM     15  C   UNL     1       3.505   3.849   0.824  0.00  0.00    +0.404 C 
ATOM     16  F   UNL     1       2.476   4.527   0.161  0.00  0.00    -0.197 F 
ATOM     17  F   UNL     1       3.096   3.539   2.125  0.00  0.00    -0.197 F 
ENDBRANCH  14  15
ENDBRANCH  10  14
ENDBRANCH   1  13
BRANCH   5  18
ATOM     18  S   UNL     1      -2.153  -6.418  -0.490  0.00  0.00    -0.089 S 
BRANCH  18  19
ATOM     19  C   UNL     1      -0.621  -7.389  -0.511  0.00  0.00    +0.150 C 
BRANCH  19  20
ATOM     20  C   UNL     1      -0.957  -8.853  -0.643  0.00  0.00    +0.121 A 
ATOM     21  N   UNL     1       0.064  -9.749  -0.671  0.00  0.00    -0.309 N 
ATOM     22  H   UNL     1       0.984  -9.447  -0.607  0.00  0.00    +0.170 HD
ATOM     23  C   UNL     1      -0.215 -11.070  -0.790  0.00  0.00    +0.266 A 
ATOM     24  O   UNL     1       0.678 -11.900  -0.818  0.00  0.00    -0.267 OA
ATOM     25  C   UNL     1      -1.554 -11.454  -0.878  0.00  0.00    +0.102 A 
ATOM     26  C   UNL     1      -2.591 -10.505  -0.846  0.00  0.00    +0.085 A 
ATOM     27  N   UNL     1      -2.203  -9.194  -0.719  0.00  0.00    -0.232 NA
ATOM     28  C   UNL     1      -3.888 -11.027  -0.944  0.00  0.00    +0.036 A 
ATOM     29  C   UNL     1      -4.078 -12.359  -1.059  0.00  0.00    +0.048 A 
ATOM     30  S   UNL     1      -2.411 -12.997  -1.039  0.00  0.00    -0.090 S 
ENDBRANCH  19  20
ENDBRANCH  18  19
ENDBRANCH   5  18
TORSDOF 6
