REMARK  Name = ZINC63827709
REMARK  8 active torsions:
REMARK  status: ('A' for Active; 'I' for Inactive)
REMARK    1  A    between atoms: C_1  and  N_2
REMARK    2  A    between atoms: C_3  and  C_5
REMARK    3  A    between atoms: C_16  and  C_18
REMARK    4  A    between atoms: C_18  and  C_19
REMARK    5  A    between atoms: C_19  and  C_20
REMARK    6  A    between atoms: C_28  and  C_30
REMARK    7  A    between atoms: C_33  and  O_36
REMARK    8  A    between atoms: O_36  and  C_37
REMARK                            x       y       z     vdW  Elec       q    Type
REMARK                         _______ _______ _______ _____ _____    ______ ____
ROOT
ATOM      1  C   UNL     1      -2.761  -7.060   0.098  0.00  0.00    +0.043 C 
ENDROOT
BRANCH   1   2
ATOM      2  C   UNL     1      -2.662  -8.562   0.038  0.00  0.00    -0.034 C 
ATOM      3  C   UNL     1      -1.764  -9.291  -0.664  0.00  0.00    -0.000 A 
ATOM      4  C   UNL     1      -0.655  -8.917  -1.549  0.00  0.00    +0.010 A 
ATOM      5  C   UNL     1       0.084  -9.893  -2.123  0.00  0.00    +0.001 A 
ATOM      6  C   UNL     1      -0.183 -11.251  -1.895  0.00  0.00    +0.002 A 
ATOM      7  C   UNL     1      -1.184 -11.672  -1.094  0.00  0.00    +0.026 A 
ATOM      8  C   UNL     1      -2.025 -10.731  -0.438  0.00  0.00    +0.043 A 
ATOM      9  N   UNL     1      -3.044 -10.886   0.372  0.00  0.00    -0.374 N 
ATOM     10  C   UNL     1      -3.542  -9.561   0.757  0.00  0.00    +0.137 C 
ATOM     11  H   UNL     1      -3.406 -11.735   0.670  0.00  0.00    +0.161 HD
BRANCH  10  12
ATOM     12  C   UNL     1      -4.975  -9.400   0.319  0.00  0.00    -0.021 A 
ATOM     13  C   UNL     1      -5.399  -9.957  -0.873  0.00  0.00    +0.009 A 
ATOM     14  C   UNL     1      -6.712  -9.810  -1.277  0.00  0.00    +0.046 A 
ATOM     15  C   UNL     1      -7.605  -9.104  -0.485  0.00  0.00    +0.120 A 
ATOM     16  C   UNL     1      -7.177  -8.547   0.711  0.00  0.00    +0.046 A 
ATOM     17  C   UNL     1      -5.865  -8.700   1.113  0.00  0.00    +0.009 A 
BRANCH  15  18
ATOM     18  O   UNL     1      -8.897  -8.958  -0.881  0.00  0.00    -0.495 OA
ATOM     19  C   UNL     1      -9.761  -8.219  -0.015  0.00  0.00    +0.277 C 
ENDBRANCH  15  18
ENDBRANCH  10  12
ENDBRANCH   1   2
BRANCH   1  20
ATOM     20  C   UNL     1      -1.597  -6.441  -0.678  0.00  0.00    +0.101 C 
BRANCH  20  31
ATOM     21  C   UNL     1       0.384  -3.962  -3.331  0.00  0.00    +0.276 C 
ATOM     22  C   UNL     1       0.303  -4.776  -2.031  0.00  0.00    +0.168 C 
ATOM     23  N   UNL     1      -0.749  -4.175  -1.194  0.00  0.00    -0.264 N 
ATOM     24  C   UNL     1      -0.809  -2.772  -1.128  0.00  0.00    +0.078 A 
ATOM     25  C   UNL     1      -1.575  -2.155  -0.153  0.00  0.00    +0.027 A 
ATOM     26  C   UNL     1      -1.634  -0.774  -0.094  0.00  0.00    +0.002 A 
ATOM     27  C   UNL     1      -0.929  -0.012  -1.008  0.00  0.00    +0.004 A 
ATOM     28  C   UNL     1      -0.163  -0.623  -1.982  0.00  0.00    +0.047 A 
ATOM     29  C   UNL     1      -0.097  -2.007  -2.047  0.00  0.00    +0.143 A 
ATOM     30  O   UNL     1       0.664  -2.598  -3.006  0.00  0.00    -0.476 OA
ATOM     31  C   UNL     1      -1.624  -4.943  -0.515  0.00  0.00    +0.220 C 
ATOM     32  O   UNL     1      -2.433  -4.428   0.228  0.00  0.00    -0.275 OA
BRANCH  21  35
ATOM     33  C   UNL     1       2.453  -6.287  -5.559  0.00  0.00    +0.128 C 
ATOM     34  N   UNL     1       1.384  -5.754  -4.712  0.00  0.00    -0.315 N 
ATOM     35  C   UNL     1       1.484  -4.510  -4.203  0.00  0.00    +0.255 C 
ATOM     36  O   UNL     1       2.459  -3.832  -4.446  0.00  0.00    -0.272 OA
ATOM     37  H   UNL     1       0.604  -6.297  -4.517  0.00  0.00    +0.148 HD
ENDBRANCH  21  35
ENDBRANCH  20  31
ENDBRANCH   1  20
TORSDOF 6
