REMARK  Name = ZINC00730115
REMARK  10 active torsions:
REMARK  status: ('A' for Active; 'I' for Inactive)
REMARK    1  A    between atoms: C_1  and  C_2
REMARK    2  A    between atoms: C_5  and  C_8
REMARK    3  A    between atoms: C_8  and  N_9
REMARK    4  A    between atoms: C_17  and  S_18
REMARK    5  A    between atoms: S_18  and  C_19
REMARK    6  A    between atoms: C_19  and  C_20
REMARK    7  A    between atoms: N_22  and  N_23
REMARK    8  A    between atoms: C_24  and  C_25
REMARK    9  A    between atoms: C_28  and  O_32
REMARK   10  A    between atoms: C_30  and  O_31
REMARK                            x       y       z     vdW  Elec       q    Type
REMARK                         _______ _______ _______ _____ _____    ______ ____
ROOT
ATOM      1  S   UNL     1      -3.554   7.970   0.062  0.00  0.00    -0.078 S 
ENDROOT
BRANCH   1  10
ATOM      2  N   UNL     1      -5.569   9.887   0.088  0.00  0.00    -0.314 N 
ATOM      3  C   UNL     1      -6.954   9.937   0.089  0.00  0.00    +0.070 A 
ATOM      4  C   UNL     1      -7.879  10.970   0.098  0.00  0.00    +0.028 A 
ATOM      5  C   UNL     1      -9.229  10.683   0.103  0.00  0.00    +0.002 A 
ATOM      6  C   UNL     1      -9.667   9.367   0.099  0.00  0.00    +0.002 A 
ATOM      7  C   UNL     1      -8.763   8.329   0.089  0.00  0.00    +0.030 A 
ATOM      8  C   UNL     1      -7.393   8.602   0.084  0.00  0.00    +0.090 A 
ATOM      9  N   UNL     1      -6.284   7.817   0.075  0.00  0.00    -0.222 NA
ATOM     10  C   UNL     1      -5.211   8.569   0.073  0.00  0.00    +0.171 A 
BRANCH   2  11
ATOM     11  C   UNL     1      -4.659  11.035   0.097  0.00  0.00    +0.159 C 
BRANCH  11  16
ATOM     12  C   UNL     1      -3.478  12.601  -5.339  0.00  0.00    +0.044 C 
ATOM     13  C   UNL     1      -3.786  12.193  -3.921  0.00  0.00    -0.050 A 
ATOM     14  C   UNL     1      -4.865  12.749  -3.261  0.00  0.00    +0.004 A 
ATOM     15  C   UNL     1      -5.148  12.375  -1.960  0.00  0.00    +0.005 A 
ATOM     16  C   UNL     1      -4.351  11.443  -1.321  0.00  0.00    -0.028 A 
ATOM     17  C   UNL     1      -3.269  10.891  -1.980  0.00  0.00    +0.005 A 
ATOM     18  C   UNL     1      -2.989  11.263  -3.281  0.00  0.00    +0.004 A 
ENDBRANCH  11  16
ENDBRANCH   2  11
ENDBRANCH   1  10
BRANCH   1  19
ATOM     19  C   UNL     1      -3.865   6.187   0.054  0.00  0.00    +0.174 C 
BRANCH  19  20
ATOM     20  C   UNL     1      -2.552   5.448   0.044  0.00  0.00    +0.242 C 
ATOM     21  O   UNL     1      -1.508   6.066   0.042  0.00  0.00    -0.273 OA
ATOM     22  N   UNL     1      -2.537   4.100   0.036  0.00  0.00    -0.206 N 
ATOM     23  H   UNL     1      -3.371   3.606   0.038  0.00  0.00    +0.177 HD
BRANCH  22  24
ATOM     24  N   UNL     1      -1.315   3.413   0.027  0.00  0.00    -0.188 NA
ATOM     25  C   UNL     1      -1.301   2.115   0.020  0.00  0.00    +0.142 C 
BRANCH  25  26
ATOM     26  C   UNL     1      -0.017   1.393   0.010  0.00  0.00    +0.036 A 
ATOM     27  C   UNL     1       0.002  -0.004   0.002  0.00  0.00    +0.016 A 
ATOM     28  C   UNL     1       1.205  -0.675  -0.013  0.00  0.00    +0.046 A 
ATOM     29  C   UNL     1       2.401   0.032  -0.021  0.00  0.00    +0.120 A 
ATOM     30  C   UNL     1       2.393   1.419  -0.014  0.00  0.00    +0.091 A 
ATOM     31  C   UNL     1       1.191   2.105   0.002  0.00  0.00    +0.129 A 
BRANCH  31  32
ATOM     32  O   UNL     1       1.182   3.463   0.009  0.00  0.00    -0.506 OA
ATOM     33  H   UNL     1       1.187   3.852   0.894  0.00  0.00    +0.292 HD
ENDBRANCH  31  32
BRANCH  29  34
ATOM     34  O   UNL     1       3.583  -0.637  -0.037  0.00  0.00    -0.507 OA
ATOM     35  H   UNL     1       3.916  -0.826  -0.925  0.00  0.00    +0.292 HD
ENDBRANCH  29  34
ENDBRANCH  25  26
ENDBRANCH  22  24
ENDBRANCH  19  20
ENDBRANCH   1  19
TORSDOF 9
