REMARK  Name = ZINC36032737
REMARK  12 active torsions:
REMARK  status: ('A' for Active; 'I' for Inactive)
REMARK    1  A    between atoms: C_1  and  C_2
REMARK    2  A    between atoms: C_2  and  C_4
REMARK    3  A    between atoms: C_2  and  N_10
REMARK    4  A    between atoms: C_13  and  C_33
REMARK    5  A    between atoms: N_19  and  C_22
REMARK    6  A    between atoms: C_22  and  N_24
REMARK    7  A    between atoms: N_24  and  C_25
REMARK    8  A    between atoms: C_28  and  O_31
REMARK    9  A    between atoms: O_31  and  C_32
REMARK   10  A    between atoms: C_33  and  C_34
REMARK   11  A    between atoms: C_34  and  C_35
REMARK   12  A    between atoms: C_34  and  C_36
REMARK                            x       y       z     vdW  Elec       q    Type
REMARK                         _______ _______ _______ _____ _____    ______ ____
ROOT
ATOM      1  N   UNL     1      -0.134   1.279  -0.086  0.00  0.00    -0.307 N 
ATOM      2  C   UNL     1      -0.650   1.747   1.070  0.00  0.00    +0.201 C 
ATOM      3  O   UNL     1      -0.777   1.114   2.097  0.00  0.00    -0.277 OA
ATOM      4  C   UNL     1      -1.043   3.195   0.869  0.00  0.00    +0.019 C 
ATOM      5  N   UNL     1      -1.083   3.375  -0.602  0.00  0.00    +0.401 N 
ATOM      6  C   UNL     1      -0.137   2.346  -1.090  0.00  0.00    +0.007 C 
ATOM      7  C   UNL     1      -0.615   1.805  -2.436  0.00  0.00    +0.025 C 
ATOM      8  C   UNL     1       0.346   0.711  -2.914  0.00  0.00    +0.107 C 
ATOM      9  N   UNL     1       1.712   1.253  -2.922  0.00  0.00    -0.312 N 
ATOM     10  C   UNL     1       2.237   1.864  -1.693  0.00  0.00    +0.107 C 
ATOM     11  C   UNL     1       1.261   2.948  -1.226  0.00  0.00    +0.025 C 
ATOM     12  H   UNL     1      -2.012   3.207  -0.957  0.00  0.00    -0.082 HD
ATOM     13  H   UNL     1      -0.764   4.298  -0.857  0.00  0.00    -0.082 HD
ENDROOT
BRANCH   1  15
ATOM     14  C   UNL     1      -0.821  -1.012  -0.593  0.00  0.00    +0.033 C 
ATOM     15  C   UNL     1       0.359  -0.083  -0.301  0.00  0.00    +0.101 C 
BRANCH  15  16
ATOM     16  C   UNL     1       1.079  -0.559   0.934  0.00  0.00    -0.027 A 
ATOM     17  C   UNL     1       2.461  -0.574   0.966  0.00  0.00    +0.005 A 
ATOM     18  C   UNL     1       3.121  -1.010   2.100  0.00  0.00    +0.000 A 
ATOM     19  C   UNL     1       2.400  -1.430   3.201  0.00  0.00    +0.000 A 
ATOM     20  C   UNL     1       1.018  -1.414   3.170  0.00  0.00    +0.000 A 
ATOM     21  C   UNL     1       0.357  -0.974   2.038  0.00  0.00    +0.005 A 
ENDBRANCH  15  16
ENDBRANCH   1  15
BRANCH   9  22
ATOM     22  C   UNL     1       2.469   1.190  -4.035  0.00  0.00    +0.137 C 
ATOM     23  S   UNL     1       1.797   0.597  -5.494  0.00  0.00    -0.018 S 
BRANCH  22  24
ATOM     24  N   UNL     1       3.754   1.594  -4.000  0.00  0.00    -0.297 N 
ATOM     25  H   UNL     1       4.015   2.419  -4.438  0.00  0.00    +0.154 HD
BRANCH  24  26
ATOM     26  C   UNL     1       4.713   0.823  -3.331  0.00  0.00    +0.033 A 
ATOM     27  C   UNL     1       4.367  -0.418  -2.812  0.00  0.00    +0.027 A 
ATOM     28  C   UNL     1       5.313  -1.178  -2.154  0.00  0.00    +0.047 A 
ATOM     29  C   UNL     1       6.608  -0.702  -2.009  0.00  0.00    +0.120 A 
ATOM     30  C   UNL     1       6.954   0.538  -2.526  0.00  0.00    +0.047 A 
ATOM     31  C   UNL     1       6.011   1.296  -3.191  0.00  0.00    +0.027 A 
BRANCH  29  32
ATOM     32  O   UNL     1       7.539  -1.451  -1.359  0.00  0.00    -0.495 OA
ATOM     33  C   UNL     1       8.852  -0.899  -1.247  0.00  0.00    +0.277 C 
ENDBRANCH  29  32
ENDBRANCH  24  26
ENDBRANCH  22  24
ENDBRANCH   9  22
BRANCH   4  34
ATOM     34  C   UNL     1      -2.421   3.462   1.478  0.00  0.00    -0.004 C 
BRANCH  34  35
ATOM     35  C   UNL     1      -2.759   4.948   1.342  0.00  0.00    -0.018 C 
ATOM     36  C   UNL     1      -4.185   5.194   1.838  0.00  0.00    +0.007 C 
ATOM     37  C   UNL     1      -1.779   5.773   2.179  0.00  0.00    +0.007 C 
ENDBRANCH  34  35
ENDBRANCH   4  34
TORSDOF 8
