REMARK  Name = ZINC13051250
REMARK  13 active torsions:
REMARK  status: ('A' for Active; 'I' for Inactive)
REMARK    1  A    between atoms: C_1  and  C_2
REMARK    2  A    between atoms: C_2  and  C_3
REMARK    3  A    between atoms: C_3  and  C_5
REMARK    4  A    between atoms: C_3  and  C_6
REMARK    5  A    between atoms: C_9  and  N_12
REMARK    6  A    between atoms: C_13  and  C_15
REMARK    7  A    between atoms: C_15  and  S_16
REMARK    8  A    between atoms: S_16  and  C_17
REMARK    9  A    between atoms: C_21  and  C_33
REMARK   10  A    between atoms: N_27  and  C_28
REMARK   11  A    between atoms: C_28  and  C_29
REMARK   12  A    between atoms: C_29  and  C_31
REMARK   13  A    between atoms: C_29  and  O_32
REMARK                            x       y       z     vdW  Elec       q    Type
REMARK                         _______ _______ _______ _____ _____    ______ ____
ROOT
ATOM      1  C   UNL     1       0.970   1.853   3.009  0.00  0.00    +0.173 A 
ATOM      2  N   UNL     1       1.640   1.486   4.074  0.00  0.00    -0.223 NA
ATOM      3  C   UNL     1       1.380   0.319   4.708  0.00  0.00    +0.080 A 
ATOM      4  C   UNL     1       2.096  -0.070   5.843  0.00  0.00    +0.043 A 
ATOM      5  C   UNL     1       1.794  -1.278   6.461  0.00  0.00    +0.065 A 
ATOM      6  C   UNL     1       0.780  -2.101   5.953  0.00  0.00    +0.016 A 
ATOM      7  C   UNL     1       0.075  -1.732   4.844  0.00  0.00    +0.016 A 
ATOM      8  C   UNL     1       0.361  -0.524   4.208  0.00  0.00    +0.065 A 
ATOM      9  C   UNL     1      -0.379  -0.085   3.015  0.00  0.00    +0.262 A 
ATOM     10  O   UNL     1      -1.270  -0.763   2.540  0.00  0.00    -0.267 OA
ATOM     11  N   UNL     1      -0.029   1.100   2.462  0.00  0.00    -0.285 N 
ENDROOT
BRANCH   5  12
ATOM     12  C   UNL     1       2.547  -1.696   7.663  0.00  0.00    +0.387 C 
ATOM     13  O   UNL     1       3.426  -0.985   8.107  0.00  0.00    -0.241 OA
ATOM     14  O   UNL     1       2.258  -2.865   8.266  0.00  0.00    -0.241 OA
ENDBRANCH   5  12
BRANCH   1  15
ATOM     15  S   UNL     1       1.376   3.390   2.249  0.00  0.00    -0.078 S 
BRANCH  15  16
ATOM     16  C   UNL     1       2.708   3.939   3.344  0.00  0.00    +0.173 C 
BRANCH  16  18
ATOM     17  N   UNL     1       4.228   5.882   3.541  0.00  0.00    -0.285 N 
ATOM     18  C   UNL     1       3.226   5.274   2.874  0.00  0.00    +0.227 C 
ATOM     19  O   UNL     1       2.742   5.802   1.895  0.00  0.00    -0.275 OA
ATOM     20  H   UNL     1       4.569   5.493   4.362  0.00  0.00    +0.155 HD
BRANCH  17  24
ATOM     21  C   UNL     1       5.854   9.428   2.080  0.00  0.00    -0.044 A 
ATOM     22  C   UNL     1       4.503   9.174   1.926  0.00  0.00    +0.006 A 
ATOM     23  C   UNL     1       3.961   7.999   2.410  0.00  0.00    +0.023 A 
ATOM     24  C   UNL     1       4.774   7.073   3.051  0.00  0.00    +0.033 A 
ATOM     25  C   UNL     1       6.128   7.334   3.209  0.00  0.00    +0.023 A 
ATOM     26  C   UNL     1       6.666   8.508   2.718  0.00  0.00    +0.006 A 
BRANCH  21  27
ATOM     27  C   UNL     1       6.442  10.711   1.552  0.00  0.00    +0.016 C 
ATOM     28  C   UNL     1       7.062  11.501   2.706  0.00  0.00    +0.012 C 
BRANCH  27  30
ATOM     29  C   UNL     1       8.031  11.688  -0.110  0.00  0.00    +0.004 C 
ATOM     30  C   UNL     1       7.521  10.389   0.517  0.00  0.00    +0.004 C 
ENDBRANCH  27  30
ENDBRANCH  21  27
ENDBRANCH  17  24
ENDBRANCH  16  18
ENDBRANCH  15  16
ENDBRANCH   1  15
BRANCH  11  31
ATOM     31  C   UNL     1      -0.731   1.580   1.269  0.00  0.00    +0.158 C 
BRANCH  31  32
ATOM     32  C   UNL     1      -0.011   1.078   0.016  0.00  0.00    +0.131 C 
ATOM     33  C   UNL     1      -0.744   1.580  -1.229  0.00  0.00    +0.039 C 
BRANCH  32  34
ATOM     34  O   UNL     1       1.331   1.569   0.009  0.00  0.00    -0.390 OA
ATOM     35  H   UNL     1       1.848   1.289  -0.759  0.00  0.00    +0.210 HD
ENDBRANCH  32  34
ENDBRANCH  31  32
ENDBRANCH  11  31
TORSDOF 10
