REMARK  Name = ZINC01582847
REMARK  3 active torsions:
REMARK  status: ('A' for Active; 'I' for Inactive)
REMARK    1  A    between atoms: C_3  and  S_8
REMARK    2  A    between atoms: C_6  and  N_7
REMARK    3  A    between atoms: S_8  and  N_11
REMARK                            x       y       z     vdW  Elec       q    Type
REMARK                         _______ _______ _______ _____ _____    ______ ____
ROOT
ATOM      1  S   UNL     1       1.779  -2.014  -0.026  0.00  0.00    +0.089 S 
ATOM      2  O   UNL     1       3.094  -2.028   0.512  0.00  0.00    -0.147 OA
ATOM      3  O   UNL     1       0.720  -2.781   0.531  0.00  0.00    -0.147 OA
ENDROOT
BRANCH   1   4
ATOM      4  N   UNL     1       1.279  -0.436  -0.013  0.00  0.00    -0.141 N 
ATOM      5  C   UNL     1       2.102   0.691  -0.014  0.00  0.00    +0.114 A 
ATOM      6  C   UNL     1       3.477   0.864  -0.026  0.00  0.00    +0.032 A 
ATOM      7  C   UNL     1       4.009   2.139  -0.025  0.00  0.00    +0.017 A 
ATOM      8  C   UNL     1       3.172   3.242  -0.010  0.00  0.00    +0.021 A 
ATOM      9  C   UNL     1       1.800   3.077   0.001  0.00  0.00    +0.064 A 
ATOM     10  C   UNL     1       1.258   1.801  -0.000  0.00  0.00    +0.160 A 
ATOM     11  O   UNL     1      -0.016   1.338   0.009  0.00  0.00    -0.406 OA
ATOM     12  C   UNL     1       0.002  -0.004   0.002  0.00  0.00    +0.442 A 
ATOM     13  O   UNL     1      -0.981  -0.720   0.007  0.00  0.00    -0.221 OA
ATOM     14 BR   UNL     1       3.910   4.984  -0.007  0.00  0.00    -0.050 Br
ENDBRANCH   1   4
BRANCH   1  17
ATOM     15  C   UNL     1       3.231  -2.711  -3.706  0.00  0.00    +0.024 A 
ATOM     16  C   UNL     1       3.117  -2.330  -2.384  0.00  0.00    +0.031 A 
ATOM     17  C   UNL     1       1.920  -2.501  -1.714  0.00  0.00    +0.111 A 
ATOM     18  C   UNL     1       0.834  -3.059  -2.364  0.00  0.00    +0.031 A 
ATOM     19  C   UNL     1       0.939  -3.437  -3.688  0.00  0.00    +0.024 A 
ATOM     20  C   UNL     1       2.141  -3.267  -4.364  0.00  0.00    +0.025 A 
BRANCH  20  21
ATOM     21  N   UNL     1       2.253  -3.653  -5.701  0.00  0.00    -0.358 N 
ATOM     22  H   UNL     1       3.092  -3.534  -6.172  0.00  0.00    +0.142 HD
ATOM     23  H   UNL     1       1.491  -4.041  -6.159  0.00  0.00    +0.142 HD
ENDBRANCH  20  21
ENDBRANCH   1  17
TORSDOF 3
