REMARK  Name = ZINC64887861
REMARK  7 active torsions:
REMARK  status: ('A' for Active; 'I' for Inactive)
REMARK    1  A    between atoms: C_1  and  O_2
REMARK    2  A    between atoms: O_2  and  C_3
REMARK    3  A    between atoms: C_3  and  C_5
REMARK    4  A    between atoms: C_7  and  N_18
REMARK    5  A    between atoms: N_18  and  C_19
REMARK    6  A    between atoms: C_19  and  C_20
REMARK    7  A    between atoms: C_20  and  C_21
REMARK                            x       y       z     vdW  Elec       q    Type
REMARK                         _______ _______ _______ _____ _____    ______ ____
ROOT
ATOM      1  C   UNL     1       2.830  -2.829   2.292  0.00  0.00    +0.228 C 
ATOM      2  C   UNL     1       1.388  -2.359   2.287  0.00  0.00    +0.036 C 
ATOM      3  C   UNL     1       0.801  -2.122   1.035  0.00  0.00    +0.017 A 
ATOM      4  C   UNL     1      -0.533  -1.683   0.939  0.00  0.00    +0.049 A 
ATOM      5  C   UNL     1      -1.081  -1.459  -0.290  0.00  0.00    +0.124 A 
ATOM      6  C   UNL     1      -0.344  -1.657  -1.455  0.00  0.00    +0.040 A 
ATOM      7  C   UNL     1       0.951  -2.080  -1.421  0.00  0.00    +0.027 A 
ATOM      8  C   UNL     1       1.577  -2.329  -0.188  0.00  0.00    +0.042 A 
ATOM      9  N   UNL     1       2.851  -2.746  -0.159  0.00  0.00    -0.284 N 
ATOM     10  C   UNL     1       3.508  -3.001   0.952  0.00  0.00    +0.237 C 
ATOM     11  O   UNL     1       4.665  -3.376   0.900  0.00  0.00    -0.274 OA
ATOM     12  F   UNL     1      -2.361  -1.039  -0.379  0.00  0.00    -0.205 F 
ATOM     13  H   UNL     1       3.314  -2.865  -1.003  0.00  0.00    +0.155 HD
ENDROOT
BRANCH   1  14
ATOM     14  C   UNL     1       2.882  -4.153   3.010  0.00  0.00    +0.325 C 
ATOM     15  O   UNL     1       1.994  -4.958   2.860  0.00  0.00    -0.250 OA
BRANCH  14  17
ATOM     16  C   UNL     1       3.901  -5.712   4.466  0.00  0.00    +0.280 C 
ATOM     17  O   UNL     1       3.916  -4.438   3.817  0.00  0.00    -0.467 OA
ENDBRANCH  14  17
ENDBRANCH   1  14
BRANCH   2  18
ATOM     18  N   UNL     1       0.705  -2.180   3.426  0.00  0.00    -0.345 N 
ATOM     19  H   UNL     1      -0.218  -1.883   3.397  0.00  0.00    +0.146 HD
BRANCH  18  20
ATOM     20  C   UNL     1       1.353  -2.431   4.716  0.00  0.00    +0.105 C 
BRANCH  20  21
ATOM     21  C   UNL     1       0.412  -2.017   5.848  0.00  0.00    +0.052 C 
BRANCH  21  22
ATOM     22  C   UNL     1       1.079  -2.275   7.175  0.00  0.00    -0.040 C 
ATOM     23  C   UNL     1       1.775  -1.388   7.922  0.00  0.00    -0.001 A 
ATOM     24  C   UNL     1       2.107   0.029   7.729  0.00  0.00    +0.010 A 
ATOM     25  C   UNL     1       2.837   0.665   8.674  0.00  0.00    +0.001 A 
ATOM     26  C   UNL     1       3.283   0.008   9.828  0.00  0.00    +0.002 A 
ATOM     27  C   UNL     1       3.017  -1.292  10.075  0.00  0.00    +0.026 A 
ATOM     28  C   UNL     1       2.257  -2.059   9.150  0.00  0.00    +0.043 A 
ATOM     29  N   UNL     1       1.874  -3.313   9.162  0.00  0.00    -0.380 N 
ATOM     30  C   UNL     1       1.100  -3.577   7.944  0.00  0.00    +0.144 C 
ATOM     31  H   UNL     1       2.067  -3.957   9.861  0.00  0.00    +0.160 HD
ENDBRANCH  21  22
ENDBRANCH  20  21
ENDBRANCH  18  20
ENDBRANCH   2  18
TORSDOF 6
