REMARK  Name = ZINC08964030
REMARK  7 active torsions:
REMARK  status: ('A' for Active; 'I' for Inactive)
REMARK    1  A    between atoms: C_1  and  N_2
REMARK    2  A    between atoms: C_9  and  C_11
REMARK    3  A    between atoms: C_11  and  C_13
REMARK    4  A    between atoms: C_11  and  N_60
REMARK    5  A    between atoms: C_13  and  N_14
REMARK    6  A    between atoms: C_15  and  C_17
REMARK    7  A    between atoms: N_19  and  C_20
REMARK                            x       y       z     vdW  Elec       q    Type
REMARK                         _______ _______ _______ _____ _____    ______ ____
ROOT
ATOM      1  C   UNL     1       0.612   2.712   8.367  0.00  0.00    -0.020 C 
ENDROOT
BRANCH   1  10
ATOM      2  C   UNL     1       3.845   7.159  11.765  0.00  0.00    +0.129 C 
ATOM      3  N   UNL     1       4.342   5.889  11.220  0.00  0.00    -0.332 N 
ATOM      4  C   UNL     1       4.734   4.963  12.306  0.00  0.00    +0.109 C 
ATOM      5  C   UNL     1       4.441   3.576  11.690  0.00  0.00    +0.056 C 
ATOM      6  C   UNL     1       3.366   3.882  10.666  0.00  0.00    -0.025 A 
ATOM      7  C   UNL     1       3.360   5.255  10.448  0.00  0.00    +0.033 A 
ATOM      8  C   UNL     1       2.444   5.794   9.548  0.00  0.00    +0.023 A 
ATOM      9  C   UNL     1       1.564   4.971   8.876  0.00  0.00    +0.004 A 
ATOM     10  C   UNL     1       1.577   3.607   9.101  0.00  0.00    -0.059 A 
ATOM     11  C   UNL     1       2.481   3.064   9.996  0.00  0.00    +0.007 A 
ENDBRANCH   1  10
BRANCH   1  16
ATOM     12  C   UNL     1      -1.752   2.355   7.906  0.00  0.00    -0.078 C 
ATOM     13  C   UNL     1      -3.072   2.935   8.471  0.00  0.00    -0.020 C 
ATOM     14  C   UNL     1      -2.648   3.473   9.857  0.00  0.00    -0.020 C 
ATOM     15  C   UNL     1      -1.126   3.686   9.757  0.00  0.00    -0.078 C 
ATOM     16  N   UNL     1      -0.752   3.320   8.390  0.00  0.00    +0.385 N 
ATOM     17  H   UNL     1      -0.759   4.155   7.793  0.00  0.00    -0.081 HD
ENDBRANCH   1  16
BRANCH   1  18
ATOM     18  C   UNL     1       1.077   2.538   6.920  0.00  0.00    +0.094 C 
BRANCH  18  19
ATOM     19  N   UNL     1       0.254   1.521   6.261  0.00  0.00    -0.309 N 
ATOM     20  C   UNL     1       0.382   1.304   4.937  0.00  0.00    +0.299 C 
ATOM     21  O   UNL     1       1.180   1.951   4.290  0.00  0.00    -0.265 OA
ATOM     22  H   UNL     1      -0.384   1.004   6.777  0.00  0.00    +0.149 HD
BRANCH  20  23
ATOM     23  C   UNL     1      -0.458   0.267   4.264  0.00  0.00    +0.299 C 
ATOM     24  O   UNL     1      -1.255  -0.380   4.911  0.00  0.00    -0.265 OA
ATOM     25  N   UNL     1      -0.330   0.050   2.940  0.00  0.00    -0.305 N 
ATOM     26  H   UNL     1       0.308   0.568   2.424  0.00  0.00    +0.149 HD
BRANCH  25  27
ATOM     27  C   UNL     1      -1.153  -0.967   2.281  0.00  0.00    +0.073 C 
ATOM     28  C   UNL     1      -0.458  -1.479   1.003  0.00  0.00    +0.022 C 
ATOM     29  C   UNL     1      -1.565  -1.701  -0.042  0.00  0.00    +0.002 C 
ATOM     30  C   UNL     1      -2.895  -1.316   0.637  0.00  0.00    +0.002 C 
ATOM     31  C   UNL     1      -2.477  -0.346   1.769  0.00  0.00    +0.022 C 
ENDBRANCH  25  27
ENDBRANCH  20  23
ENDBRANCH  18  19
ENDBRANCH   1  18
TORSDOF 6
