REMARK  Name = ZINC02678607
REMARK  9 active torsions:
REMARK  status: ('A' for Active; 'I' for Inactive)
REMARK    1  A    between atoms: C_1  and  C_2
REMARK    2  A    between atoms: C_9  and  N_30
REMARK    3  A    between atoms: C_10  and  C_13
REMARK    4  A    between atoms: N_17  and  C_21
REMARK    5  A    between atoms: C_21  and  C_23
REMARK    6  A    between atoms: C_21  and  C_24
REMARK    7  A    between atoms: N_30  and  C_31
REMARK    8  A    between atoms: C_31  and  C_32
REMARK    9  A    between atoms: C_32  and  O_33
REMARK                            x       y       z     vdW  Elec       q    Type
REMARK                         _______ _______ _______ _____ _____    ______ ____
ROOT
ATOM      1  C   UNL     1      -2.953  -2.627  -0.225  0.00  0.00    +0.047 C 
ATOM      2  C   UNL     1      -3.638  -2.186   1.043  0.00  0.00    -0.007 A 
ATOM      3  C   UNL     1      -4.651  -2.931   1.571  0.00  0.00    +0.008 A 
ATOM      4  C   UNL     1      -5.277  -2.508   2.751  0.00  0.00    +0.019 A 
ATOM      5  C   UNL     1      -4.878  -1.369   3.360  0.00  0.00    +0.096 A 
ATOM      6  N   UNL     1      -3.867  -0.617   2.840  0.00  0.00    -0.267 N 
ATOM      7  C   UNL     1      -3.237  -1.004   1.690  0.00  0.00    +0.145 A 
ATOM      8  N   UNL     1      -2.246  -0.282   1.166  0.00  0.00    -0.214 NA
ATOM      9  C   UNL     1      -1.827   0.840   1.734  0.00  0.00    +0.134 A 
ATOM     10  C   UNL     1      -2.439   1.287   2.929  0.00  0.00    +0.081 A 
ATOM     11  C   UNL     1      -3.493   0.515   3.474  0.00  0.00    +0.267 A 
ATOM     12  O   UNL     1      -4.051   0.865   4.500  0.00  0.00    -0.267 OA
ENDROOT
BRANCH  10  13
ATOM     13  C   UNL     1      -2.010   2.477   3.561  0.00  0.00    +0.037 C 
ATOM     14  C   UNL     1      -2.840   3.559   3.614  0.00  0.00    +0.077 C 
ATOM     15  C   UNL     1      -4.184   3.692   3.163  0.00  0.00    +0.259 C 
ATOM     16  O   UNL     1      -4.765   2.758   2.640  0.00  0.00    -0.269 OA
ATOM     17  N   UNL     1      -4.785   4.857   3.332  0.00  0.00    -0.248 N 
ATOM     18  C   UNL     1      -4.139   5.896   3.905  0.00  0.00    +0.121 C 
ATOM     19  S   UNL     1      -4.712   7.479   4.215  0.00  0.00    -0.027 S 
ATOM     20  S   UNL     1      -2.533   5.198   4.259  0.00  0.00    -0.061 S 
BRANCH  17  21
ATOM     21  C   UNL     1      -6.170   5.026   2.885  0.00  0.00    +0.110 C 
ATOM     22  C   UNL     1      -7.086   4.117   3.708  0.00  0.00    +0.033 C 
BRANCH  21  23
ATOM     23  C   UNL     1      -6.277   4.660   1.427  0.00  0.00    -0.027 A 
ATOM     24  C   UNL     1      -5.279   5.033   0.547  0.00  0.00    +0.005 A 
ATOM     25  C   UNL     1      -5.374   4.693  -0.790  0.00  0.00    +0.000 A 
ATOM     26  C   UNL     1      -6.471   3.988  -1.247  0.00  0.00    +0.000 A 
ATOM     27  C   UNL     1      -7.472   3.619  -0.367  0.00  0.00    +0.000 A 
ATOM     28  C   UNL     1      -7.375   3.955   0.970  0.00  0.00    +0.005 A 
ENDBRANCH  21  23
ENDBRANCH  17  21
ENDBRANCH  10  13
BRANCH   9  29
ATOM     29  N   UNL     1      -0.800   1.563   1.168  0.00  0.00    -0.326 N 
ATOM     30  H   UNL     1      -0.456   2.494   1.642  0.00  0.00    +0.148 HD
BRANCH  29  31
ATOM     31  C   UNL     1      -0.167   1.092  -0.067  0.00  0.00    +0.130 C 
BRANCH  31  32
ATOM     32  C   UNL     1      -0.976   1.576  -1.272  0.00  0.00    +0.174 C 
BRANCH  32  33
ATOM     33  O   UNL     1      -0.922   3.002  -1.340  0.00  0.00    -0.393 OA
ATOM     34  H   UNL     1      -1.449   3.534  -2.146  0.00  0.00    +0.209 HD
ENDBRANCH  32  33
ENDBRANCH  31  32
ENDBRANCH  29  31
ENDBRANCH   9  29
TORSDOF 7
