REMARK  Name = ZINC04071210
REMARK  5 active torsions:
REMARK  status: ('A' for Active; 'I' for Inactive)
REMARK    1  A    between atoms: C_4  and  C_7
REMARK    2  A    between atoms: C_10  and  C_12
REMARK    3  A    between atoms: C_12  and  C_23
REMARK    4  A    between atoms: C_13  and  C_14
REMARK    5  A    between atoms: C_18  and  N_20
REMARK                            x       y       z     vdW  Elec       q    Type
REMARK                         _______ _______ _______ _____ _____    ______ ____
ROOT
ATOM      1  C   UNL     1      -1.298   5.939  -0.061  0.00  0.00    +0.084 C 
ATOM      2  C   UNL     1      -0.069   5.248   0.030  0.00  0.00    +0.029 C 
ENDROOT
BRANCH   2   3
ATOM      3  C   UNL     1      -0.046   3.841  -0.020  0.00  0.00    -0.022 A 
ATOM      4  C   UNL     1      -1.015   3.140  -0.771  0.00  0.00    +0.008 A 
ATOM      5  C   UNL     1      -0.978   1.777  -0.817  0.00  0.00    +0.003 A 
ATOM      6  C   UNL     1      -0.001   1.079  -0.120  0.00  0.00    +0.033 A 
ATOM      7  C   UNL     1       0.957   1.756   0.621  0.00  0.00    +0.127 A 
ATOM      8  C   UNL     1       0.945   3.120   0.679  0.00  0.00    +0.040 A 
BRANCH   7   9
ATOM      9  N   UNL     1       1.996   0.997   1.353  0.00  0.00    +0.056 N 
ATOM     10  O   UNL     1       2.010  -0.319   1.299  0.00  0.00    -0.126 OA
ATOM     11  O   UNL     1       2.906   1.637   2.057  0.00  0.00    -0.126 OA
ENDBRANCH   7   9
ENDBRANCH   2   3
BRANCH   1  15
ATOM     12  C   UNL     1      -2.212   9.441  -0.338  0.00  0.00    +0.079 A 
ATOM     13  C   UNL     1      -0.817   9.945  -0.324  0.00  0.00    +0.075 A 
ATOM     14  S   UNL     1       0.075   8.461  -0.182  0.00  0.00    -0.074 S 
ATOM     15  C   UNL     1      -1.312   7.338  -0.159  0.00  0.00    +0.119 A 
ATOM     16  N   UNL     1      -2.369   8.156  -0.254  0.00  0.00    -0.238 NA
BRANCH  12  20
ATOM     17  C   UNL     1      -5.526  12.074  -0.638  0.00  0.00    +0.000 A 
ATOM     18  C   UNL     1      -5.738  10.707  -0.550  0.00  0.00    +0.001 A 
ATOM     19  C   UNL     1      -4.668   9.846  -0.452  0.00  0.00    +0.010 A 
ATOM     20  C   UNL     1      -3.362  10.355  -0.442  0.00  0.00    +0.001 A 
ATOM     21  C   UNL     1      -3.157  11.739  -0.526  0.00  0.00    +0.010 A 
ATOM     22  C   UNL     1      -4.238  12.586  -0.629  0.00  0.00    +0.001 A 
ENDBRANCH  12  20
ENDBRANCH   1  15
BRANCH   1  23
ATOM     23  C   UNL     1      -2.531   5.210  -0.053  0.00  0.00    +0.102 C 
ATOM     24  N   UNL     1      -3.509   4.632  -0.046  0.00  0.00    -0.191 NA
ENDBRANCH   1  23
TORSDOF 5
