REMARK  Name = ZINC03633013
REMARK  12 active torsions:
REMARK  status: ('A' for Active; 'I' for Inactive)
REMARK    1  A    between atoms: C_1  and  C_2
REMARK    2  A    between atoms: C_2  and  C_3
REMARK    3  A    between atoms: C_3  and  N_4
REMARK    4  A    between atoms: N_4  and  C_5
REMARK    5  A    between atoms: N_4  and  C_8
REMARK    6  A    between atoms: C_5  and  C_6
REMARK    7  A    between atoms: C_6  and  C_7
REMARK    8  A    between atoms: C_8  and  C_9
REMARK    9  A    between atoms: C_10  and  C_20
REMARK   10  A    between atoms: N_22  and  N_23
REMARK   11  A    between atoms: C_24  and  C_25
REMARK   12  A    between atoms: C_29  and  O_31
REMARK                            x       y       z     vdW  Elec       q    Type
REMARK                         _______ _______ _______ _____ _____    ______ ____
ROOT
ATOM      1  C   UNL     1       8.334   3.543  -0.039  0.00  0.00    +0.063 A 
ATOM      2  C   UNL     1       7.047   4.002  -0.061  0.00  0.00    +0.170 A 
ATOM      3  N   UNL     1       7.074   5.346  -0.038  0.00  0.00    -0.124 NA
ATOM      4  N   UNL     1       8.295   5.753   0.006  0.00  0.00    -0.058 NA
ATOM      5  N   UNL     1       9.136   4.631   0.004  0.00  0.00    -0.194 N 
ATOM      6  C   UNL     1      10.534   4.636   0.038  0.00  0.00    +0.240 A 
ATOM      7  C   UNL     1      11.387   5.827   0.084  0.00  0.00    +0.206 A 
ATOM      8  N   UNL     1      12.633   5.439   0.107  0.00  0.00    -0.032 NA
ATOM      9  O   UNL     1      12.647   4.023   0.078  0.00  0.00    -0.239 OA
ATOM     10  N   UNL     1      11.301   3.582   0.042  0.00  0.00    -0.027 NA
ATOM     11  N   UNL     1      10.944   7.145   0.100  0.00  0.00    -0.337 N 
ATOM     12  H   UNL     1      11.672   7.969   0.136  0.00  0.00    +0.144 HD
ATOM     13  H   UNL     1       9.866   7.363   0.078  0.00  0.00    +0.144 HD
ENDROOT
BRANCH   2  14
ATOM     14  C   UNL     1       5.834   3.165  -0.108  0.00  0.00    +0.285 C 
ATOM     15  O   UNL     1       5.933   1.952  -0.131  0.00  0.00    -0.267 OA
ATOM     16  N   UNL     1       4.617   3.742  -0.126  0.00  0.00    -0.202 N 
ATOM     17  H   UNL     1       4.528   4.839  -0.106  0.00  0.00    +0.178 HD
BRANCH  16  18
ATOM     18  N   UNL     1       3.465   2.947  -0.171  0.00  0.00    -0.187 NA
ATOM     19  C   UNL     1       2.292   3.503  -0.189  0.00  0.00    +0.138 C 
BRANCH  19  20
ATOM     20  C   UNL     1       1.079   2.666  -0.236  0.00  0.00    -0.002 A 
ATOM     21  C   UNL     1       1.189   1.273  -0.263  0.00  0.00    +0.010 A 
ATOM     22  C   UNL     1       0.052   0.493  -0.306  0.00  0.00    +0.004 A 
ATOM     23  C   UNL     1      -1.198   1.085  -0.330  0.00  0.00    +0.045 A 
ATOM     24  C   UNL     1      -1.317   2.468  -0.298  0.00  0.00    +0.117 A 
ATOM     25  C   UNL     1      -0.183   3.261  -0.254  0.00  0.00    +0.054 A 
BRANCH  24  26
ATOM     26  O   UNL     1      -2.548   3.044  -0.317  0.00  0.00    -0.507 OA
ATOM     27  H   UNL     1      -2.643   4.140  -0.291  0.00  0.00    +0.292 HD
ENDBRANCH  24  26
ENDBRANCH  19  20
ENDBRANCH  16  18
ENDBRANCH   2  14
BRANCH   1  28
ATOM     28  C   UNL     1       8.775   2.102  -0.058  0.00  0.00    -0.020 C 
BRANCH  28  29
ATOM     29  N   UNL     1       9.044   1.654   1.315  0.00  0.00    +0.383 N 
ATOM     30  H   UNL     1       9.662   2.421   1.805  0.00  0.00    -0.081 HD
BRANCH  29  31
ATOM     31  C   UNL     1       7.797   1.522   2.080  0.00  0.00    -0.079 C 
BRANCH  31  33
ATOM     32  C   UNL     1       6.828   1.162   4.354  0.00  0.00    +0.002 C 
ATOM     33  C   UNL     1       8.127   1.300   3.557  0.00  0.00    -0.022 C 
ENDBRANCH  31  33
ENDBRANCH  29  31
BRANCH  29  34
ATOM     34  C   UNL     1       9.800   0.395   1.318  0.00  0.00    -0.079 C 
BRANCH  34  35
ATOM     35  C   UNL     1      11.264   0.677   0.977  0.00  0.00    -0.022 C 
ATOM     36  C   UNL     1      12.078  -0.612   1.110  0.00  0.00    +0.002 C 
ENDBRANCH  34  35
ENDBRANCH  29  34
ENDBRANCH  28  29
ENDBRANCH   1  28
TORSDOF 10
