REMARK  Name = ZINC33568673
REMARK  6 active torsions:
REMARK  status: ('A' for Active; 'I' for Inactive)
REMARK    1  A    between atoms: C_4  and  C_7
REMARK    2  A    between atoms: C_10  and  C_34
REMARK    3  A    between atoms: N_12  and  C_13
REMARK    4  A    between atoms: C_16  and  C_19
REMARK    5  A    between atoms: N_22  and  C_23
REMARK    6  A    between atoms: C_26  and  O_29
REMARK                            x       y       z     vdW  Elec       q    Type
REMARK                         _______ _______ _______ _____ _____    ______ ____
ROOT
ATOM      1  C   UNL     1       2.962  -2.793  -2.241  0.00  0.00    +0.052 A 
ATOM      2  C   UNL     1       3.348  -1.640  -2.919  0.00  0.00    +0.025 A 
ATOM      3  C   UNL     1       3.100  -1.516  -4.267  0.00  0.00    +0.010 A 
ATOM      4  C   UNL     1       2.460  -2.553  -4.957  0.00  0.00    -0.024 A 
ATOM      5  C   UNL     1       2.073  -3.712  -4.271  0.00  0.00    +0.010 A 
ATOM      6  C   UNL     1       2.330  -3.829  -2.924  0.00  0.00    +0.025 A 
ENDROOT
BRANCH   4   7
ATOM      7  C   UNL     1       2.193  -2.425  -6.395  0.00  0.00    +0.026 C 
ATOM      8  C   UNL     1       2.898  -1.536  -7.140  0.00  0.00    +0.058 C 
ATOM      9  C   UNL     1       2.713  -1.139  -8.549  0.00  0.00    +0.140 C 
ATOM     10  N   UNL     1       1.760  -1.652  -9.298  0.00  0.00    -0.231 NA
ATOM     11  N   UNL     1       3.584  -0.212  -9.028  0.00  0.00    -0.260 N 
ATOM     12  C   UNL     1       4.551   0.297  -8.240  0.00  0.00    +0.282 C 
ATOM     13  O   UNL     1       5.395   1.125  -8.524  0.00  0.00    -0.262 OA
ATOM     14  S   UNL     1       4.294  -0.523  -6.676  0.00  0.00    -0.028 S 
ATOM     15  H   UNL     1       3.510   0.086  -9.949  0.00  0.00    +0.157 HD
BRANCH  10  16
ATOM     16  C   UNL     1       0.787  -2.425  -8.731  0.00  0.00    +0.066 A 
ATOM     17  C   UNL     1      -0.177  -1.844  -7.902  0.00  0.00    +0.031 A 
ATOM     18  C   UNL     1      -1.156  -2.629  -7.333  0.00  0.00    +0.047 A 
ATOM     19  C   UNL     1      -1.186  -3.995  -7.581  0.00  0.00    +0.117 A 
ATOM     20  C   UNL     1      -0.230  -4.577  -8.403  0.00  0.00    +0.047 A 
ATOM     21  C   UNL     1       0.750  -3.800  -8.982  0.00  0.00    +0.031 A 
BRANCH  19  22
ATOM     22  O   UNL     1      -2.154  -4.765  -7.017  0.00  0.00    -0.507 OA
ATOM     23  H   UNL     1      -2.953  -4.849  -7.555  0.00  0.00    +0.292 HD
ENDBRANCH  19  22
ENDBRANCH  10  16
ENDBRANCH   4   7
BRANCH   1  28
ATOM     24  C   UNL     1       3.871  -1.902  -0.036  0.00  0.00    +0.134 C 
ATOM     25  C   UNL     1       3.891  -2.547   1.364  0.00  0.00    +0.087 C 
ATOM     26  C   UNL     1       3.224  -3.888   1.157  0.00  0.00    +0.069 C 
ATOM     27  N   UNL     1       2.885  -4.013  -0.081  0.00  0.00    -0.183 NA
ATOM     28  N   UNL     1       3.214  -2.914  -0.877  0.00  0.00    -0.216 N 
BRANCH  24  32
ATOM     29  C   UNL     1       1.602   1.718   0.009  0.00  0.00    +0.000 A 
ATOM     30  C   UNL     1       2.984   1.768   0.021  0.00  0.00    +0.000 A 
ATOM     31  C   UNL     1       3.718   0.596   0.007  0.00  0.00    +0.005 A 
ATOM     32  C   UNL     1       3.071  -0.625  -0.019  0.00  0.00    -0.025 A 
ATOM     33  C   UNL     1       1.689  -0.675  -0.031  0.00  0.00    +0.005 A 
ATOM     34  C   UNL     1       0.955   0.496  -0.019  0.00  0.00    +0.000 A 
ENDBRANCH  24  32
BRANCH  26  35
ATOM     35  C   UNL     1       2.997  -4.897   2.207  0.00  0.00    -0.002 A 
ATOM     36  C   UNL     1       3.405  -4.647   3.520  0.00  0.00    +0.010 A 
ATOM     37  C   UNL     1       3.189  -5.596   4.498  0.00  0.00    +0.001 A 
ATOM     38  C   UNL     1       2.570  -6.793   4.181  0.00  0.00    +0.000 A 
ATOM     39  C   UNL     1       2.164  -7.047   2.883  0.00  0.00    +0.001 A 
ATOM     40  C   UNL     1       2.368  -6.105   1.896  0.00  0.00    +0.010 A 
ENDBRANCH  26  35
ENDBRANCH   1  28
TORSDOF 6
