REMARK  Name = ZINC33809563
REMARK  5 active torsions:
REMARK  status: ('A' for Active; 'I' for Inactive)
REMARK    1  A    between atoms: C_1  and  C_2
REMARK    2  A    between atoms: C_2  and  C_4
REMARK    3  A    between atoms: C_2  and  N_9
REMARK    4  A    between atoms: C_10  and  C_12
REMARK    5  A    between atoms: C_15  and  C_17
REMARK                            x       y       z     vdW  Elec       q    Type
REMARK                         _______ _______ _______ _____ _____    ______ ____
ROOT
ATOM      1  C   UNL     1      -1.261   1.349   3.575  0.00  0.00    +0.190 A 
ATOM      2  C   UNL     1      -1.225   0.748   4.814  0.00  0.00    +0.055 A 
ATOM      3  C   UNL     1      -2.011   1.531   5.665  0.00  0.00    +0.051 A 
ATOM      4  C   UNL     1      -2.501   2.566   4.921  0.00  0.00    +0.137 A 
ATOM      5  O   UNL     1      -2.043   2.446   3.663  0.00  0.00    -0.450 OA
ENDROOT
BRANCH   4   6
ATOM      6  C   UNL     1      -3.387   3.639   5.415  0.00  0.00    +0.037 A 
ATOM      7  C   UNL     1      -3.077   4.977   5.164  0.00  0.00    +0.033 A 
ATOM      8  C   UNL     1      -3.910   5.974   5.629  0.00  0.00    +0.042 A 
ATOM      9  C   UNL     1      -5.051   5.651   6.344  0.00  0.00    +0.021 A 
ATOM     10  C   UNL     1      -5.365   4.328   6.597  0.00  0.00    +0.022 A 
ATOM     11  C   UNL     1      -4.543   3.319   6.132  0.00  0.00    +0.052 A 
ATOM     12 CL   UNL     1      -4.942   1.659   6.445  0.00  0.00    -0.083 Cl
ATOM     13 CL   UNL     1      -3.526   7.638   5.317  0.00  0.00    -0.084 Cl
ENDBRANCH   4   6
BRANCH   1  15
ATOM     14  N   UNL     1      -0.698   1.558   1.213  0.00  0.00    -0.302 N 
ATOM     15  C   UNL     1      -0.575   0.877   2.369  0.00  0.00    +0.280 C 
ATOM     16  O   UNL     1       0.105  -0.131   2.412  0.00  0.00    -0.267 OA
ATOM     17  H   UNL     1      -1.314   2.469   1.175  0.00  0.00    +0.150 HD
BRANCH  14  19
ATOM     18  C   UNL     1       1.423   1.615  -0.003  0.00  0.00    +0.033 C 
ATOM     19  C   UNL     1      -0.013   1.086   0.008  0.00  0.00    +0.107 C 
BRANCH  19  20
ATOM     20  C   UNL     1      -0.742   1.585  -1.213  0.00  0.00    +0.010 A 
ATOM     21  C   UNL     1      -0.995   0.941  -2.379  0.00  0.00    +0.013 A 
ATOM     22  C   UNL     1      -1.693   1.603  -3.372  0.00  0.00    +0.008 A 
ATOM     23  C   UNL     1      -2.095   2.879  -3.154  0.00  0.00    +0.045 A 
ATOM     24  S   UNL     1      -1.489   3.180  -1.502  0.00  0.00    -0.100 S 
ENDBRANCH  19  20
ENDBRANCH  14  19
ENDBRANCH   1  15
TORSDOF 4
