REMARK  Name = ZINC11735535
REMARK  9 active torsions:
REMARK  status: ('A' for Active; 'I' for Inactive)
REMARK    1  A    between atoms: C_1  and  C_2
REMARK    2  A    between atoms: C_2  and  C_4
REMARK    3  A    between atoms: C_2  and  O_22
REMARK    4  A    between atoms: C_4  and  N_5
REMARK    5  A    between atoms: C_9  and  C_10
REMARK    6  A    between atoms: C_10  and  C_12
REMARK    7  A    between atoms: C_10  and  N_38
REMARK    8  A    between atoms: C_17  and  O_18
REMARK    9  A    between atoms: O_18  and  C_19
REMARK                            x       y       z     vdW  Elec       q    Type
REMARK                         _______ _______ _______ _____ _____    ______ ____
ROOT
ATOM      1  C   UNL     1       1.398   4.292  -0.330  0.00  0.00    +0.028 C 
ENDROOT
BRANCH   1   2
ATOM      2  C   UNL     1       1.792   4.646  -1.740  0.00  0.00    +0.007 A 
ATOM      3  C   UNL     1       2.771   3.917  -2.390  0.00  0.00    +0.046 A 
ATOM      4  C   UNL     1       3.133   4.242  -3.685  0.00  0.00    +0.022 A 
ATOM      5  C   UNL     1       2.517   5.297  -4.333  0.00  0.00    +0.025 A 
ATOM      6  C   UNL     1       1.538   6.029  -3.688  0.00  0.00    +0.083 A 
ATOM      7  C   UNL     1       1.169   5.701  -2.390  0.00  0.00    +0.142 A 
ATOM      8 CL   UNL     1       0.765   7.353  -4.503  0.00  0.00    -0.080 Cl
ATOM      9 CL   UNL     1       3.546   2.591  -1.579  0.00  0.00    -0.083 Cl
BRANCH   7  10
ATOM     10  O   UNL     1       0.202   6.416  -1.756  0.00  0.00    -0.493 OA
ATOM     11  C   UNL     1       0.593   7.662  -1.175  0.00  0.00    +0.277 C 
ENDBRANCH   7  10
ENDBRANCH   1   2
BRANCH   1  16
ATOM     12  N   UNL     1      -0.221   2.349  -0.061  0.00  0.00    -0.333 N 
ATOM     13  C   UNL     1      -1.573   2.171  -0.176  0.00  0.00    +0.107 A 
ATOM     14  C   UNL     1      -2.095   3.364  -0.521  0.00  0.00    +0.130 A 
ATOM     15  N   UNL     1      -1.090   4.247  -0.606  0.00  0.00    -0.242 NA
ATOM     16  C   UNL     1       0.036   3.646  -0.335  0.00  0.00    +0.100 A 
BRANCH  12  17
ATOM     17  C   UNL     1       0.764   1.323   0.292  0.00  0.00    +0.154 C 
BRANCH  17  19
ATOM     18  C   UNL     1       1.906   0.168   2.191  0.00  0.00    +0.039 C 
ATOM     19  C   UNL     1       0.973   1.319   1.808  0.00  0.00    +0.131 C 
BRANCH  19  20
ATOM     20  O   UNL     1       1.557   2.559   2.212  0.00  0.00    -0.390 OA
ATOM     21  H   UNL     1       2.416   2.740   1.806  0.00  0.00    +0.210 HD
ENDBRANCH  19  20
ENDBRANCH  17  19
ENDBRANCH  12  17
ENDBRANCH   1  16
BRANCH   1  24
ATOM     22  H   UNL     1       2.185   6.071   0.345  0.00  0.00    -0.089 HD
ATOM     23  H   UNL     1       0.523   6.045   0.301  0.00  0.00    -0.089 HD
ATOM     24  N   UNL     1       1.357   5.501   0.512  0.00  0.00    +0.387 N 
ATOM     25  H   UNL     1       1.336   5.223   1.500  0.00  0.00    -0.089 HD
ENDBRANCH   1  24
TORSDOF 7
