REMARK  Name = ZINC36408652
REMARK  5 active torsions:
REMARK  status: ('A' for Active; 'I' for Inactive)
REMARK    1  A    between atoms: C_3  and  C_6
REMARK    2  A    between atoms: C_6  and  O_28
REMARK    3  A    between atoms: C_7  and  C_22
REMARK    4  A    between atoms: C_9  and  C_15
REMARK    5  A    between atoms: C_22  and  C_24
REMARK                            x       y       z     vdW  Elec       q    Type
REMARK                         _______ _______ _______ _____ _____    ______ ____
ROOT
ATOM      1  C   UNL     1       3.981   1.685  -0.137  0.00  0.00    +0.176 C 
ATOM      2  C   UNL     1       4.377   1.646   1.342  0.00  0.00    +0.144 C 
ATOM      3  C   UNL     1       5.677   2.437   1.520  0.00  0.00    +0.117 C 
ATOM      4  N   UNL     1       5.492   3.790   0.995  0.00  0.00    -0.319 N 
ATOM      5  C   UNL     1       4.632   4.039  -0.004  0.00  0.00    +0.133 C 
ATOM      6  S   UNL     1       4.480   5.645  -0.577  0.00  0.00    -0.019 S 
ATOM      7  N   UNL     1       3.888   3.079  -0.573  0.00  0.00    -0.294 N 
ATOM      8  H   UNL     1       6.001   4.522   1.377  0.00  0.00    +0.148 HD
ATOM      9  H   UNL     1       3.275   3.314  -1.287  0.00  0.00    +0.151 HD
ENDROOT
BRANCH   3  10
ATOM     10  C   UNL     1       6.028   2.507   2.984  0.00  0.00    -0.026 A 
ATOM     11  C   UNL     1       5.483   3.499   3.778  0.00  0.00    +0.006 A 
ATOM     12  C   UNL     1       5.804   3.563   5.121  0.00  0.00    +0.015 A 
ATOM     13  C   UNL     1       6.670   2.635   5.670  0.00  0.00    +0.018 A 
ATOM     14  C   UNL     1       7.215   1.643   4.876  0.00  0.00    +0.015 A 
ATOM     15  C   UNL     1       6.889   1.576   3.534  0.00  0.00    +0.006 A 
ATOM     16 BR   UNL     1       7.110   2.724   7.508  0.00  0.00    -0.050 Br
ENDBRANCH   3  10
BRANCH   1  19
ATOM     17  C   UNL     1       0.312   0.739  -0.533  0.00  0.00    +0.008 A 
ATOM     18  C   UNL     1       1.408   1.562  -0.353  0.00  0.00    +0.016 A 
ATOM     19  C   UNL     1       2.646   1.010  -0.319  0.00  0.00    +0.040 A 
ATOM     20  S   UNL     1       2.284  -0.723  -0.548  0.00  0.00    -0.097 S 
ATOM     21  C   UNL     1       0.507  -0.595  -0.672  0.00  0.00    +0.045 A 
ENDBRANCH   1  19
BRANCH   2  22
ATOM     22  C   UNL     1       3.285   2.266   2.175  0.00  0.00    +0.245 C 
ATOM     23  O   UNL     1       2.952   3.410   1.979  0.00  0.00    -0.287 OA
BRANCH  22  24
ATOM     24  C   UNL     1       2.609   1.459   3.253  0.00  0.00    +0.451 C 
ATOM     25  F   UNL     1       1.565   2.206   3.810  0.00  0.00    -0.163 F 
ATOM     26  F   UNL     1       2.096   0.281   2.701  0.00  0.00    -0.163 F 
ATOM     27  F   UNL     1       3.538   1.141   4.250  0.00  0.00    -0.163 F 
ENDBRANCH  22  24
ENDBRANCH   2  22
BRANCH   1  28
ATOM     28  O   UNL     1       4.969   1.006  -0.916  0.00  0.00    -0.366 OA
ATOM     29  H   UNL     1       4.782   0.995  -1.865  0.00  0.00    +0.212 HD
ENDBRANCH   1  28
TORSDOF 5
