REMARK  Name = ZINC08842990
REMARK  8 active torsions:
REMARK  status: ('A' for Active; 'I' for Inactive)
REMARK    1  A    between atoms: C_1  and  C_2
REMARK    2  A    between atoms: C_6  and  N_8
REMARK    3  A    between atoms: C_12  and  C_13
REMARK    4  A    between atoms: C_18  and  O_19
REMARK    5  A    between atoms: O_19  and  C_20
REMARK    6  A    between atoms: C_20  and  C_21
REMARK    7  A    between atoms: C_21  and  O_22
REMARK    8  A    between atoms: O_22  and  C_23
REMARK                            x       y       z     vdW  Elec       q    Type
REMARK                         _______ _______ _______ _____ _____    ______ ____
ROOT
ATOM      1  N   UNL     1      -1.611   4.590  -6.470  0.00  0.00    -0.190 N 
ATOM      2  C   UNL     1      -1.847   3.341  -6.018  0.00  0.00    +0.263 C 
ATOM      3  O   UNL     1      -1.338   2.376  -6.554  0.00  0.00    -0.269 OA
ATOM      4  C   UNL     1      -2.746   3.179  -4.858  0.00  0.00    +0.100 C 
ATOM      5  C   UNL     1      -3.040   1.931  -4.342  0.00  0.00    +0.029 C 
ATOM      6  C   UNL     1      -3.312   4.409  -4.271  0.00  0.00    +0.257 C 
ATOM      7  O   UNL     1      -4.057   4.358  -3.310  0.00  0.00    -0.270 OA
ATOM      8  N   UNL     1      -2.980   5.592  -4.828  0.00  0.00    -0.235 N 
ATOM      9  C   UNL     1      -2.161   5.663  -5.886  0.00  0.00    +0.320 C 
ATOM     10  O   UNL     1      -1.903   6.761  -6.340  0.00  0.00    -0.251 OA
ATOM     11  H   UNL     1      -3.343   6.410  -4.454  0.00  0.00    +0.159 HD
ENDROOT
BRANCH   1  17
ATOM     12  C   UNL     1       2.905   5.351  -8.263  0.00  0.00    +0.044 C 
ATOM     13  C   UNL     1       1.427   5.141  -8.470  0.00  0.00    -0.049 A 
ATOM     14  C   UNL     1       0.905   5.124  -9.750  0.00  0.00    +0.003 A 
ATOM     15  C   UNL     1      -0.450   4.931  -9.945  0.00  0.00    +0.002 A 
ATOM     16  C   UNL     1      -1.287   4.754  -8.859  0.00  0.00    +0.024 A 
ATOM     17  C   UNL     1      -0.765   4.770  -7.573  0.00  0.00    +0.046 A 
ATOM     18  C   UNL     1       0.596   4.969  -7.381  0.00  0.00    +0.027 A 
ENDBRANCH   1  17
BRANCH   5  19
ATOM     19  C   UNL     1      -2.631   0.727  -5.064  0.00  0.00    +0.018 A 
ATOM     20  C   UNL     1      -2.909   0.595  -6.433  0.00  0.00    +0.011 A 
ATOM     21  C   UNL     1      -2.521  -0.542  -7.104  0.00  0.00    +0.001 A 
ATOM     22  C   UNL     1      -1.857  -1.559  -6.434  0.00  0.00    +0.004 A 
ATOM     23  C   UNL     1      -1.571  -1.443  -5.088  0.00  0.00    +0.046 A 
ATOM     24  C   UNL     1      -1.957  -0.309  -4.390  0.00  0.00    +0.128 A 
BRANCH  24  25
ATOM     25  O   UNL     1      -1.682  -0.196  -3.067  0.00  0.00    -0.488 OA
BRANCH  25  26
ATOM     26  C   UNL     1      -0.996  -1.288  -2.452  0.00  0.00    +0.270 C 
BRANCH  26  27
ATOM     27  C   UNL     1      -0.775  -0.981  -0.969  0.00  0.00    +0.270 C 
BRANCH  27  28
ATOM     28  O   UNL     1      -2.038  -0.907  -0.305  0.00  0.00    -0.489 OA
BRANCH  28  29
ATOM     29  C   UNL     1      -2.020  -0.640   1.027  0.00  0.00    +0.121 A 
ATOM     30  C   UNL     1      -0.811  -0.459   1.683  0.00  0.00    +0.045 A 
ATOM     31  C   UNL     1      -0.796  -0.182   3.036  0.00  0.00    +0.004 A 
ATOM     32  C   UNL     1      -1.984  -0.096   3.739  0.00  0.00    +0.000 A 
ATOM     33  C   UNL     1      -3.189  -0.281   3.089  0.00  0.00    +0.004 A 
ATOM     34  C   UNL     1      -3.211  -0.553   1.734  0.00  0.00    +0.045 A 
ENDBRANCH  28  29
ENDBRANCH  27  28
ENDBRANCH  26  27
ENDBRANCH  25  26
ENDBRANCH  24  25
ENDBRANCH   5  19
TORSDOF 7
