REMARK  Name = ZINC61224531
REMARK  4 active torsions:
REMARK  status: ('A' for Active; 'I' for Inactive)
REMARK    1  A    between atoms: C_1  and  N_2
REMARK    2  A    between atoms: C_6  and  C_7
REMARK    3  A    between atoms: N_9  and  N_10
REMARK    4  A    between atoms: C_11  and  C_13
REMARK                            x       y       z     vdW  Elec       q    Type
REMARK                         _______ _______ _______ _____ _____    ______ ____
ROOT
ATOM      1  N   UNL     1      -0.395   1.368   4.116  0.00  0.00    -0.230 N 
ATOM      2  C   UNL     1      -0.599   2.671   4.395  0.00  0.00    +0.262 C 
ATOM      3  O   UNL     1      -0.779   3.466   3.491  0.00  0.00    -0.269 OA
ATOM      4  H   UNL     1      -0.252   0.735   4.836  0.00  0.00    +0.173 HD
ENDROOT
BRANCH   2   5
ATOM      5  C   UNL     1      -0.603   3.132   5.791  0.00  0.00    +0.065 A 
ATOM      6  C   UNL     1      -0.388   2.220   6.890  0.00  0.00    +0.042 A 
ATOM      7  C   UNL     1      -0.416   2.770   8.121  0.00  0.00    +0.080 A 
ATOM      8  S   UNL     1      -0.730   4.490   7.789  0.00  0.00    -0.064 S 
ATOM      9  C   UNL     1      -0.807   4.457   6.113  0.00  0.00    +0.092 A 
ATOM     10 CL   UNL     1      -1.085   5.787   5.032  0.00  0.00    -0.075 Cl
ATOM     11 CL   UNL     1      -0.201   1.989   9.656  0.00  0.00    -0.076 Cl
ENDBRANCH   2   5
BRANCH   1  14
ATOM     12  C   UNL     1      -0.188  -0.374   2.507  0.00  0.00    +0.277 C 
ATOM     13  O   UNL     1      -0.100  -1.183   3.412  0.00  0.00    -0.267 OA
ATOM     14  N   UNL     1      -0.391   0.929   2.786  0.00  0.00    -0.229 N 
ATOM     15  H   UNL     1      -0.534   1.562   2.065  0.00  0.00    +0.173 HD
BRANCH  12  21
ATOM     16  C   UNL     1       0.069  -3.305   1.538  0.00  0.00    +0.149 C 
ATOM     17  N   UNL     1       0.042  -2.118   0.680  0.00  0.00    -0.346 N 
ATOM     18  C   UNL     1       0.120  -2.119  -0.673  0.00  0.00    +0.086 A 
ATOM     19  C   UNL     1       0.063  -0.840  -1.116  0.00  0.00    +0.020 A 
ATOM     20  C   UNL     1      -0.054  -0.004  -0.001  0.00  0.00    +0.032 A 
ATOM     21  C   UNL     1      -0.072  -0.817   1.113  0.00  0.00    +0.106 A 
ENDBRANCH  12  21
ENDBRANCH   1  14
TORSDOF 3
