REMARK  Name = ZINC09741925
REMARK  6 active torsions:
REMARK  status: ('A' for Active; 'I' for Inactive)
REMARK    1  A    between atoms: C_1  and  C_2
REMARK    2  A    between atoms: C_2  and  C_27
REMARK    3  A    between atoms: N_5  and  C_9
REMARK    4  A    between atoms: C_9  and  C_10
REMARK    5  A    between atoms: N_12  and  C_13
REMARK    6  A    between atoms: N_12  and  C_19
REMARK                            x       y       z     vdW  Elec       q    Type
REMARK                         _______ _______ _______ _____ _____    ______ ____
ROOT
ATOM      1  C   UNL     1       1.083   7.426   0.179  0.00  0.00    +0.214 C 
ENDROOT
BRANCH   1   6
ATOM      2  C   UNL     1       5.494   7.645   1.788  0.00  0.00    +0.047 C 
ATOM      3  C   UNL     1       4.436   8.611   1.249  0.00  0.00    +0.135 C 
ATOM      4  C   UNL     1       3.039   8.107   1.554  0.00  0.00    +0.251 C 
ATOM      5  O   UNL     1       2.552   7.916   2.647  0.00  0.00    -0.272 OA
ATOM      6  N   UNL     1       2.453   7.915   0.356  0.00  0.00    -0.215 N 
ATOM      7  C   UNL     1       3.274   8.230  -0.652  0.00  0.00    +0.310 C 
ATOM      8  O   UNL     1       2.968   8.144  -1.825  0.00  0.00    -0.252 OA
ATOM      9  N   UNL     1       4.476   8.654  -0.223  0.00  0.00    -0.281 N 
ATOM     10  H   UNL     1       5.223   8.935  -0.774  0.00  0.00    +0.152 HD
BRANCH   3  11
ATOM     11  C   UNL     1       4.636   9.988   1.826  0.00  0.00    -0.015 A 
ATOM     12  C   UNL     1       4.026  10.333   3.018  0.00  0.00    +0.009 A 
ATOM     13  C   UNL     1       4.212  11.595   3.550  0.00  0.00    +0.039 A 
ATOM     14  C   UNL     1       5.003  12.517   2.885  0.00  0.00    +0.123 A 
ATOM     15  C   UNL     1       5.609  12.172   1.689  0.00  0.00    +0.039 A 
ATOM     16  C   UNL     1       5.426  10.908   1.161  0.00  0.00    +0.009 A 
ATOM     17  F   UNL     1       5.182  13.752   3.402  0.00  0.00    -0.205 F 
ENDBRANCH   3  11
ENDBRANCH   1   6
BRANCH   1  18
ATOM     18  C   UNL     1       1.093   5.922   0.092  0.00  0.00    +0.238 C 
ATOM     19  O   UNL     1       2.148   5.322   0.078  0.00  0.00    -0.273 OA
ATOM     20  N   UNL     1      -0.069   5.242   0.029  0.00  0.00    -0.265 N 
BRANCH  20  21
ATOM     21  C   UNL     1      -1.338   5.968  -0.062  0.00  0.00    +0.104 C 
ATOM     22  C   UNL     1      -2.095   5.516  -1.322  0.00  0.00    +0.047 C 
ATOM     23  C   UNL     1      -3.551   6.055  -1.231  0.00  0.00    +0.168 C 
ATOM     24  S   UNL     1      -3.909   5.763   0.552  0.00  0.00    -0.029 S 
ATOM     25  O   UNL     1      -4.521   4.489   0.699  0.00  0.00    -0.174 OA
ATOM     26  O   UNL     1      -4.547   6.913   1.091  0.00  0.00    -0.174 OA
ATOM     27  C   UNL     1      -2.188   5.677   1.198  0.00  0.00    +0.188 C 
ENDBRANCH  20  21
BRANCH  20  28
ATOM     28  C   UNL     1      -0.063   3.843   0.052  0.00  0.00    +0.037 A 
ATOM     29  C   UNL     1       1.139   3.151  -0.011  0.00  0.00    +0.023 A 
ATOM     30  C   UNL     1       1.141   1.770   0.012  0.00  0.00    +0.002 A 
ATOM     31  C   UNL     1      -0.052   1.077   0.097  0.00  0.00    +0.000 A 
ATOM     32  C   UNL     1      -1.251   1.763   0.155  0.00  0.00    +0.002 A 
ATOM     33  C   UNL     1      -1.260   3.144   0.138  0.00  0.00    +0.023 A 
ENDBRANCH  20  28
ENDBRANCH   1  18
TORSDOF 5
