REMARK  Name = ZINC35509771
REMARK  7 active torsions:
REMARK  status: ('A' for Active; 'I' for Inactive)
REMARK    1  A    between atoms: C_1  and  C_2
REMARK    2  A    between atoms: C_2  and  N_3
REMARK    3  A    between atoms: N_3  and  C_4
REMARK    4  A    between atoms: C_4  and  C_6
REMARK    5  A    between atoms: C_4  and  C_13
REMARK    6  A    between atoms: C_18  and  O_19
REMARK    7  A    between atoms: O_19  and  C_20
REMARK                            x       y       z     vdW  Elec       q    Type
REMARK                         _______ _______ _______ _____ _____    ______ ____
ROOT
ATOM      1  C   UNL     1      -1.356  -1.981   0.004  0.00  0.00    -0.006 C 
ENDROOT
BRANCH   1   2
ATOM      2  C   UNL     1      -0.737  -2.482   1.284  0.00  0.00    -0.013 A 
ATOM      3  C   UNL     1      -0.772  -1.699   2.422  0.00  0.00    +0.026 A 
ATOM      4  C   UNL     1      -0.204  -2.159   3.596  0.00  0.00    +0.042 A 
ATOM      5  C   UNL     1       0.401  -3.403   3.635  0.00  0.00    +0.039 A 
ATOM      6  C   UNL     1       0.439  -4.189   2.499  0.00  0.00    +0.061 A 
ATOM      7  C   UNL     1      -0.136  -3.732   1.321  0.00  0.00    +0.136 A 
ATOM      8 BR   UNL     1       1.266  -5.888   2.551  0.00  0.00    -0.046 Br
ATOM      9 CL   UNL     1      -0.249  -1.173   5.025  0.00  0.00    -0.083 Cl
BRANCH   7  10
ATOM     10  O   UNL     1      -0.105  -4.505   0.203  0.00  0.00    -0.494 OA
ATOM     11  C   UNL     1       1.021  -4.351  -0.662  0.00  0.00    +0.277 C 
ENDBRANCH   7  10
ENDBRANCH   1   2
BRANCH   1  12
ATOM     12  C   UNL     1      -2.766  -2.502  -0.109  0.00  0.00    -0.056 A 
ATOM     13  C   UNL     1      -3.789  -1.882   0.583  0.00  0.00    +0.002 A 
ATOM     14  C   UNL     1      -5.082  -2.360   0.480  0.00  0.00    +0.001 A 
ATOM     15  C   UNL     1      -5.352  -3.457  -0.316  0.00  0.00    +0.014 A 
ATOM     16  C   UNL     1      -4.329  -4.078  -1.008  0.00  0.00    +0.014 A 
ATOM     17  C   UNL     1      -3.036  -3.596  -0.909  0.00  0.00    +0.016 A 
ATOM     18  I   UNL     1      -4.737  -5.742  -2.213  0.00  0.00    -0.044 I 
ENDBRANCH   1  12
BRANCH   1  19
ATOM     19  N   UNL     1      -1.376  -0.512   0.012  0.00  0.00    +0.386 N 
ATOM     20  H   UNL     1      -1.848  -0.187   0.843  0.00  0.00    -0.085 HD
ATOM     21  H   UNL     1      -1.864  -0.178  -0.805  0.00  0.00    -0.085 HD
BRANCH  19  23
ATOM     22  C   UNL     1      -0.019   1.526   0.010  0.00  0.00    -0.017 C 
ATOM     23  C   UNL     1       0.002  -0.004   0.002  0.00  0.00    -0.085 C 
ENDBRANCH  19  23
ENDBRANCH   1  19
TORSDOF 5
