REMARK  Name = ZINC40692555
REMARK  5 active torsions:
REMARK  status: ('A' for Active; 'I' for Inactive)
REMARK    1  A    between atoms: C_1  and  C_2
REMARK    2  A    between atoms: C_4  and  S_9
REMARK    3  A    between atoms: S_9  and  N_12
REMARK    4  A    between atoms: N_12  and  C_13
REMARK    5  A    between atoms: C_13  and  C_20
REMARK                            x       y       z     vdW  Elec       q    Type
REMARK                         _______ _______ _______ _____ _____    ______ ____
ROOT
ATOM      1  S   UNL     1       1.582  -3.393  -4.811  0.00  0.00    +0.060 S 
ATOM      2  O   UNL     1       2.932  -3.563  -5.222  0.00  0.00    -0.153 OA
ATOM      3  O   UNL     1       0.745  -2.378  -5.348  0.00  0.00    -0.153 OA
ENDROOT
BRANCH   1   7
ATOM      4  C   UNL     1      -2.736  -6.196  -5.711  0.00  0.00    +0.045 C 
ATOM      5  C   UNL     1      -1.242  -6.161  -5.518  0.00  0.00    -0.035 A 
ATOM      6  C   UNL     1      -0.603  -4.958  -5.285  0.00  0.00    +0.033 A 
ATOM      7  C   UNL     1       0.768  -4.927  -5.108  0.00  0.00    +0.106 A 
ATOM      8  C   UNL     1       1.500  -6.098  -5.164  0.00  0.00    +0.029 A 
ATOM      9  C   UNL     1       0.861  -7.302  -5.397  0.00  0.00    +0.017 A 
ATOM     10  C   UNL     1      -0.511  -7.334  -5.569  0.00  0.00    +0.021 A 
ATOM     11 BR   UNL     1      -1.386  -8.981  -5.881  0.00  0.00    -0.050 Br
ENDBRANCH   1   7
BRANCH   1  12
ATOM     12  N   UNL     1       1.612  -3.163  -3.171  0.00  0.00    -0.170 NA
ATOM     13  H   UNL     1       1.110  -2.434  -2.774  0.00  0.00    +0.150 HD
BRANCH  12  14
ATOM     14  C   UNL     1       2.397  -4.061  -2.320  0.00  0.00    +0.126 C 
ATOM     15  C   UNL     1       1.807  -5.445  -2.367  0.00  0.00    +0.039 C 
ATOM     16  C   UNL     1       1.948  -6.191  -1.027  0.00  0.00    +0.003 C 
ATOM     17  C   UNL     1       3.325  -5.984  -0.369  0.00  0.00    +0.000 C 
ATOM     18  C   UNL     1       4.453  -6.044  -1.363  0.00  0.00    +0.000 C 
ATOM     19  C   UNL     1       4.776  -4.608  -1.824  0.00  0.00    +0.003 C 
ATOM     20  C   UNL     1       3.848  -4.129  -2.837  0.00  0.00    +0.039 C 
BRANCH  14  21
ATOM     21  C   UNL     1       2.388  -3.563  -0.935  0.00  0.00    +0.086 C 
ATOM     22  N   UNL     1       2.381  -3.178   0.134  0.00  0.00    -0.195 NA
ENDBRANCH  14  21
ENDBRANCH  12  14
ENDBRANCH   1  12
TORSDOF 4
