REMARK  Name = ZINC36724088
REMARK  4 active torsions:
REMARK  status: ('A' for Active; 'I' for Inactive)
REMARK    1  A    between atoms: C_1  and  C_2
REMARK    2  A    between atoms: N_11  and  S_12
REMARK    3  A    between atoms: S_12  and  C_15
REMARK    4  A    between atoms: C_18  and  O_21
REMARK                            x       y       z     vdW  Elec       q    Type
REMARK                         _______ _______ _______ _____ _____    ______ ____
ROOT
ATOM      1  C   UNL     1      -0.043   1.502   0.017  0.00  0.00    +0.044 C 
ATOM      2  C   UNL     1      -0.016  -0.004   0.007  0.00  0.00    -0.050 A 
ATOM      3  C   UNL     1      -0.013  -0.686  -1.197  0.00  0.00    +0.005 A 
ATOM      4  C   UNL     1       0.011  -2.066  -1.206  0.00  0.00    +0.025 A 
ATOM      5  C   UNL     1       0.032  -2.770  -0.006  0.00  0.00    +0.054 A 
ATOM      6  C   UNL     1       0.031  -2.086   1.199  0.00  0.00    -0.024 A 
ATOM      7  C   UNL     1       0.011  -0.701   1.199  0.00  0.00    +0.008 A 
ATOM      8  C   UNL     1       0.064  -2.814   2.517  0.00  0.00    +0.038 C 
ATOM      9  C   UNL     1      -0.412  -4.256   2.344  0.00  0.00    +0.025 C 
ATOM     10  C   UNL     1       0.372  -4.902   1.195  0.00  0.00    +0.132 C 
ATOM     11  N   UNL     1       0.050  -4.169  -0.037  0.00  0.00    -0.203 N 
ENDROOT
BRANCH  11  12
ATOM     12  S   UNL     1      -0.286  -4.984  -1.438  0.00  0.00    +0.075 S 
ATOM     13  O   UNL     1      -0.628  -6.311  -1.064  0.00  0.00    -0.150 OA
ATOM     14  O   UNL     1      -1.162  -4.155  -2.191  0.00  0.00    -0.150 OA
BRANCH  12  15
ATOM     15  C   UNL     1       1.216  -5.090  -2.353  0.00  0.00    +0.109 A 
ATOM     16  C   UNL     1       1.550  -4.091  -3.249  0.00  0.00    +0.032 A 
ATOM     17  C   UNL     1       2.728  -4.172  -3.967  0.00  0.00    +0.047 A 
ATOM     18  C   UNL     1       3.575  -5.256  -3.789  0.00  0.00    +0.117 A 
ATOM     19  C   UNL     1       3.237  -6.257  -2.889  0.00  0.00    +0.047 A 
ATOM     20  C   UNL     1       2.061  -6.168  -2.170  0.00  0.00    +0.032 A 
BRANCH  18  21
ATOM     21  O   UNL     1       4.733  -5.338  -4.495  0.00  0.00    -0.507 OA
ATOM     22  H   UNL     1       5.490  -4.926  -4.057  0.00  0.00    +0.292 HD
ENDBRANCH  18  21
ENDBRANCH  12  15
ENDBRANCH  11  12
TORSDOF 3
