REMARK  Name = ZINC38679833
REMARK  9 active torsions:
REMARK  status: ('A' for Active; 'I' for Inactive)
REMARK    1  A    between atoms: C_1  and  C_2
REMARK    2  A    between atoms: C_2  and  C_4
REMARK    3  A    between atoms: C_2  and  O_29
REMARK    4  A    between atoms: C_4  and  O_6
REMARK    5  A    between atoms: O_6  and  C_7
REMARK    6  A    between atoms: C_14  and  N_28
REMARK    7  A    between atoms: C_15  and  C_26
REMARK    8  A    between atoms: C_16  and  C_18
REMARK    9  A    between atoms: O_29  and  C_30
REMARK                            x       y       z     vdW  Elec       q    Type
REMARK                         _______ _______ _______ _____ _____    ______ ____
ROOT
ATOM      1  C   UNL     1       2.077  -1.238  -2.962  0.00  0.00    +0.135 A 
ATOM      2  C   UNL     1       0.973  -1.573  -3.733  0.00  0.00    +0.047 A 
ATOM      3  C   UNL     1       1.146  -2.211  -4.945  0.00  0.00    +0.012 A 
ATOM      4  C   UNL     1       2.418  -2.520  -5.395  0.00  0.00    +0.008 A 
ATOM      5  C   UNL     1       3.524  -2.187  -4.629  0.00  0.00    +0.138 A 
ATOM      6  C   UNL     1       3.351  -1.539  -3.412  0.00  0.00    +0.093 A 
ATOM      7  O   UNL     1       4.778  -2.481  -5.053  0.00  0.00    -0.441 OA
ATOM      8  C   UNL     1       5.003  -2.737  -6.352  0.00  0.00    +0.199 C 
ATOM      9  C   UNL     1       4.005  -3.091  -7.196  0.00  0.00    +0.098 C 
ATOM     10  C   UNL     1       2.586  -3.217  -6.719  0.00  0.00    +0.101 C 
ENDROOT
BRANCH  10  11
ATOM     11  C   UNL     1       2.239  -4.675  -6.563  0.00  0.00    +0.002 A 
ATOM     12  C   UNL     1       2.946  -5.463  -5.671  0.00  0.00    +0.046 A 
ATOM     13  C   UNL     1       2.627  -6.801  -5.528  0.00  0.00    +0.020 A 
ATOM     14  C   UNL     1       1.603  -7.352  -6.276  0.00  0.00    +0.003 A 
ATOM     15  C   UNL     1       0.897  -6.566  -7.167  0.00  0.00    +0.020 A 
ATOM     16  C   UNL     1       1.211  -5.226  -7.307  0.00  0.00    +0.046 A 
ATOM     17 CL   UNL     1       0.319  -4.237  -8.420  0.00  0.00    -0.083 Cl
ATOM     18 CL   UNL     1       4.232  -4.771  -4.732  0.00  0.00    -0.083 Cl
ENDBRANCH  10  11
BRANCH   8  19
ATOM     19  N   UNL     1       6.283  -2.636  -6.839  0.00  0.00    -0.328 N 
ATOM     20  H   UNL     1       7.008  -2.383  -6.247  0.00  0.00    +0.145 HD
ATOM     21  H   UNL     1       6.461  -2.818  -7.775  0.00  0.00    +0.145 HD
ENDBRANCH   8  19
BRANCH   9  22
ATOM     22  C   UNL     1       4.309  -3.350  -8.572  0.00  0.00    +0.101 C 
ATOM     23  N   UNL     1       4.550  -3.556  -9.663  0.00  0.00    -0.191 NA
ENDBRANCH   9  22
BRANCH   1  24
ATOM     24  O   UNL     1       1.907  -0.609  -1.768  0.00  0.00    -0.423 OA
BRANCH  24  25
ATOM     25  C   UNL     1       1.498  -1.343  -0.722  0.00  0.00    +0.353 C 
ATOM     26  O   UNL     1       1.337  -2.535  -0.845  0.00  0.00    -0.246 OA
BRANCH  25  28
ATOM     27  C   UNL     1       0.060   0.285   0.475  0.00  0.00    +0.064 C 
ATOM     28  C   UNL     1       1.239  -0.682   0.607  0.00  0.00    +0.279 C 
BRANCH  28  29
ATOM     29  O   UNL     1       0.929  -1.679   1.583  0.00  0.00    -0.478 OA
BRANCH  29  30
ATOM     30  C   UNL     1       1.141  -1.354   2.886  0.00  0.00    +0.122 A 
ATOM     31  C   UNL     1       0.917  -2.295   3.881  0.00  0.00    +0.048 A 
ATOM     32  C   UNL     1       1.133  -1.963   5.205  0.00  0.00    +0.042 A 
ATOM     33  C   UNL     1       1.572  -0.693   5.538  0.00  0.00    +0.124 A 
ATOM     34  C   UNL     1       1.795   0.247   4.546  0.00  0.00    +0.042 A 
ATOM     35  C   UNL     1       1.587  -0.084   3.221  0.00  0.00    +0.048 A 
ATOM     36  F   UNL     1       1.782  -0.370   6.833  0.00  0.00    -0.205 F 
ENDBRANCH  29  30
ENDBRANCH  28  29
ENDBRANCH  25  28
ENDBRANCH  24  25
ENDBRANCH   1  24
TORSDOF 8
