REMARK  Name = ZINC16043819
REMARK  16 active torsions:
REMARK  status: ('A' for Active; 'I' for Inactive)
REMARK    1  A    between atoms: C_1  and  C_2
REMARK    2  A    between atoms: C_3  and  C_30
REMARK    3  A    between atoms: C_4  and  C_10
REMARK    4  A    between atoms: C_13  and  O_18
REMARK    5  A    between atoms: C_14  and  O_16
REMARK    6  A    between atoms: O_16  and  C_17
REMARK    7  A    between atoms: O_18  and  C_19
REMARK    8  A    between atoms: C_19  and  C_20
REMARK    9  A    between atoms: C_23  and  C_26
REMARK   10  A    between atoms: C_26  and  O_28
REMARK   11  A    between atoms: O_28  and  C_29
REMARK   12  A    between atoms: C_30  and  O_32
REMARK   13  A    between atoms: O_32  and  C_33
REMARK   14  A    between atoms: C_33  and  C_34
REMARK   15  A    between atoms: C_34  and  C_35
REMARK   16  A    between atoms: C_34  and  C_36
REMARK                            x       y       z     vdW  Elec       q    Type
REMARK                         _______ _______ _______ _____ _____    ______ ____
ROOT
ATOM      1  C   UNL     1       1.052  -6.746  -1.576  0.00  0.00    -0.019 A 
ATOM      2  C   UNL     1       1.142  -6.294  -0.272  0.00  0.00    +0.009 A 
ATOM      3  C   UNL     1       1.052  -4.942   0.002  0.00  0.00    +0.050 A 
ATOM      4  C   UNL     1       0.860  -4.037  -1.030  0.00  0.00    +0.162 A 
ATOM      5  C   UNL     1       0.770  -4.492  -2.342  0.00  0.00    +0.162 A 
ATOM      6  C   UNL     1       0.866  -5.848  -2.611  0.00  0.00    +0.055 A 
ENDROOT
BRANCH   1  10
ATOM      7  C   UNL     1       4.344 -10.022  -0.662  0.00  0.00    +0.061 C 
ATOM      8  C   UNL     1       2.910  -9.591  -0.835  0.00  0.00    +0.019 C 
ATOM      9  C   UNL     1       2.610  -8.623  -1.728  0.00  0.00    +0.078 C 
ATOM     10  C   UNL     1       1.156  -8.220  -1.869  0.00  0.00    +0.141 C 
ATOM     11  N   UNL     1       0.184  -8.923  -1.016  0.00  0.00    -0.315 N 
ATOM     12  C   UNL     1       0.638  -9.870  -0.171  0.00  0.00    +0.135 C 
ATOM     13  S   UNL     1      -0.481 -10.694   0.828  0.00  0.00    -0.019 S 
ATOM     14  N   UNL     1       1.936 -10.186  -0.087  0.00  0.00    -0.300 N 
ATOM     15  H   UNL     1      -0.762  -8.710  -1.060  0.00  0.00    +0.149 HD
ATOM     16  H   UNL     1       2.200 -10.877   0.541  0.00  0.00    +0.154 HD
BRANCH   9  17
ATOM     17  C   UNL     1       3.619  -8.006  -2.504  0.00  0.00    +0.339 C 
ATOM     18  O   UNL     1       3.791  -8.347  -3.660  0.00  0.00    -0.245 OA
BRANCH  17  19
ATOM     19  O   UNL     1       4.390  -7.039  -1.964  0.00  0.00    -0.461 OA
BRANCH  19  20
ATOM     20  C   UNL     1       5.311  -6.382  -2.835  0.00  0.00    +0.235 C 
BRANCH  20  21
ATOM     21  C   UNL     1       6.175  -5.412  -2.026  0.00  0.00    +0.020 C 
ATOM     22  C   UNL     1       7.047  -6.200  -1.048  0.00  0.00    +0.010 C 
ATOM     23  C   UNL     1       7.069  -4.611  -2.976  0.00  0.00    +0.010 C 
ENDBRANCH  20  21
ENDBRANCH  19  20
ENDBRANCH  17  19
ENDBRANCH   9  17
ENDBRANCH   1  10
BRANCH   5  24
ATOM     24  O   UNL     1       0.587  -3.607  -3.359  0.00  0.00    -0.491 OA
ATOM     25  C   UNL     1       0.625  -4.130  -4.689  0.00  0.00    +0.277 C 
ENDBRANCH   5  24
BRANCH   4  26
ATOM     26  O   UNL     1       0.766  -2.707  -0.762  0.00  0.00    -0.484 OA
BRANCH  26  27
ATOM     27  C   UNL     1       0.868  -2.313   0.608  0.00  0.00    +0.264 C 
BRANCH  27  28
ATOM     28  C   UNL     1       0.742  -0.815   0.710  0.00  0.00    -0.010 A 
ATOM     29  C   UNL     1      -0.504  -0.238   0.876  0.00  0.00    +0.008 A 
ATOM     30  C   UNL     1      -0.627   1.133   0.970  0.00  0.00    +0.015 A 
ATOM     31  C   UNL     1       0.511   1.939   0.897  0.00  0.00    +0.059 A 
ATOM     32  C   UNL     1       1.766   1.350   0.731  0.00  0.00    +0.015 A 
ATOM     33  C   UNL     1       1.874  -0.022   0.637  0.00  0.00    +0.008 A 
BRANCH  31  34
ATOM     34  C   UNL     1       0.387   3.407   0.997  0.00  0.00    +0.339 C 
ATOM     35  O   UNL     1      -0.706   3.916   1.143  0.00  0.00    -0.245 OA
BRANCH  34  36
ATOM     36  O   UNL     1       1.487   4.182   0.926  0.00  0.00    -0.464 OA
ATOM     37  C   UNL     1       1.290   5.617   1.032  0.00  0.00    +0.280 C 
ENDBRANCH  34  36
ENDBRANCH  31  34
ENDBRANCH  27  28
ENDBRANCH  26  27
ENDBRANCH   4  26
TORSDOF 11
