REMARK  Name = ZINC21880778
REMARK  8 active torsions:
REMARK  status: ('A' for Active; 'I' for Inactive)
REMARK    1  A    between atoms: C_1  and  O_2
REMARK    2  A    between atoms: O_2  and  C_3
REMARK    3  A    between atoms: C_5  and  N_11
REMARK    4  A    between atoms: C_7  and  O_9
REMARK    5  A    between atoms: O_9  and  C_10
REMARK    6  A    between atoms: N_11  and  C_12
REMARK    7  A    between atoms: C_12  and  C_13
REMARK    8  A    between atoms: N_26  and  C_29
REMARK                            x       y       z     vdW  Elec       q    Type
REMARK                         _______ _______ _______ _____ _____    ______ ____
ROOT
ATOM      1  C   UNL     1      -0.718   1.572   1.248  0.00  0.00    +0.043 A 
ATOM      2  C   UNL     1      -1.639   0.885   1.954  0.00  0.00    +0.025 A 
ATOM      3  C   UNL     1      -2.041   1.700   3.031  0.00  0.00    +0.020 A 
ATOM      4  C   UNL     1      -1.350   2.856   2.945  0.00  0.00    +0.093 A 
ATOM      5  N   UNL     1      -0.530   2.781   1.854  0.00  0.00    -0.297 N 
ATOM      6  C   UNL     1       0.350   3.778   1.428  0.00  0.00    +0.202 A 
ATOM      7  N   UNL     1       1.177   3.797   0.396  0.00  0.00    -0.121 NA
ATOM      8  N   UNL     1       1.911   4.791   0.146  0.00  0.00    -0.124 NA
ATOM      9  C   UNL     1       1.907   5.875   0.909  0.00  0.00    +0.186 A 
ATOM     10  S   UNL     1       0.686   5.392   2.127  0.00  0.00    -0.013 S 
ATOM     11  N   UNL     1       2.639   7.049   0.796  0.00  0.00    -0.312 N 
ATOM     12  C   UNL     1       1.753   8.219   0.733  0.00  0.00    +0.088 C 
ATOM     13  C   UNL     1       2.598   9.494   0.690  0.00  0.00    -0.059 C 
ATOM     14  N   UNL     1       3.489   9.449  -0.478  0.00  0.00    +0.384 N 
ATOM     15  C   UNL     1       4.376   8.279  -0.415  0.00  0.00    -0.059 C 
ATOM     16  C   UNL     1       3.531   7.003  -0.371  0.00  0.00    +0.088 C 
ATOM     17  H   UNL     1       2.865   9.354  -1.378  0.00  0.00    -0.081 HD
ENDROOT
BRANCH  14  18
ATOM     18  C   UNL     1       4.264  10.691  -0.597  0.00  0.00    -0.068 C 
ATOM     19  C   UNL     1       5.184  10.837   0.617  0.00  0.00    -0.015 C 
ATOM     20  C   UNL     1       5.991  12.130   0.493  0.00  0.00    -0.002 C 
ATOM     21  C   UNL     1       5.036  13.324   0.431  0.00  0.00    -0.000 C 
ATOM     22  C   UNL     1       4.116  13.178  -0.784  0.00  0.00    -0.002 C 
ATOM     23  C   UNL     1       3.309  11.884  -0.660  0.00  0.00    -0.015 C 
ENDBRANCH  14  18
BRANCH   1  24
ATOM     24  C   UNL     1      -0.013   1.086   0.008  0.00  0.00    +0.155 C 
BRANCH  24  25
ATOM     25  N   UNL     1      -0.721   1.571  -1.179  0.00  0.00    -0.338 N 
ATOM     26  H   UNL     1      -1.623   2.191  -1.066  0.00  0.00    +0.146 HD
BRANCH  25  29
ATOM     27  C   UNL     1      -0.456   1.385  -4.844  0.00  0.00    +0.125 A 
ATOM     28  C   UNL     1      -0.923   1.707  -3.579  0.00  0.00    +0.068 A 
ATOM     29  C   UNL     1      -0.252   1.247  -2.454  0.00  0.00    +0.034 A 
ATOM     30  C   UNL     1       0.890   0.470  -2.597  0.00  0.00    +0.068 A 
ATOM     31  C   UNL     1       1.352   0.144  -3.862  0.00  0.00    +0.125 A 
ATOM     32  C   UNL     1       0.681   0.604  -4.986  0.00  0.00    +0.091 A 
BRANCH  27  34
ATOM     33  C   UNL     1      -0.576   1.465  -7.217  0.00  0.00    +0.277 C 
ATOM     34  O   UNL     1      -1.113   1.835  -5.945  0.00  0.00    -0.495 OA
ENDBRANCH  27  34
BRANCH  31  35
ATOM     35  O   UNL     1       2.466  -0.622  -4.002  0.00  0.00    -0.495 OA
ATOM     36  C   UNL     1       2.889  -0.914  -5.336  0.00  0.00    +0.277 C 
ENDBRANCH  31  35
ENDBRANCH  25  29
ENDBRANCH  24  25
ENDBRANCH   1  24
TORSDOF 6
