REMARK  Name = ZINC39661326
REMARK  8 active torsions:
REMARK  status: ('A' for Active; 'I' for Inactive)
REMARK    1  A    between atoms: C_1  and  C_2
REMARK    2  A    between atoms: C_2  and  C_3
REMARK    3  A    between atoms: C_3  and  C_4
REMARK    4  A    between atoms: C_4  and  C_5
REMARK    5  A    between atoms: C_5  and  C_7
REMARK    6  A    between atoms: C_5  and  C_8
REMARK    7  A    between atoms: C_12  and  C_21
REMARK    8  A    between atoms: N_23  and  C_24
REMARK                            x       y       z     vdW  Elec       q    Type
REMARK                         _______ _______ _______ _____ _____    ______ ____
ROOT
ATOM      1  C   UNL     1      -2.787  -3.976   0.434  0.00  0.00    +0.218 C 
ATOM      2  O   UNL     1      -1.776  -4.601   0.675  0.00  0.00    -0.275 OA
ATOM      3  N   UNL     1      -3.955  -4.625   0.261  0.00  0.00    -0.300 N 
ATOM      4  C   UNL     1      -5.260  -4.054  -0.150  0.00  0.00    +0.121 C 
ATOM      5  C   UNL     1      -5.863  -5.106  -1.107  0.00  0.00    +0.100 C 
ATOM      6  C   UNL     1      -5.182  -6.428  -0.717  0.00  0.00    -0.004 C 
ATOM      7  C   UNL     1      -4.224  -6.073   0.430  0.00  0.00    +0.115 C 
ATOM      8  C   UNL     1      -4.396  -6.987  -1.899  0.00  0.00    -0.010 C 
ATOM      9  C   UNL     1      -3.775  -8.330  -1.504  0.00  0.00    -0.082 C 
ATOM     10  N   UNL     1      -4.837  -9.265  -1.110  0.00  0.00    +0.379 N 
ATOM     11  C   UNL     1      -5.528  -8.764   0.084  0.00  0.00    -0.082 C 
ATOM     12  C   UNL     1      -6.222  -7.439  -0.244  0.00  0.00    -0.010 C 
ATOM     13  H   UNL     1      -5.498  -9.357  -1.866  0.00  0.00    -0.086 HD
ATOM     14  H   UNL     1      -4.431 -10.166  -0.909  0.00  0.00    -0.086 HD
ENDROOT
BRANCH   5  15
ATOM     15  C   UNL     1      -5.549  -4.754  -2.538  0.00  0.00    +0.219 C 
ATOM     16  O   UNL     1      -4.569  -4.088  -2.798  0.00  0.00    -0.275 OA
ATOM     17  N   UNL     1      -6.357  -5.178  -3.530  0.00  0.00    -0.304 N 
ATOM     18  H   UNL     1      -7.141  -5.710  -3.322  0.00  0.00    +0.149 HD
BRANCH  17  19
ATOM     19  C   UNL     1      -6.052  -4.836  -4.921  0.00  0.00    +0.151 C 
ATOM     20  C   UNL     1      -7.353  -4.817  -5.726  0.00  0.00    +0.042 C 
ATOM     21  C   UNL     1      -6.990  -5.037  -7.213  0.00  0.00    +0.079 C 
ATOM     22  S   UNL     1      -5.475  -6.062  -7.079  0.00  0.00    -0.086 S 
ATOM     23  C   UNL     1      -5.065  -5.840  -5.468  0.00  0.00    +0.209 C 
ATOM     24  O   UNL     1      -4.158  -6.376  -4.866  0.00  0.00    -0.283 OA
ENDBRANCH  17  19
ENDBRANCH   5  15
BRANCH   1  25
ATOM     25  C   UNL     1      -2.737  -2.474   0.330  0.00  0.00    +0.072 C 
ATOM     26  C   UNL     1      -1.399  -2.049  -0.279  0.00  0.00    +0.017 C 
BRANCH  25  27
ATOM     27  C   UNL     1      -2.879  -1.861   1.725  0.00  0.00    +0.012 C 
BRANCH  27  28
ATOM     28  C   UNL     1      -2.954  -0.337   1.607  0.00  0.00    +0.000 C 
BRANCH  28  30
ATOM     29  C   UNL     1      -3.171   1.800   2.884  0.00  0.00    +0.004 C 
ATOM     30  C   UNL     1      -3.096   0.276   3.002  0.00  0.00    -0.003 C 
ENDBRANCH  28  30
ENDBRANCH  27  28
ENDBRANCH  25  27
ENDBRANCH   1  25
TORSDOF 6
