REMARK  Name = ZINC06860880
REMARK  9 active torsions:
REMARK  status: ('A' for Active; 'I' for Inactive)
REMARK    1  A    between atoms: C_1  and  C_2
REMARK    2  A    between atoms: C_6  and  C_26
REMARK    3  A    between atoms: C_7  and  O_8
REMARK    4  A    between atoms: O_8  and  C_9
REMARK    5  A    between atoms: C_9  and  C_10
REMARK    6  A    between atoms: N_12  and  N_13
REMARK    7  A    between atoms: N_13  and  S_14
REMARK    8  A    between atoms: S_14  and  C_17
REMARK    9  A    between atoms: C_22  and  N_23
REMARK                            x       y       z     vdW  Elec       q    Type
REMARK                         _______ _______ _______ _____ _____    ______ ____
ROOT
ATOM      1  C   UNL     1      -1.078   0.793   4.664  0.00  0.00    +0.265 C 
ATOM      2  O   UNL     1       0.056   1.045   5.013  0.00  0.00    -0.271 OA
ATOM      3  N   UNL     1      -2.122   1.334   5.322  0.00  0.00    -0.229 N 
ATOM      4  H   UNL     1      -3.029   1.133   5.043  0.00  0.00    +0.171 HD
ENDROOT
BRANCH   3   5
ATOM      5  N   UNL     1      -1.898   2.188   6.410  0.00  0.00    -0.108 NA
ATOM      6  H   UNL     1      -1.355   1.890   7.157  0.00  0.00    +0.172 HD
BRANCH   5   7
ATOM      7  S   UNL     1      -2.559   3.706   6.421  0.00  0.00    +0.076 S 
ATOM      8  O   UNL     1      -2.276   4.263   7.698  0.00  0.00    -0.152 OA
ATOM      9  O   UNL     1      -2.157   4.333   5.211  0.00  0.00    -0.152 OA
BRANCH   7  10
ATOM     10  C   UNL     1      -4.308   3.514   6.332  0.00  0.00    +0.137 A 
ATOM     11  C   UNL     1      -5.004   4.011   5.246  0.00  0.00    +0.031 A 
ATOM     12  C   UNL     1      -6.376   3.860   5.176  0.00  0.00    +0.002 A 
ATOM     13  C   UNL     1      -7.053   3.211   6.192  0.00  0.00    +0.002 A 
ATOM     14  C   UNL     1      -6.357   2.713   7.278  0.00  0.00    +0.035 A 
ATOM     15  C   UNL     1      -4.984   2.860   7.346  0.00  0.00    +0.152 A 
BRANCH  15  16
ATOM     16  N   UNL     1      -4.238   2.322   8.505  0.00  0.00    +0.058 N 
ATOM     17  O   UNL     1      -4.838   1.867   9.451  0.00  0.00    -0.126 OA
ATOM     18  O   UNL     1      -3.029   2.337   8.507  0.00  0.00    -0.126 OA
ENDBRANCH  15  16
ENDBRANCH   7  10
ENDBRANCH   5   7
ENDBRANCH   3   5
BRANCH   1  19
ATOM     19  C   UNL     1      -1.319  -0.125   3.493  0.00  0.00    +0.325 C 
BRANCH  19  20
ATOM     20  O   UNL     1      -0.066  -0.566   2.968  0.00  0.00    -0.482 OA
BRANCH  20  27
ATOM     21  C   UNL     1      -0.063   0.597   0.393  0.00  0.00    +0.047 C 
ATOM     22  C   UNL     1      -0.106  -0.894   0.612  0.00  0.00    -0.009 A 
ATOM     23  C   UNL     1      -0.140  -1.751  -0.471  0.00  0.00    +0.007 A 
ATOM     24  C   UNL     1      -0.180  -3.118  -0.271  0.00  0.00    +0.001 A 
ATOM     25  C   UNL     1      -0.185  -3.632   1.013  0.00  0.00    +0.007 A 
ATOM     26  C   UNL     1      -0.151  -2.779   2.099  0.00  0.00    -0.009 A 
ATOM     27  C   UNL     1      -0.105  -1.407   1.901  0.00  0.00    +0.127 A 
ATOM     28  C   UNL     1      -0.156  -3.339   3.498  0.00  0.00    +0.047 C 
ENDBRANCH  20  27
ENDBRANCH  19  20
ENDBRANCH   1  19
TORSDOF 7
