REMARK  Name = ZINC24248585
REMARK  7 active torsions:
REMARK  status: ('A' for Active; 'I' for Inactive)
REMARK    1  A    between atoms: C_1  and  C_2
REMARK    2  A    between atoms: C_2  and  C_3
REMARK    3  A    between atoms: C_2  and  C_4
REMARK    4  A    between atoms: C_2  and  N_5
REMARK    5  A    between atoms: C_6  and  C_8
REMARK    6  A    between atoms: C_11  and  N_14
REMARK    7  A    between atoms: N_14  and  C_15
REMARK                            x       y       z     vdW  Elec       q    Type
REMARK                         _______ _______ _______ _____ _____    ______ ____
ROOT
ATOM      1  N   UNL     1       4.571  -1.820  -6.156  0.00  0.00    -0.320 N 
ATOM      2  H   UNL     1       4.113  -2.424  -6.760  0.00  0.00    +0.152 HD
ENDROOT
BRANCH   1   3
ATOM      3  C   UNL     1       5.909  -1.608  -6.290  0.00  0.00    +0.085 C 
ATOM      4  C   UNL     1       6.585  -2.135  -7.368  0.00  0.00    +0.059 C 
ATOM      5  C   UNL     1       5.893  -2.393  -8.648  0.00  0.00    +0.000 A 
ATOM      6  C   UNL     1       4.541  -2.117  -8.818  0.00  0.00    +0.009 A 
ATOM      7  C   UNL     1       3.941  -2.375 -10.033  0.00  0.00    +0.001 A 
ATOM      8  C   UNL     1       4.674  -2.908 -11.083  0.00  0.00    +0.001 A 
ATOM      9  C   UNL     1       6.015  -3.189 -10.933  0.00  0.00    +0.013 A 
ATOM     10  C   UNL     1       6.642  -2.934  -9.713  0.00  0.00    +0.045 A 
ATOM     11  C   UNL     1       8.069  -3.218  -9.512  0.00  0.00    +0.251 C 
ATOM     12  O   UNL     1       8.721  -3.685 -10.427  0.00  0.00    -0.270 OA
ATOM     13  N   UNL     1       8.667  -2.971  -8.335  0.00  0.00    -0.248 N 
ATOM     14  C   UNL     1       8.016  -2.452  -7.281  0.00  0.00    +0.252 C 
ATOM     15  O   UNL     1       8.617  -2.246  -6.243  0.00  0.00    -0.270 OA
ATOM     16  H   UNL     1       9.611  -3.172  -8.243  0.00  0.00    +0.158 HD
ENDBRANCH   1   3
BRANCH   1  20
ATOM     17  C   UNL     1       2.446   0.128  -3.151  0.00  0.00    +0.037 A 
ATOM     18  C   UNL     1       1.787  -0.744  -4.023  0.00  0.00    +0.015 A 
ATOM     19  C   UNL     1       2.493  -1.386  -5.016  0.00  0.00    +0.024 A 
ATOM     20  C   UNL     1       3.861  -1.168  -5.152  0.00  0.00    +0.031 A 
ATOM     21  C   UNL     1       4.520  -0.301  -4.285  0.00  0.00    +0.024 A 
ATOM     22  C   UNL     1       3.819   0.348  -3.294  0.00  0.00    +0.015 A 
BRANCH  17  24
ATOM     23  N   UNL     1       0.369   0.604  -1.950  0.00  0.00    -0.307 N 
ATOM     24  C   UNL     1       1.693   0.818  -2.086  0.00  0.00    +0.244 C 
ATOM     25  O   UNL     1       2.266   1.579  -1.332  0.00  0.00    -0.270 OA
ATOM     26  H   UNL     1      -0.088  -0.004  -2.552  0.00  0.00    +0.150 HD
BRANCH  23  28
ATOM     27  C   UNL     1      -0.267   2.803  -1.088  0.00  0.00    +0.031 C 
ATOM     28  C   UNL     1      -0.379   1.289  -0.893  0.00  0.00    +0.026 C 
ATOM     29  C   UNL     1       0.200   0.906   0.471  0.00  0.00    +0.031 C 
ATOM     30  C   UNL     1      -1.850   0.874  -0.958  0.00  0.00    +0.031 C 
ENDBRANCH  23  28
ENDBRANCH  17  24
ENDBRANCH   1  20
TORSDOF 4
