REMARK  Name = ZINC43961018
REMARK  6 active torsions:
REMARK  status: ('A' for Active; 'I' for Inactive)
REMARK    1  A    between atoms: C_5  and  S_6
REMARK    2  A    between atoms: S_6  and  N_9
REMARK    3  A    between atoms: N_9  and  C_10
REMARK    4  A    between atoms: C_10  and  C_11
REMARK    5  A    between atoms: C_17  and  C_19
REMARK    6  A    between atoms: C_19  and  C_22
REMARK                            x       y       z     vdW  Elec       q    Type
REMARK                         _______ _______ _______ _____ _____    ______ ____
ROOT
ATOM      1  C   UNL     1      -0.836  -3.175  -3.387  0.00  0.00    +0.007 C 
ATOM      2  C   UNL     1      -1.883  -4.227  -3.012  0.00  0.00    +0.024 C 
ATOM      3  C   UNL     1      -2.865  -4.402  -4.175  0.00  0.00    +0.108 C 
ATOM      4  N   UNL     1      -2.104  -4.715  -5.393  0.00  0.00    -0.300 N 
ATOM      5  C   UNL     1      -1.014  -3.817  -5.795  0.00  0.00    +0.108 C 
ATOM      6  C   UNL     1      -0.052  -3.648  -4.614  0.00  0.00    +0.024 C 
ATOM      7  C   UNL     1      -2.402  -5.806  -6.126  0.00  0.00    +0.236 C 
ATOM      8  O   UNL     1      -1.816  -6.015  -7.167  0.00  0.00    -0.274 OA
ENDROOT
BRANCH   7   9
ATOM      9  C   UNL     1      -3.463  -6.766  -5.653  0.00  0.00    +0.133 C 
ATOM     10  C   UNL     1      -3.013  -7.948  -4.792  0.00  0.00    +0.033 C 
ATOM     11  C   UNL     1      -3.450  -8.179  -6.240  0.00  0.00    +0.033 C 
BRANCH   9  12
ATOM     12  C   UNL     1      -4.773  -6.166  -5.353  0.00  0.00    +0.079 C 
ATOM     13  N   UNL     1      -5.785  -5.704  -5.122  0.00  0.00    -0.195 NA
ENDBRANCH   9  12
ENDBRANCH   7   9
BRANCH   1  14
ATOM     14  C   UNL     1       0.126  -2.973  -2.215  0.00  0.00    +0.109 C 
BRANCH  14  15
ATOM     15  N   UNL     1      -0.603  -2.407  -1.077  0.00  0.00    -0.189 NA
ATOM     16  H   UNL     1      -1.484  -2.022  -1.208  0.00  0.00    +0.148 HD
BRANCH  15  17
ATOM     17  S   UNL     1       0.076  -2.424   0.433  0.00  0.00    +0.065 S 
ATOM     18  O   UNL     1       0.543  -3.748   0.653  0.00  0.00    -0.153 OA
ATOM     19  O   UNL     1      -0.851  -1.789   1.303  0.00  0.00    -0.153 OA
BRANCH  17  24
ATOM     20  C   UNL     1       1.603  -0.062   0.621  0.00  0.00    +0.037 A 
ATOM     21  C   UNL     1       2.839   0.548   0.514  0.00  0.00    +0.025 A 
ATOM     22  C   UNL     1       3.914  -0.202   0.165  0.00  0.00    +0.057 A 
ATOM     23  S   UNL     1       3.188  -1.822  -0.024  0.00  0.00    -0.062 S 
ATOM     24  C   UNL     1       1.502  -1.391   0.374  0.00  0.00    +0.143 A 
ATOM     25 BR   UNL     1       5.715   0.330  -0.062  0.00  0.00    -0.043 Br
ENDBRANCH  17  24
ENDBRANCH  15  17
ENDBRANCH  14  15
ENDBRANCH   1  14
TORSDOF 6
