REMARK  Name = ZINC02364622
REMARK  6 active torsions:
REMARK  status: ('A' for Active; 'I' for Inactive)
REMARK    1  A    between atoms: C_4  and  C_7
REMARK    2  A    between atoms: C_12  and  C_13
REMARK    3  A    between atoms: C_16  and  O_20
REMARK    4  A    between atoms: C_18  and  O_19
REMARK    5  A    between atoms: O_20  and  C_21
REMARK    6  A    between atoms: C_21  and  C_22
REMARK                            x       y       z     vdW  Elec       q    Type
REMARK                         _______ _______ _______ _____ _____    ______ ____
ROOT
ATOM      1  C   UNL     1      -5.543   4.124   1.546  0.00  0.00    +0.043 A 
ATOM      2  C   UNL     1      -5.208   3.992   0.198  0.00  0.00    +0.017 A 
ATOM      3  C   UNL     1      -4.123   3.228  -0.170  0.00  0.00    +0.046 A 
ATOM      4  C   UNL     1      -3.366   2.577   0.798  0.00  0.00    +0.124 A 
ATOM      5  C   UNL     1      -3.691   2.702   2.140  0.00  0.00    +0.091 A 
ATOM      6  C   UNL     1      -4.777   3.473   2.521  0.00  0.00    +0.129 A 
ENDROOT
BRANCH   1  12
ATOM      7  C   UNL     1      -6.849   6.265   1.461  0.00  0.00    +0.026 A 
ATOM      8  C   UNL     1      -7.965   6.997   1.865  0.00  0.00    +0.125 A 
ATOM      9  N   UNL     1      -8.836   6.440   2.690  0.00  0.00    -0.222 NA
ATOM     10  C   UNL     1      -8.668   5.201   3.131  0.00  0.00    +0.213 A 
ATOM     11  N   UNL     1      -7.628   4.465   2.772  0.00  0.00    -0.214 NA
ATOM     12  C   UNL     1      -6.704   4.949   1.945  0.00  0.00    +0.087 A 
ATOM     13  N   UNL     1      -9.606   4.662   3.992  0.00  0.00    -0.327 N 
ATOM     14  H   UNL     1      -9.497   3.757   4.324  0.00  0.00    +0.145 HD
ATOM     15  H   UNL     1     -10.374   5.189   4.265  0.00  0.00    +0.145 HD
BRANCH   7  19
ATOM     16  C   UNL     1      -3.969   7.952  -1.172  0.00  0.00    +0.000 A 
ATOM     17  C   UNL     1      -5.299   7.899  -1.548  0.00  0.00    +0.001 A 
ATOM     18  C   UNL     1      -6.239   7.352  -0.698  0.00  0.00    +0.008 A 
ATOM     19  C   UNL     1      -5.845   6.853   0.543  0.00  0.00    -0.014 A 
ATOM     20  C   UNL     1      -4.504   6.914   0.919  0.00  0.00    +0.008 A 
ATOM     21  C   UNL     1      -3.572   7.458   0.058  0.00  0.00    +0.001 A 
ENDBRANCH   7  19
ENDBRANCH   1  12
BRANCH   6  22
ATOM     22  O   UNL     1      -5.097   3.596   3.834  0.00  0.00    -0.506 OA
ATOM     23  H   UNL     1      -4.666   4.340   4.276  0.00  0.00    +0.292 HD
ENDBRANCH   6  22
BRANCH   4  24
ATOM     24  O   UNL     1      -2.300   1.821   0.428  0.00  0.00    -0.487 OA
BRANCH  24  25
ATOM     25  C   UNL     1      -2.020   1.735  -0.971  0.00  0.00    +0.264 C 
BRANCH  25  26
ATOM     26  C   UNL     1      -0.812   0.860  -1.189  0.00  0.00    -0.010 A 
ATOM     27  C   UNL     1       0.451   1.420  -1.211  0.00  0.00    +0.008 A 
ATOM     28  C   UNL     1       1.559   0.620  -1.417  0.00  0.00    +0.020 A 
ATOM     29  C   UNL     1       1.403  -0.743  -1.600  0.00  0.00    +0.041 A 
ATOM     30  C   UNL     1       0.138  -1.303  -1.577  0.00  0.00    +0.020 A 
ATOM     31  C   UNL     1      -0.969  -0.501  -1.372  0.00  0.00    +0.008 A 
ATOM     32 CL   UNL     1       2.794  -1.750  -1.857  0.00  0.00    -0.084 Cl
ENDBRANCH  25  26
ENDBRANCH  24  25
ENDBRANCH   4  24
TORSDOF 6
