REMARK  Name = ZINC11348098
REMARK  11 active torsions:
REMARK  status: ('A' for Active; 'I' for Inactive)
REMARK    1  A    between atoms: C_1  and  C_2
REMARK    2  A    between atoms: C_2  and  C_3
REMARK    3  A    between atoms: C_8  and  N_9
REMARK    4  A    between atoms: C_10  and  C_12
REMARK    5  A    between atoms: C_12  and  N_13
REMARK    6  A    between atoms: N_13  and  C_14
REMARK    7  A    between atoms: C_15  and  C_17
REMARK    8  A    between atoms: C_17  and  C_19
REMARK    9  A    between atoms: C_17  and  S_20
REMARK   10  A    between atoms: S_20  and  C_21
REMARK   11  A    between atoms: C_24  and  C_26
REMARK                            x       y       z     vdW  Elec       q    Type
REMARK                         _______ _______ _______ _____ _____    ______ ____
ROOT
ATOM      1  C   UNL     1      -0.021   1.537  -0.007  0.00  0.00    +0.139 C 
ATOM      2  C   UNL     1      -0.001   0.007  -0.028  0.00  0.00    +0.029 C 
ENDROOT
BRANCH   1   5
ATOM      3  N   UNL     1       2.108   2.087   1.126  0.00  0.00    -0.295 N 
ATOM      4  C   UNL     1       1.511   1.610   2.376  0.00  0.00    +0.132 C 
ATOM      5  C   UNL     1       1.393   2.059  -0.016  0.00  0.00    +0.229 C 
ATOM      6  O   UNL     1       1.887   2.454  -1.051  0.00  0.00    -0.274 OA
BRANCH   3   7
ATOM      7  C   UNL     1       3.482   2.594   1.117  0.00  0.00    +0.203 C 
BRANCH   7   9
ATOM      8  N   UNL     1       4.632   4.763   1.422  0.00  0.00    -0.284 N 
ATOM      9  C   UNL     1       3.472   4.077   1.384  0.00  0.00    +0.235 C 
ATOM     10  O   UNL     1       2.420   4.654   1.563  0.00  0.00    -0.274 OA
ATOM     11  H   UNL     1       5.477   4.290   1.359  0.00  0.00    +0.155 HD
BRANCH   8  17
ATOM     12  C   UNL     1       5.713   6.815   2.094  0.00  0.00    -0.026 A 
ATOM     13  C   UNL     1       5.696   8.190   2.223  0.00  0.00    +0.005 A 
ATOM     14  C   UNL     1       4.588   8.910   1.815  0.00  0.00    +0.000 A 
ATOM     15  C   UNL     1       3.494   8.256   1.277  0.00  0.00    +0.002 A 
ATOM     16  C   UNL     1       3.508   6.882   1.141  0.00  0.00    +0.023 A 
ATOM     17  C   UNL     1       4.617   6.156   1.554  0.00  0.00    +0.037 A 
BRANCH  12  19
ATOM     18  C   UNL     1       7.842   5.790   1.339  0.00  0.00    +0.009 C 
ATOM     19  C   UNL     1       6.922   6.031   2.538  0.00  0.00    +0.033 C 
ENDBRANCH  12  19
ENDBRANCH   8  17
ENDBRANCH   7   9
ENDBRANCH   3   7
ENDBRANCH   1   5
BRANCH   1  20
ATOM     20  S   UNL     1      -0.899   2.148  -1.467  0.00  0.00    -0.053 S 
BRANCH  20  21
ATOM     21  C   UNL     1      -2.516   1.532  -1.132  0.00  0.00    +0.278 A 
ATOM     22  N   UNL     1      -2.876   0.829  -0.086  0.00  0.00    -0.101 NA
ATOM     23  N   UNL     1      -4.131   0.553  -0.166  0.00  0.00    -0.106 NA
ATOM     24  C   UNL     1      -4.619   1.062  -1.272  0.00  0.00    +0.251 A 
ATOM     25  O   UNL     1      -3.607   1.693  -1.907  0.00  0.00    -0.411 OA
BRANCH  24  26
ATOM     26  C   UNL     1      -6.016   0.964  -1.737  0.00  0.00    +0.063 A 
ATOM     27  C   UNL     1      -6.531   1.492  -2.878  0.00  0.00    +0.097 A 
ATOM     28  N   UNL     1      -7.858   1.189  -2.967  0.00  0.00    -0.360 N 
ATOM     29  H   UNL     1      -8.440   1.455  -3.696  0.00  0.00    +0.165 HD
ATOM     30  C   UNL     1      -8.254   0.454  -1.870  0.00  0.00    +0.047 A 
ATOM     31  C   UNL     1      -7.125   0.279  -1.052  0.00  0.00    +0.012 A 
ATOM     32  C   UNL     1      -7.232  -0.435   0.141  0.00  0.00    +0.011 A 
ATOM     33  C   UNL     1      -8.447  -0.967   0.510  0.00  0.00    +0.001 A 
ATOM     34  C   UNL     1      -9.563  -0.795  -0.297  0.00  0.00    +0.002 A 
ATOM     35  C   UNL     1      -9.472  -0.091  -1.478  0.00  0.00    +0.026 A 
ENDBRANCH  24  26
ENDBRANCH  20  21
ENDBRANCH   1  20
TORSDOF 8
