REMARK  Name = ZINC62491787
REMARK  13 active torsions:
REMARK  status: ('A' for Active; 'I' for Inactive)
REMARK    1  A    between atoms: C_1  and  C_2
REMARK    2  A    between atoms: C_2  and  O_3
REMARK    3  A    between atoms: O_3  and  C_4
REMARK    4  A    between atoms: C_9  and  N_10
REMARK    5  A    between atoms: N_13  and  C_16
REMARK    6  A    between atoms: C_16  and  C_18
REMARK    7  A    between atoms: C_16  and  C_19
REMARK    8  A    between atoms: N_21  and  C_22
REMARK    9  A    between atoms: C_23  and  C_33
REMARK   10  A    between atoms: C_28  and  C_32
REMARK   11  A    between atoms: C_33  and  O_35
REMARK   12  A    between atoms: O_35  and  C_36
REMARK   13  A    between atoms: C_36  and  C_37
REMARK                            x       y       z     vdW  Elec       q    Type
REMARK                         _______ _______ _______ _____ _____    ______ ____
ROOT
ATOM      1  C   UNL     1      -8.574  -0.413   1.402  0.00  0.00    +0.235 C 
ATOM      2  O   UNL     1      -7.815   0.085   2.206  0.00  0.00    -0.274 OA
ATOM      3  N   UNL     1      -9.888  -0.511   1.686  0.00  0.00    -0.278 N 
ATOM      4  H   UNL     1     -10.495  -0.909   1.043  0.00  0.00    +0.155 HD
ENDROOT
BRANCH   3   5
ATOM      5  C   UNL     1     -10.372  -0.042   2.897  0.00  0.00    +0.086 A 
ATOM      6  C   UNL     1     -11.680  -0.064   3.360  0.00  0.00    +0.091 A 
ATOM      7  C   UNL     1     -11.927   0.496   4.677  0.00  0.00    -0.021 A 
ATOM      8  C   UNL     1     -10.823   0.974   5.291  0.00  0.00    -0.004 A 
ATOM      9  S   UNL     1      -9.508   0.676   4.146  0.00  0.00    -0.077 S 
ATOM     10  C   UNL     1     -10.751   1.609   6.645  0.00  0.00    +0.046 C 
ATOM     11  C   UNL     1     -12.176   1.980   7.081  0.00  0.00    -0.009 C 
ATOM     12  C   UNL     1     -13.094   0.777   6.847  0.00  0.00    +0.008 C 
ATOM     13  C   UNL     1     -13.293   0.557   5.346  0.00  0.00    +0.037 C 
ATOM     14  C   UNL     1     -12.178   2.349   8.565  0.00  0.00    +0.008 C 
BRANCH   6  15
ATOM     15  C   UNL     1     -12.765  -0.627   2.553  0.00  0.00    +0.342 C 
ATOM     16  O   UNL     1     -13.047  -1.806   2.651  0.00  0.00    -0.245 OA
BRANCH  15  17
ATOM     17  O   UNL     1     -13.451   0.163   1.702  0.00  0.00    -0.461 OA
BRANCH  17  18
ATOM     18  C   UNL     1     -14.497  -0.453   0.947  0.00  0.00    +0.229 C 
ATOM     19  C   UNL     1     -15.156   0.591   0.043  0.00  0.00    +0.048 C 
ENDBRANCH  17  18
ENDBRANCH  15  17
ENDBRANCH   6  15
ENDBRANCH   3   5
BRANCH   1  20
ATOM     20  C   UNL     1      -8.049  -0.923   0.085  0.00  0.00    +0.140 C 
ATOM     21  C   UNL     1      -8.439   0.048  -1.031  0.00  0.00    +0.034 C 
BRANCH  20  25
ATOM     22  N   UNL     1      -3.908  -0.802  -0.588  0.00  0.00    -0.325 N 
ATOM     23  C   UNL     1      -4.454   0.153   0.388  0.00  0.00    +0.120 C 
ATOM     24  C   UNL     1      -5.959   0.299   0.137  0.00  0.00    +0.104 C 
ATOM     25  N   UNL     1      -6.585  -1.030   0.150  0.00  0.00    -0.289 NA
ATOM     26  C   UNL     1      -6.069  -1.873  -0.936  0.00  0.00    +0.104 C 
ATOM     27  C   UNL     1      -4.573  -2.105  -0.734  0.00  0.00    +0.120 C 
BRANCH  22  33
ATOM     28  C   UNL     1      -1.508  -0.777  -0.899  0.00  0.00    +0.141 A 
ATOM     29  C   UNL     1      -0.404  -0.458  -1.671  0.00  0.00    +0.047 A 
ATOM     30  C   UNL     1      -0.571   0.162  -2.896  0.00  0.00    +0.004 A 
ATOM     31  C   UNL     1      -1.840   0.466  -3.353  0.00  0.00    +0.002 A 
ATOM     32  C   UNL     1      -2.948   0.151  -2.588  0.00  0.00    +0.027 A 
ATOM     33  C   UNL     1      -2.787  -0.476  -1.361  0.00  0.00    +0.072 A 
BRANCH  28  34
ATOM     34  O   UNL     1      -1.344  -1.386   0.306  0.00  0.00    -0.490 OA
BRANCH  34  36
ATOM     35  C   UNL     1      -0.020  -2.346   2.086  0.00  0.00    +0.048 C 
ATOM     36  C   UNL     1      -0.004  -1.664   0.716  0.00  0.00    +0.226 C 
ENDBRANCH  34  36
ENDBRANCH  28  34
ENDBRANCH  22  33
ENDBRANCH  20  25
ENDBRANCH   1  20
TORSDOF 9
