REMARK  Name = ZINC40730526
REMARK  8 active torsions:
REMARK  status: ('A' for Active; 'I' for Inactive)
REMARK    1  A    between atoms: C_1  and  C_2
REMARK    2  A    between atoms: C_2  and  C_3
REMARK    3  A    between atoms: C_2  and  O_4
REMARK    4  A    between atoms: O_4  and  C_5
REMARK    5  A    between atoms: C_8  and  C_12
REMARK    6  A    between atoms: C_12  and  N_13
REMARK    7  A    between atoms: N_13  and  C_14
REMARK    8  A    between atoms: C_14  and  C_15
REMARK                            x       y       z     vdW  Elec       q    Type
REMARK                         _______ _______ _______ _____ _____    ______ ____
ROOT
ATOM      1  C   UNL     1      -2.257  -5.449  -2.516  0.00  0.00    -0.046 C 
ENDROOT
BRANCH   1   5
ATOM      2  C   UNL     1      -1.560  -1.693  -0.598  0.00  0.00    +0.149 A 
ATOM      3  C   UNL     1      -1.886  -1.735  -1.946  0.00  0.00    +0.061 A 
ATOM      4  C   UNL     1      -2.110  -2.951  -2.564  0.00  0.00    +0.020 A 
ATOM      5  C   UNL     1      -2.011  -4.125  -1.840  0.00  0.00    -0.062 A 
ATOM      6  C   UNL     1      -1.688  -4.086  -0.496  0.00  0.00    +0.020 A 
ATOM      7  C   UNL     1      -1.456  -2.873   0.125  0.00  0.00    +0.061 A 
ATOM      8 BR   UNL     1      -1.006  -2.821   1.961  0.00  0.00    -0.046 Br
ATOM      9 BR   UNL     1      -2.023  -0.131  -2.937  0.00  0.00    -0.046 Br
BRANCH   2  10
ATOM     10  O   UNL     1      -1.339  -0.499   0.012  0.00  0.00    -0.487 OA
BRANCH  10  12
ATOM     11  C   UNL     1      -0.019   1.526   0.010  0.00  0.00    +0.051 C 
ATOM     12  C   UNL     1       0.002  -0.004   0.002  0.00  0.00    +0.167 C 
ATOM     13  C   UNL     1       0.742  -0.511   1.242  0.00  0.00    +0.051 C 
ENDBRANCH  10  12
ENDBRANCH   2  10
ENDBRANCH   1   5
BRANCH   1  14
ATOM     14  N   UNL     1      -0.993  -5.965  -3.058  0.00  0.00    +0.384 N 
ATOM     15  H   UNL     1      -0.622  -5.308  -3.728  0.00  0.00    -0.085 HD
ATOM     16  H   UNL     1      -0.331  -6.088  -2.306  0.00  0.00    -0.085 HD
BRANCH  14  17
ATOM     17  C   UNL     1      -1.232  -7.255  -3.717  0.00  0.00    -0.046 C 
BRANCH  17  18
ATOM     18  C   UNL     1       0.065  -7.784  -4.272  0.00  0.00    -0.061 A 
ATOM     19  C   UNL     1       0.450  -7.454  -5.559  0.00  0.00    +0.005 A 
ATOM     20  C   UNL     1       1.639  -7.936  -6.072  0.00  0.00    +0.050 A 
ATOM     21  C   UNL     1       2.448  -8.752  -5.299  0.00  0.00    +0.166 A 
ATOM     22  C   UNL     1       2.061  -9.085  -4.003  0.00  0.00    +0.166 A 
ATOM     23  C   UNL     1       0.870  -8.593  -3.493  0.00  0.00    +0.051 A 
ATOM     24  O   UNL     1       3.017  -9.890  -3.455  0.00  0.00    -0.453 OA
ATOM     25  C   UNL     1       3.791 -10.379  -4.566  0.00  0.00    +0.466 C 
ATOM     26  O   UNL     1       3.647  -9.350  -5.562  0.00  0.00    -0.453 OA
ENDBRANCH  17  18
ENDBRANCH  14  17
ENDBRANCH   1  14
TORSDOF 6
