REMARK  Name = ZINC10342380
REMARK  9 active torsions:
REMARK  status: ('A' for Active; 'I' for Inactive)
REMARK    1  A    between atoms: C_1  and  C_2
REMARK    2  A    between atoms: C_2  and  C_3
REMARK    3  A    between atoms: N_9  and  S_10
REMARK    4  A    between atoms: S_10  and  C_13
REMARK    5  A    between atoms: C_16  and  N_19
REMARK    6  A    between atoms: N_19  and  S_20
REMARK    7  A    between atoms: S_20  and  C_23
REMARK    8  A    between atoms: C_26  and  O_29
REMARK    9  A    between atoms: O_29  and  C_30
REMARK                            x       y       z     vdW  Elec       q    Type
REMARK                         _______ _______ _______ _____ _____    ______ ____
ROOT
ATOM      1  C   UNL     1      -3.324   0.270  -1.953  0.00  0.00    +0.106 A 
ATOM      2  C   UNL     1      -3.373  -0.615  -0.891  0.00  0.00    +0.030 A 
ATOM      3  C   UNL     1      -4.554  -0.803  -0.200  0.00  0.00    +0.026 A 
ATOM      4  C   UNL     1      -5.696  -0.110  -0.580  0.00  0.00    +0.048 A 
ATOM      5  C   UNL     1      -5.645   0.774  -1.651  0.00  0.00    +0.026 A 
ATOM      6  C   UNL     1      -4.460   0.961  -2.333  0.00  0.00    +0.030 A 
ENDROOT
BRANCH   1   7
ATOM      7  S   UNL     1      -1.813   0.512  -2.827  0.00  0.00    +0.061 S 
ATOM      8  O   UNL     1      -2.150   1.146  -4.053  0.00  0.00    -0.153 OA
ATOM      9  O   UNL     1      -1.112  -0.723  -2.775  0.00  0.00    -0.153 OA
BRANCH   7  15
ATOM     10  C   UNL     1      -1.176   3.044  -2.075  0.00  0.00    +0.080 C 
ATOM     11  C   UNL     1      -1.397   3.618  -0.672  0.00  0.00    +0.021 C 
ATOM     12  C   UNL     1      -0.201   3.263   0.214  0.00  0.00    +0.003 C 
ATOM     13  C   UNL     1      -0.078   1.741   0.329  0.00  0.00    +0.017 C 
ATOM     14  C   UNL     1       0.154   1.146  -1.064  0.00  0.00    +0.110 C 
ATOM     15  N   UNL     1      -0.916   1.602  -1.961  0.00  0.00    -0.174 NA
BRANCH  10  17
ATOM     16  C   UNL     1      -2.765   4.765  -2.942  0.00  0.00    +0.005 C 
ATOM     17  C   UNL     1      -2.424   3.274  -2.929  0.00  0.00    +0.017 C 
ENDBRANCH  10  17
ENDBRANCH   7  15
ENDBRANCH   1   7
BRANCH   4  18
ATOM     18  N   UNL     1      -6.894  -0.302   0.112  0.00  0.00    -0.216 N 
ATOM     19  H   UNL     1      -7.427   0.462   0.381  0.00  0.00    +0.174 HD
BRANCH  18  20
ATOM     20  S   UNL     1      -7.404  -1.836   0.475  0.00  0.00    +0.072 S 
ATOM     21  O   UNL     1      -6.319  -2.481   1.128  0.00  0.00    -0.150 OA
ATOM     22  O   UNL     1      -8.686  -1.706   1.073  0.00  0.00    -0.150 OA
BRANCH  20  23
ATOM     23  C   UNL     1      -7.644  -2.679  -1.053  0.00  0.00    +0.109 A 
ATOM     24  C   UNL     1      -8.844  -2.554  -1.730  0.00  0.00    +0.032 A 
ATOM     25  C   UNL     1      -9.033  -3.210  -2.930  0.00  0.00    +0.048 A 
ATOM     26  C   UNL     1      -8.022  -4.004  -3.452  0.00  0.00    +0.130 A 
ATOM     27  C   UNL     1      -6.822  -4.133  -2.769  0.00  0.00    +0.048 A 
ATOM     28  C   UNL     1      -6.636  -3.470  -1.571  0.00  0.00    +0.032 A 
BRANCH  26  29
ATOM     29  O   UNL     1      -8.208  -4.655  -4.631  0.00  0.00    -0.406 OA
BRANCH  29  30
ATOM     30  C   UNL     1      -9.469  -4.476  -5.279  0.00  0.00    +0.575 C 
ATOM     31  F   UNL     1      -9.658  -3.120  -5.564  0.00  0.00    -0.133 F 
ATOM     32  F   UNL     1      -9.489  -5.210  -6.470  0.00  0.00    -0.133 F 
ATOM     33  F   UNL     1     -10.493  -4.923  -4.438  0.00  0.00    -0.133 F 
ENDBRANCH  29  30
ENDBRANCH  26  29
ENDBRANCH  20  23
ENDBRANCH  18  20
ENDBRANCH   4  18
TORSDOF 8
