REMARK  Name = ZINC13639565
REMARK  6 active torsions:
REMARK  status: ('A' for Active; 'I' for Inactive)
REMARK    1  A    between atoms: C_4  and  N_7
REMARK    2  A    between atoms: N_7  and  S_8
REMARK    3  A    between atoms: S_8  and  C_11
REMARK    4  A    between atoms: C_24  and  C_27
REMARK    5  A    between atoms: C_30  and  O_34
REMARK    6  A    between atoms: C_32  and  O_33
REMARK                            x       y       z     vdW  Elec       q    Type
REMARK                         _______ _______ _______ _____ _____    ______ ____
ROOT
ATOM      1  C   UNL     1      -0.767   1.856   1.428  0.00  0.00    +0.109 A 
ATOM      2  C   UNL     1      -0.659   3.135   1.944  0.00  0.00    +0.030 A 
ATOM      3  C   UNL     1      -1.321   3.471   3.106  0.00  0.00    +0.025 A 
ATOM      4  C   UNL     1      -2.092   2.527   3.774  0.00  0.00    +0.031 A 
ATOM      5  C   UNL     1      -2.203   1.238   3.242  0.00  0.00    -0.018 A 
ATOM      6  C   UNL     1      -1.537   0.911   2.081  0.00  0.00    +0.034 A 
ATOM      7  C   UNL     1      -3.065   0.275   3.961  0.00  0.00    +0.049 C 
ATOM      8  C   UNL     1      -2.853  -1.192   3.866  0.00  0.00    -0.023 C 
ATOM      9  C   UNL     1      -3.226  -1.750   5.011  0.00  0.00    -0.030 C 
ATOM     10  C   UNL     1      -3.695  -0.672   5.990  0.00  0.00    +0.033 C 
ATOM     11  C   UNL     1      -2.925   0.557   5.487  0.00  0.00    +0.029 C 
ATOM     12  C   UNL     1      -3.567   1.915   5.709  0.00  0.00    +0.108 C 
ATOM     13  N   UNL     1      -2.722   2.881   4.973  0.00  0.00    -0.336 N 
ATOM     14  H   UNL     1      -2.603   3.775   5.328  0.00  0.00    +0.147 HD
ENDROOT
BRANCH  12  15
ATOM     15  C   UNL     1      -4.969   1.924   5.157  0.00  0.00    +0.015 A 
ATOM     16  C   UNL     1      -5.196   2.323   3.853  0.00  0.00    +0.012 A 
ATOM     17  C   UNL     1      -6.480   2.332   3.345  0.00  0.00    +0.046 A 
ATOM     18  C   UNL     1      -7.547   1.940   4.142  0.00  0.00    +0.120 A 
ATOM     19  C   UNL     1      -7.322   1.540   5.450  0.00  0.00    +0.091 A 
ATOM     20  C   UNL     1      -6.031   1.526   5.956  0.00  0.00    +0.125 A 
BRANCH  20  21
ATOM     21  O   UNL     1      -5.807   1.128   7.237  0.00  0.00    -0.506 OA
ATOM     22  H   UNL     1      -5.846   1.846   7.884  0.00  0.00    +0.292 HD
ENDBRANCH  20  21
BRANCH  18  23
ATOM     23  O   UNL     1      -8.810   1.949   3.641  0.00  0.00    -0.507 OA
ATOM     24  H   UNL     1      -9.073   1.117   3.223  0.00  0.00    +0.292 HD
ENDBRANCH  18  23
ENDBRANCH  12  15
BRANCH   1  25
ATOM     25  S   UNL     1       0.082   1.429  -0.056  0.00  0.00    +0.072 S 
ATOM     26  O   UNL     1       0.370   0.040   0.026  0.00  0.00    -0.150 OA
ATOM     27  O   UNL     1       1.095   2.408  -0.240  0.00  0.00    -0.150 OA
BRANCH  25  28
ATOM     28  N   UNL     1      -0.991   1.617  -1.304  0.00  0.00    -0.216 N 
ATOM     29  H   UNL     1      -1.262   0.848  -1.830  0.00  0.00    +0.174 HD
BRANCH  28  33
ATOM     30  C   UNL     1      -2.521   5.387  -2.187  0.00  0.00    +0.000 A 
ATOM     31  C   UNL     1      -1.222   5.069  -2.541  0.00  0.00    +0.002 A 
ATOM     32  C   UNL     1      -0.711   3.820  -2.249  0.00  0.00    +0.024 A 
ATOM     33  C   UNL     1      -1.504   2.882  -1.600  0.00  0.00    +0.048 A 
ATOM     34  C   UNL     1      -2.809   3.202  -1.251  0.00  0.00    +0.024 A 
ATOM     35  C   UNL     1      -3.312   4.455  -1.540  0.00  0.00    +0.002 A 
ENDBRANCH  28  33
ENDBRANCH  25  28
ENDBRANCH   1  25
TORSDOF 6
