REMARK  Name = ZINC03876358
REMARK  3 active torsions:
REMARK  status: ('A' for Active; 'I' for Inactive)
REMARK    1  A    between atoms: C_4  and  C_7
REMARK    2  A    between atoms: C_20  and  C_24
REMARK    3  A    between atoms: C_28  and  N_30
REMARK                            x       y       z     vdW  Elec       q    Type
REMARK                         _______ _______ _______ _____ _____    ______ ____
ROOT
ATOM      1  C   UNL     1       3.595  -0.910  -0.115  0.00  0.00    +0.005 C 
ATOM      2  C   UNL     1       4.428  -0.877  -1.257  0.00  0.00    +0.006 A 
ATOM      3  C   UNL     1       3.940  -0.390  -2.480  0.00  0.00    +0.025 A 
ATOM      4  C   UNL     1       4.755  -0.364  -3.572  0.00  0.00    +0.019 A 
ATOM      5  C   UNL     1       6.071  -0.816  -3.490  0.00  0.00    +0.017 A 
ATOM      6  C   UNL     1       6.576  -1.293  -2.319  0.00  0.00    +0.025 A 
ATOM      7  C   UNL     1       5.766  -1.336  -1.170  0.00  0.00    +0.042 A 
ATOM      8  N   UNL     1       6.263  -1.805  -0.019  0.00  0.00    -0.281 N 
ATOM      9  C   UNL     1       5.540  -1.867   1.089  0.00  0.00    +0.250 C 
ATOM     10  O   UNL     1       6.038  -2.304   2.117  0.00  0.00    -0.270 OA
ATOM     11  C   UNL     1       4.141  -1.405   1.093  0.00  0.00    +0.063 C 
ATOM     12  C   UNL     1       3.373  -1.458   2.257  0.00  0.00    +0.033 C 
ATOM     13  C   UNL     1       3.786  -2.099   3.570  0.00  0.00    +0.077 C 
ATOM     14  C   UNL     1       2.742  -1.522   4.558  0.00  0.00    +0.108 C 
ATOM     15  N   UNL     1       1.621  -1.185   3.650  0.00  0.00    -0.235 NA
ATOM     16  N   UNL     1       2.144  -0.948   2.413  0.00  0.00    -0.283 N 
ATOM     17 BR   UNL     1       4.093   0.292  -5.218  0.00  0.00    -0.050 Br
ATOM     18  H   UNL     1       1.114  -0.380   3.985  0.00  0.00    +0.145 HD
ATOM     19  H   UNL     1       1.674  -0.463   1.717  0.00  0.00    +0.166 HD
ATOM     20  H   UNL     1       7.183  -2.111   0.004  0.00  0.00    +0.155 HD
ENDROOT
BRANCH   1  24
ATOM     21  C   UNL     1      -0.423   0.449  -0.302  0.00  0.00    +0.000 A 
ATOM     22  C   UNL     1       0.613   1.365  -0.285  0.00  0.00    +0.001 A 
ATOM     23  C   UNL     1       1.921   0.931  -0.224  0.00  0.00    +0.008 A 
ATOM     24  C   UNL     1       2.198  -0.438  -0.179  0.00  0.00    -0.016 A 
ATOM     25  C   UNL     1       1.146  -1.358  -0.196  0.00  0.00    +0.008 A 
ATOM     26  C   UNL     1      -0.157  -0.909  -0.257  0.00  0.00    +0.001 A 
ENDBRANCH   1  24
BRANCH  14  27
ATOM     27  C   UNL     1       2.325  -2.560   5.568  0.00  0.00    -0.026 A 
ATOM     28  C   UNL     1       1.397  -3.525   5.225  0.00  0.00    +0.005 A 
ATOM     29  C   UNL     1       1.015  -4.477   6.152  0.00  0.00    +0.003 A 
ATOM     30  C   UNL     1       1.562  -4.464   7.421  0.00  0.00    +0.033 A 
ATOM     31  C   UNL     1       2.490  -3.500   7.764  0.00  0.00    +0.127 A 
ATOM     32  C   UNL     1       2.876  -2.550   6.836  0.00  0.00    +0.038 A 
BRANCH  31  33
ATOM     33  N   UNL     1       3.075  -3.485   9.124  0.00  0.00    +0.056 N 
ATOM     34  O   UNL     1       2.740  -4.317   9.934  0.00  0.00    -0.126 OA
ATOM     35  O   UNL     1       3.888  -2.642   9.423  0.00  0.00    -0.126 OA
ENDBRANCH  31  33
ENDBRANCH  14  27
TORSDOF 3
