REMARK  Name = ZINC22075214
REMARK  12 active torsions:
REMARK  status: ('A' for Active; 'I' for Inactive)
REMARK    1  A    between atoms: C_1  and  C_2
REMARK    2  A    between atoms: C_2  and  C_4
REMARK    3  A    between atoms: C_2  and  O_29
REMARK    4  A    between atoms: C_4  and  N_5
REMARK    5  A    between atoms: N_5  and  C_6
REMARK    6  A    between atoms: C_6  and  C_7
REMARK    7  A    between atoms: C_7  and  N_8
REMARK    8  A    between atoms: N_8  and  C_9
REMARK    9  A    between atoms: C_9  and  C_10
REMARK   10  A    between atoms: C_19  and  O_20
REMARK   11  A    between atoms: O_20  and  C_21
REMARK   12  A    between atoms: C_21  and  C_22
REMARK                            x       y       z     vdW  Elec       q    Type
REMARK                         _______ _______ _______ _____ _____    ______ ____
ROOT
ATOM      1  C   UNL     1       2.953  -6.451   4.818  0.00  0.00    -0.015 A 
ATOM      2  C   UNL     1       4.340  -6.662   4.775  0.00  0.00    -0.013 A 
ATOM      3  C   UNL     1       5.079  -6.415   3.605  0.00  0.00    +0.009 A 
ATOM      4  C   UNL     1       6.423  -6.630   3.599  0.00  0.00    +0.001 A 
ATOM      5  C   UNL     1       7.081  -7.093   4.737  0.00  0.00    +0.001 A 
ATOM      6  C   UNL     1       6.398  -7.342   5.888  0.00  0.00    +0.008 A 
ATOM      7  C   UNL     1       5.009  -7.131   5.933  0.00  0.00    -0.017 A 
ATOM      8  C   UNL     1       4.272  -7.378   7.105  0.00  0.00    +0.012 A 
ATOM      9  C   UNL     1       2.929  -7.163   7.114  0.00  0.00    +0.046 A 
ATOM     10  C   UNL     1       2.268  -6.696   5.974  0.00  0.00    +0.123 A 
ENDROOT
BRANCH   1  11
ATOM     11  C   UNL     1       2.224  -5.952   3.597  0.00  0.00    -0.043 C 
BRANCH  11  12
ATOM     12  N   UNL     1       2.204  -4.483   3.605  0.00  0.00    +0.381 N 
ATOM     13  H   UNL     1       3.150  -4.134   3.598  0.00  0.00    -0.086 HD
ATOM     14  H   UNL     1       1.731  -4.157   4.435  0.00  0.00    -0.086 HD
BRANCH  12  15
ATOM     15  C   UNL     1       1.493  -3.996   2.415  0.00  0.00    -0.102 C 
BRANCH  15  16
ATOM     16  C   UNL     1       1.472  -2.466   2.424  0.00  0.00    -0.102 C 
BRANCH  16  17
ATOM     17  N   UNL     1       0.762  -1.980   1.234  0.00  0.00    +0.379 N 
ATOM     18  H   UNL     1      -0.185  -2.329   1.241  0.00  0.00    -0.086 HD
ATOM     19  H   UNL     1       1.234  -2.305   0.403  0.00  0.00    -0.086 HD
BRANCH  17  20
ATOM     20  C   UNL     1       0.742  -0.511   1.242  0.00  0.00    -0.051 C 
BRANCH  20  22
ATOM     21  C   UNL     1      -0.019   1.526   0.010  0.00  0.00    +0.035 C 
ATOM     22  C   UNL     1       0.002  -0.004   0.002  0.00  0.00    +0.095 C 
BRANCH  22  23
ATOM     23  O   UNL     1       0.671  -0.465  -1.174  0.00  0.00    -0.394 OA
ATOM     24  H   UNL     1       0.256  -0.181  -1.999  0.00  0.00    +0.210 HD
ENDBRANCH  22  23
ENDBRANCH  20  22
ENDBRANCH  17  20
ENDBRANCH  16  17
ENDBRANCH  15  16
ENDBRANCH  12  15
ENDBRANCH  11  12
ENDBRANCH   1  11
BRANCH  10  25
ATOM     25  O   UNL     1       0.926  -6.486   6.016  0.00  0.00    -0.487 OA
BRANCH  25  26
ATOM     26  C   UNL     1       0.265  -6.759   7.253  0.00  0.00    +0.264 C 
BRANCH  26  27
ATOM     27  C   UNL     1      -1.207  -6.471   7.111  0.00  0.00    -0.010 A 
ATOM     28  C   UNL     1      -1.694  -5.207   7.390  0.00  0.00    +0.008 A 
ATOM     29  C   UNL     1      -3.044  -4.942   7.260  0.00  0.00    +0.020 A 
ATOM     30  C   UNL     1      -3.908  -5.941   6.850  0.00  0.00    +0.041 A 
ATOM     31  C   UNL     1      -3.421  -7.206   6.570  0.00  0.00    +0.020 A 
ATOM     32  C   UNL     1      -2.070  -7.468   6.696  0.00  0.00    +0.008 A 
ATOM     33 CL   UNL     1      -5.604  -5.609   6.686  0.00  0.00    -0.084 Cl
ENDBRANCH  26  27
ENDBRANCH  25  26
ENDBRANCH  10  25
TORSDOF 11
