REMARK  Name = ZINC41895192
REMARK  5 active torsions:
REMARK  status: ('A' for Active; 'I' for Inactive)
REMARK    1  A    between atoms: C_4  and  N_7
REMARK    2  A    between atoms: C_10  and  C_13
REMARK    3  A    between atoms: C_13  and  N_14
REMARK    4  A    between atoms: C_15  and  C_17
REMARK    5  A    between atoms: N_19  and  C_20
REMARK                            x       y       z     vdW  Elec       q    Type
REMARK                         _______ _______ _______ _____ _____    ______ ____
ROOT
ATOM      1  N   UNL     1       7.069  -3.828   0.868  0.00  0.00    -0.307 N 
ATOM      2  C   UNL     1       7.583  -4.845   1.587  0.00  0.00    +0.299 C 
ATOM      3  O   UNL     1       6.850  -5.550   2.250  0.00  0.00    -0.265 OA
ATOM      4  H   UNL     1       7.654  -3.264   0.338  0.00  0.00    +0.149 HD
ENDROOT
BRANCH   2   5
ATOM      5  C   UNL     1       9.053  -5.105   1.567  0.00  0.00    +0.303 C 
ATOM      6  O   UNL     1       9.785  -4.400   0.904  0.00  0.00    -0.265 OA
ATOM      7  N   UNL     1       9.567  -6.123   2.286  0.00  0.00    -0.275 N 
ATOM      8  H   UNL     1       8.992  -6.646   2.866  0.00  0.00    +0.155 HD
BRANCH   7   9
ATOM      9  C   UNL     1      10.929  -6.425   2.195  0.00  0.00    +0.071 A 
ATOM     10  C   UNL     1      11.858  -5.407   2.020  0.00  0.00    +0.046 A 
ATOM     11  C   UNL     1      13.204  -5.709   1.931  0.00  0.00    +0.043 A 
ATOM     12  C   UNL     1      13.627  -7.024   2.016  0.00  0.00    +0.023 A 
ATOM     13  C   UNL     1      12.706  -8.040   2.191  0.00  0.00    +0.041 A 
ATOM     14  C   UNL     1      11.358  -7.745   2.286  0.00  0.00    +0.145 A 
ATOM     15  F   UNL     1      10.459  -8.738   2.462  0.00  0.00    -0.204 F 
ATOM     16 CL   UNL     1      14.364  -4.437   1.711  0.00  0.00    -0.083 Cl
ENDBRANCH   7   9
ENDBRANCH   2   5
BRANCH   1  17
ATOM     17  C   UNL     1       5.626  -3.572   0.887  0.00  0.00    +0.109 C 
BRANCH  17  21
ATOM     18  N   UNL     1       3.636  -0.613   0.009  0.00  0.00    -0.330 N 
ATOM     19  C   UNL     1       4.973   0.008  -0.000  0.00  0.00    +0.105 C 
ATOM     20  C   UNL     1       5.916  -1.072   0.587  0.00  0.00    +0.025 C 
ATOM     21  C   UNL     1       5.309  -2.371  -0.005  0.00  0.00    +0.025 C 
ATOM     22  C   UNL     1       3.794  -2.074  -0.004  0.00  0.00    +0.110 C 
BRANCH  18  26
ATOM     23  C   UNL     1       0.011   1.434   0.080  0.00  0.00    +0.000 A 
ATOM     24  C   UNL     1       1.200   2.139   0.068  0.00  0.00    +0.002 A 
ATOM     25  C   UNL     1       2.405   1.463   0.044  0.00  0.00    +0.023 A 
ATOM     26  C   UNL     1       2.420   0.074   0.033  0.00  0.00    +0.030 A 
ATOM     27  C   UNL     1       1.223  -0.630   0.046  0.00  0.00    +0.023 A 
ATOM     28  C   UNL     1       0.022   0.052   0.070  0.00  0.00    +0.002 A 
ENDBRANCH  18  26
ENDBRANCH  17  21
ENDBRANCH   1  17
TORSDOF 5
