REMARK  Name = ZINC13499624
REMARK  14 active torsions:
REMARK  status: ('A' for Active; 'I' for Inactive)
REMARK    1  A    between atoms: C_1  and  C_2
REMARK    2  A    between atoms: C_2  and  C_3
REMARK    3  A    between atoms: C_3  and  C_4
REMARK    4  A    between atoms: C_4  and  C_6
REMARK    5  A    between atoms: C_4  and  N_69
REMARK    6  A    between atoms: N_10  and  C_11
REMARK    7  A    between atoms: C_11  and  C_12
REMARK    8  A    between atoms: C_12  and  O_13
REMARK    9  A    between atoms: O_13  and  C_14
REMARK   10  A    between atoms: C_15  and  C_16
REMARK   11  A    between atoms: C_15  and  N_69
REMARK   12  A    between atoms: C_19  and  C_29
REMARK   13  A    between atoms: C_21  and  C_28
REMARK   14  A    between atoms: C_30  and  N_69
REMARK                            x       y       z     vdW  Elec       q    Type
REMARK                         _______ _______ _______ _____ _____    ______ ____
ROOT
ATOM      1  N   UNL     1      -3.149   0.960  -1.394  0.00  0.00    +0.391 N 
ATOM      2  H   UNL     1      -2.245   0.661  -1.777  0.00  0.00    -0.080 HD
ENDROOT
BRANCH   1   3
ATOM      3  C   UNL     1      -3.615   2.150  -2.136  0.00  0.00    -0.067 C 
ATOM      4  C   UNL     1      -5.017   2.586  -1.662  0.00  0.00    -0.015 C 
ATOM      5  C   UNL     1      -5.726   3.056  -2.958  0.00  0.00    -0.002 C 
ATOM      6  C   UNL     1      -5.218   2.043  -4.013  0.00  0.00    -0.002 C 
ATOM      7  C   UNL     1      -3.743   1.805  -3.631  0.00  0.00    -0.015 C 
ENDBRANCH   1   3
BRANCH   1   8
ATOM      8  C   UNL     1      -4.122  -0.143  -1.545  0.00  0.00    +0.003 C 
BRANCH   8   9
ATOM      9  C   UNL     1      -5.196  -0.044  -0.492  0.00  0.00    +0.138 A 
ATOM     10  N   UNL     1      -5.017   0.128   0.795  0.00  0.00    -0.115 NA
ATOM     11  N   UNL     1      -6.176   0.162   1.357  0.00  0.00    -0.023 NA
ATOM     12  N   UNL     1      -7.089   0.015   0.462  0.00  0.00    -0.044 NA
ATOM     13  N   UNL     1      -6.525  -0.109  -0.692  0.00  0.00    -0.229 N 
BRANCH  13  14
ATOM     14  C   UNL     1      -7.205  -0.291  -1.977  0.00  0.00    +0.175 C 
BRANCH  14  15
ATOM     15  C   UNL     1      -7.398  -1.785  -2.245  0.00  0.00    +0.183 C 
BRANCH  15  16
ATOM     16  O   UNL     1      -8.060  -1.962  -3.499  0.00  0.00    -0.381 OA
ATOM     17  C   UNL     1      -8.290  -3.329  -3.847  0.00  0.00    +0.194 C 
ENDBRANCH  15  16
ENDBRANCH  14  15
ENDBRANCH  13  14
ENDBRANCH   8   9
BRANCH   8  18
ATOM     18  C   UNL     1      -3.380  -1.472  -1.393  0.00  0.00    -0.008 C 
BRANCH  18  20
ATOM     19  C   UNL     1      -1.714  -3.005  -2.450  0.00  0.00    +0.004 C 
ATOM     20  C   UNL     1      -2.368  -1.624  -2.530  0.00  0.00    -0.005 C 
ENDBRANCH  18  20
ENDBRANCH   8  18
ENDBRANCH   1   8
BRANCH   1  21
ATOM     21  C   UNL     1      -2.979   1.291   0.036  0.00  0.00    -0.036 C 
BRANCH  21  22
ATOM     22  C   UNL     1      -1.736   2.128   0.194  0.00  0.00    +0.001 A 
ATOM     23  C   UNL     1      -1.838   3.477   0.294  0.00  0.00    +0.017 A 
ATOM     24  C   UNL     1      -0.611   4.262   0.440  0.00  0.00    +0.002 A 
ATOM     25  C   UNL     1      -0.652   5.657   0.542  0.00  0.00    -0.041 A 
ATOM     26  C   UNL     1       0.510   6.361   0.678  0.00  0.00    +0.007 A 
ATOM     27  C   UNL     1       1.733   5.704   0.715  0.00  0.00    -0.048 A 
ATOM     28  C   UNL     1       1.798   4.331   0.617  0.00  0.00    +0.029 A 
ATOM     29  C   UNL     1       0.627   3.593   0.478  0.00  0.00    +0.050 A 
ATOM     30  N   UNL     1       0.662   2.219   0.377  0.00  0.00    -0.322 N 
ATOM     31  H   UNL     1       1.516   1.759   0.404  0.00  0.00    +0.169 HD
ATOM     32  C   UNL     1      -0.470   1.506   0.243  0.00  0.00    +0.251 A 
ATOM     33  O   UNL     1      -0.401   0.292   0.156  0.00  0.00    -0.268 OA
ATOM     34  C   UNL     1       3.003   6.502   0.865  0.00  0.00    +0.044 C 
ATOM     35  C   UNL     1      -1.974   6.380   0.501  0.00  0.00    +0.044 C 
ENDBRANCH  21  22
ENDBRANCH   1  21
TORSDOF 10
