REMARK  Name = ZINC02867888
REMARK  3 active torsions:
REMARK  status: ('A' for Active; 'I' for Inactive)
REMARK    1  A    between atoms: C_8  and  C_18
REMARK    2  A    between atoms: C_10  and  C_12
REMARK    3  A    between atoms: N_20  and  C_21
REMARK                            x       y       z     vdW  Elec       q    Type
REMARK                         _______ _______ _______ _____ _____    ______ ____
ROOT
ATOM      1  C   UNL     1      -1.235   3.140  -0.015  0.00  0.00    +0.022 A 
ATOM      2  C   UNL     1      -0.087   3.871  -0.007  0.00  0.00    +0.030 A 
ATOM      3  C   UNL     1       1.158   3.214  -0.007  0.00  0.00    +0.072 A 
ATOM      4  C   UNL     1       1.186   1.796  -0.016  0.00  0.00    +0.014 A 
ATOM      5  C   UNL     1      -0.013   1.076  -0.025  0.00  0.00    +0.030 A 
ATOM      6  C   UNL     1      -1.201   1.747  -0.030  0.00  0.00    +0.042 A 
ATOM      7 CL   UNL     1      -2.690   0.853  -0.048  0.00  0.00    -0.084 Cl
ATOM      8  C   UNL     1       2.484   1.120  -0.016  0.00  0.00    +0.048 A 
ATOM      9  C   UNL     1       3.618   1.920  -0.009  0.00  0.00    +0.042 A 
ATOM     10  C   UNL     1       3.477   3.315  -0.000  0.00  0.00    +0.072 A 
ATOM     11  N   UNL     1       2.300   3.903   0.000  0.00  0.00    -0.247 NA
ENDROOT
BRANCH  10  12
ATOM     12  C   UNL     1       4.698   4.158   0.009  0.00  0.00    +0.003 A 
ATOM     13  C   UNL     1       5.970   3.579   0.015  0.00  0.00    +0.030 A 
ATOM     14  C   UNL     1       7.079   4.401   0.018  0.00  0.00    +0.111 A 
ATOM     15  N   UNL     1       6.950   5.713   0.026  0.00  0.00    -0.263 NA
ATOM     16  C   UNL     1       5.768   6.299   0.026  0.00  0.00    +0.111 A 
ATOM     17  C   UNL     1       4.607   5.553   0.018  0.00  0.00    +0.030 A 
ENDBRANCH  10  12
BRANCH   8  18
ATOM     18  C   UNL     1       2.583  -0.355  -0.025  0.00  0.00    +0.245 C 
ATOM     19  O   UNL     1       1.578  -1.032   0.073  0.00  0.00    -0.270 OA
ATOM     20  N   UNL     1       3.787  -0.949  -0.142  0.00  0.00    -0.308 N 
ATOM     21  H   UNL     1       4.589  -0.409  -0.220  0.00  0.00    +0.149 HD
BRANCH  20  22
ATOM     22  C   UNL     1       3.885  -2.411  -0.151  0.00  0.00    +0.079 C 
ATOM     23  C   UNL     1       3.934  -2.928   1.288  0.00  0.00    +0.010 C 
ATOM     24  C   UNL     1       4.036  -4.454   1.279  0.00  0.00    +0.009 C 
ATOM     25  C   UNL     1       5.309  -4.875   0.543  0.00  0.00    -0.010 C 
ATOM     26  C   UNL     1       6.529  -4.287   1.255  0.00  0.00    +0.007 C 
ATOM     27  C   UNL     1       6.426  -2.760   1.264  0.00  0.00    -0.010 C 
ATOM     28  C   UNL     1       5.153  -2.339   2.001  0.00  0.00    +0.009 C 
ATOM     29  C   UNL     1       6.378  -2.244  -0.175  0.00  0.00    +0.009 C 
ATOM     30  C   UNL     1       5.159  -2.832  -0.887  0.00  0.00    +0.010 C 
ATOM     31  C   UNL     1       5.261  -4.359  -0.897  0.00  0.00    +0.009 C 
ENDBRANCH  20  22
ENDBRANCH   8  18
TORSDOF 3
