REMARK  Name = ZINC36537505
REMARK  12 active torsions:
REMARK  status: ('A' for Active; 'I' for Inactive)
REMARK    1  A    between atoms: C_1  and  C_2
REMARK    2  A    between atoms: C_5  and  S_8
REMARK    3  A    between atoms: S_8  and  C_11
REMARK    4  A    between atoms: C_11  and  N_12
REMARK    5  A    between atoms: C_13  and  C_15
REMARK    6  A    between atoms: C_15  and  C_17
REMARK    7  A    between atoms: C_15  and  N_25
REMARK    8  A    between atoms: C_20  and  C_24
REMARK    9  A    between atoms: C_22  and  C_23
REMARK   10  A    between atoms: N_25  and  C_26
REMARK   11  A    between atoms: C_27  and  C_29
REMARK   12  A    between atoms: C_33  and  N_35
REMARK                            x       y       z     vdW  Elec       q    Type
REMARK                         _______ _______ _______ _____ _____    ______ ____
ROOT
ATOM      1  C   UNL     1       3.415  -5.041   3.525  0.00  0.00    +0.192 C 
ENDROOT
BRANCH   1   2
ATOM      2  C   UNL     1       4.739  -4.488   3.062  0.00  0.00    -0.015 A 
ATOM      3  C   UNL     1       5.095  -4.574   1.729  0.00  0.00    +0.006 A 
ATOM      4  C   UNL     1       6.309  -4.067   1.304  0.00  0.00    +0.004 A 
ATOM      5  C   UNL     1       7.166  -3.474   2.213  0.00  0.00    -0.050 A 
ATOM      6  C   UNL     1       6.810  -3.388   3.545  0.00  0.00    +0.007 A 
ATOM      7  C   UNL     1       5.593  -3.891   3.969  0.00  0.00    -0.045 A 
ATOM      8  C   UNL     1       5.202  -3.793   5.421  0.00  0.00    +0.044 C 
ATOM      9  C   UNL     1       8.490  -2.923   1.750  0.00  0.00    +0.044 C 
ENDBRANCH   1   2
BRANCH   1  11
ATOM     10  N   UNL     1       2.051  -4.258   1.616  0.00  0.00    -0.294 N 
ATOM     11  C   UNL     1       2.531  -5.294   2.331  0.00  0.00    +0.239 C 
ATOM     12  O   UNL     1       2.252  -6.431   2.013  0.00  0.00    -0.273 OA
ATOM     13  H   UNL     1       2.206  -3.348   1.915  0.00  0.00    +0.150 HD
BRANCH  10  14
ATOM     14  C   UNL     1       1.295  -4.504   0.386  0.00  0.00    +0.278 C 
BRANCH  14  15
ATOM     15  S   UNL     1      -0.481  -4.508   0.758  0.00  0.00    +0.013 S 
ATOM     16  O   UNL     1      -0.739  -5.313   1.900  0.00  0.00    -0.168 OA
ATOM     17  O   UNL     1      -1.231  -4.684  -0.436  0.00  0.00    -0.168 OA
BRANCH  15  22
ATOM     18  C   UNL     1      -1.710   1.125   2.534  0.00  0.00    +0.044 C 
ATOM     19  C   UNL     1      -1.403  -0.282   2.091  0.00  0.00    -0.050 A 
ATOM     20  C   UNL     1      -1.499  -0.622   0.754  0.00  0.00    +0.005 A 
ATOM     21  C   UNL     1      -1.218  -1.913   0.347  0.00  0.00    +0.027 A 
ATOM     22  C   UNL     1      -0.839  -2.863   1.276  0.00  0.00    +0.090 A 
ATOM     23  C   UNL     1      -0.741  -2.523   2.613  0.00  0.00    +0.027 A 
ATOM     24  C   UNL     1      -1.019  -1.231   3.019  0.00  0.00    +0.005 A 
ENDBRANCH  15  22
ENDBRANCH  14  15
ENDBRANCH  10  14
ENDBRANCH   1  11
BRANCH   1  25
ATOM     25  N   UNL     1       3.635  -6.297   4.245  0.00  0.00    -0.285 N 
ATOM     26  C   UNL     1       4.388  -7.383   3.611  0.00  0.00    +0.133 C 
ATOM     27  C   UNL     1       3.146  -6.455   5.490  0.00  0.00    +0.247 C 
ATOM     28  O   UNL     1       2.442  -5.594   5.980  0.00  0.00    -0.270 OA
BRANCH  27  29
ATOM     29  C   UNL     1       3.466  -7.676   6.261  0.00  0.00    +0.039 A 
ATOM     30  C   UNL     1       4.706  -8.297   6.107  0.00  0.00    +0.013 A 
ATOM     31  C   UNL     1       4.998  -9.435   6.830  0.00  0.00    +0.003 A 
ATOM     32  C   UNL     1       4.065  -9.961   7.706  0.00  0.00    +0.033 A 
ATOM     33  C   UNL     1       2.834  -9.350   7.863  0.00  0.00    +0.127 A 
ATOM     34  C   UNL     1       2.531  -8.207   7.151  0.00  0.00    +0.045 A 
BRANCH  33  35
ATOM     35  N   UNL     1       1.841  -9.919   8.802  0.00  0.00    +0.056 N 
ATOM     36  O   UNL     1       2.107 -10.918   9.430  0.00  0.00    -0.126 OA
ATOM     37  O   UNL     1       0.765  -9.386   8.941  0.00  0.00    -0.126 OA
ENDBRANCH  33  35
ENDBRANCH  27  29
ENDBRANCH   1  25
TORSDOF 8
