REMARK  Name = ZINC06586398
REMARK  7 active torsions:
REMARK  status: ('A' for Active; 'I' for Inactive)
REMARK    1  A    between atoms: C_1  and  C_2
REMARK    2  A    between atoms: C_7  and  N_12
REMARK    3  A    between atoms: C_9  and  C_11
REMARK    4  A    between atoms: C_13  and  C_15
REMARK    5  A    between atoms: C_15  and  O_16
REMARK    6  A    between atoms: O_16  and  C_17
REMARK    7  A    between atoms: C_17  and  C_19
REMARK                            x       y       z     vdW  Elec       q    Type
REMARK                         _______ _______ _______ _____ _____    ______ ____
ROOT
ATOM      1  C   UNL     1       1.363  -0.333   6.074  0.00  0.00    +0.328 C 
ENDROOT
BRANCH   1   3
ATOM      2  N   UNL     1       0.735  -0.503   3.687  0.00  0.00    -0.309 N 
ATOM      3  C   UNL     1       0.634   0.166   4.853  0.00  0.00    +0.251 C 
ATOM      4  O   UNL     1      -0.044   1.170   4.919  0.00  0.00    -0.272 OA
ATOM      5  H   UNL     1       1.276  -1.306   3.634  0.00  0.00    +0.149 HD
BRANCH   2  11
ATOM      6  C   UNL     1      -0.019   1.526   0.010  0.00  0.00    +0.008 C 
ATOM      7  C   UNL     1       0.002  -0.004   0.002  0.00  0.00    -0.009 C 
ATOM      8  C   UNL     1      -1.433  -0.534   0.013  0.00  0.00    +0.003 C 
ATOM      9  C   UNL     1      -2.149  -0.040   1.272  0.00  0.00    +0.002 C 
ATOM     10  C   UNL     1      -1.409  -0.547   2.511  0.00  0.00    +0.022 C 
ATOM     11  C   UNL     1       0.026  -0.018   2.500  0.00  0.00    +0.076 C 
ATOM     12  C   UNL     1       0.742  -0.511   1.242  0.00  0.00    +0.009 C 
ATOM     13  C   UNL     1       2.178   0.019   1.231  0.00  0.00    +0.009 C 
ENDBRANCH   2  11
ENDBRANCH   1   3
BRANCH   1  14
ATOM     14  O   UNL     1       1.100   0.539   7.175  0.00  0.00    -0.451 OA
BRANCH  14  15
ATOM     15  C   UNL     1       1.682   0.232   8.352  0.00  0.00    +0.348 C 
ATOM     16  O   UNL     1       2.393  -0.751   8.440  0.00  0.00    -0.244 OA
BRANCH  15  17
ATOM     17  C   UNL     1       1.458   1.082   9.525  0.00  0.00    +0.116 A 
ATOM     18  C   UNL     1       1.957   0.940  10.784  0.00  0.00    +0.070 A 
ATOM     19  C   UNL     1       1.619   1.873  11.782  0.00  0.00    +0.008 A 
ATOM     20  C   UNL     1       2.033   1.897  13.139  0.00  0.00    +0.010 A 
ATOM     21  C   UNL     1       1.611   2.878  13.976  0.00  0.00    +0.001 A 
ATOM     22  C   UNL     1       0.763   3.891  13.544  0.00  0.00    +0.001 A 
ATOM     23  C   UNL     1       0.337   3.906  12.232  0.00  0.00    +0.016 A 
ATOM     24  C   UNL     1       0.757   2.916  11.369  0.00  0.00    +0.022 A 
ATOM     25  S   UNL     1       0.469   2.562   9.653  0.00  0.00    -0.080 S 
ATOM     26 CL   UNL     1       3.008  -0.391  11.158  0.00  0.00    -0.082 Cl
ENDBRANCH  15  17
ENDBRANCH  14  15
ENDBRANCH   1  14
TORSDOF 5
