REMARK  Name = ZINC39989707
REMARK  9 active torsions:
REMARK  status: ('A' for Active; 'I' for Inactive)
REMARK    1  A    between atoms: C_1  and  C_2
REMARK    2  A    between atoms: C_2  and  N_3
REMARK    3  A    between atoms: C_4  and  N_28
REMARK    4  A    between atoms: C_5  and  C_13
REMARK    5  A    between atoms: C_6  and  C_12
REMARK    6  A    between atoms: C_7  and  C_10
REMARK    7  A    between atoms: N_17  and  C_21
REMARK    8  A    between atoms: C_21  and  C_22
REMARK    9  A    between atoms: C_32  and  C_35
REMARK                            x       y       z     vdW  Elec       q    Type
REMARK                         _______ _______ _______ _____ _____    ______ ____
ROOT
ATOM      1  N   UNL     1       1.146  -0.387  -1.243  0.00  0.00    -0.295 N 
ATOM      2  C   UNL     1       0.306  -0.654  -2.276  0.00  0.00    +0.112 A 
ATOM      3  C   UNL     1       0.717  -1.481  -3.334  0.00  0.00    +0.019 A 
ATOM      4  C   UNL     1       2.009  -2.032  -3.319  0.00  0.00    -0.017 A 
ATOM      5  C   UNL     1       2.851  -1.743  -2.249  0.00  0.00    +0.120 A 
ATOM      6  C   UNL     1       2.390  -0.898  -1.207  0.00  0.00    +0.270 A 
ATOM      7  O   UNL     1       3.124  -0.637  -0.271  0.00  0.00    -0.266 OA
ATOM      8  C   UNL     1       2.475  -2.923  -4.441  0.00  0.00    +0.046 C 
ENDROOT
BRANCH   3   9
ATOM      9  C   UNL     1      -0.194  -1.766  -4.444  0.00  0.00    +0.032 C 
ATOM     10  C   UNL     1       0.102  -1.327  -5.698  0.00  0.00    +0.077 C 
ATOM     11  C   UNL     1      -0.604  -1.530  -6.922  0.00  0.00    +0.258 C 
ATOM     12  O   UNL     1      -1.634  -2.179  -6.952  0.00  0.00    -0.269 OA
ATOM     13  N   UNL     1      -0.106  -0.992  -8.022  0.00  0.00    -0.253 N 
ATOM     14  C   UNL     1       1.036  -0.272  -7.989  0.00  0.00    +0.121 C 
ATOM     15  S   UNL     1       1.853   0.506  -9.277  0.00  0.00    -0.027 S 
ATOM     16  S   UNL     1       1.476  -0.331  -6.258  0.00  0.00    -0.061 S 
BRANCH  13  17
ATOM     17  C   UNL     1      -0.804  -1.180  -9.297  0.00  0.00    +0.146 C 
BRANCH  17  18
ATOM     18  C   UNL     1      -1.810  -0.045  -9.499  0.00  0.00    +0.136 C 
ATOM     19  C   UNL     1      -2.585  -0.244 -10.827  0.00  0.00    +0.035 C 
ATOM     20  C   UNL     1      -3.890   0.543 -10.527  0.00  0.00    +0.031 C 
ATOM     21  C   UNL     1      -4.085   0.290  -9.017  0.00  0.00    +0.160 C 
ATOM     22  O   UNL     1      -2.812  -0.078  -8.470  0.00  0.00    -0.375 OA
ENDBRANCH  17  18
ENDBRANCH  13  17
ENDBRANCH   3   9
BRANCH   2  23
ATOM     23  N   UNL     1      -0.948  -0.116  -2.285  0.00  0.00    -0.316 N 
ATOM     24  C   UNL     1      -1.212   1.155  -2.973  0.00  0.00    +0.106 C 
ATOM     25  C   UNL     1      -2.371   0.953  -3.954  0.00  0.00    +0.019 C 
ATOM     26  C   UNL     1      -3.576   0.383  -3.204  0.00  0.00    +0.006 C 
ATOM     27  C   UNL     1      -3.209  -0.977  -2.603  0.00  0.00    +0.003 C 
ATOM     28  C   UNL     1      -2.061  -0.800  -1.612  0.00  0.00    +0.109 C 
ATOM     29  C   UNL     1      -4.425  -1.561  -1.882  0.00  0.00    +0.009 C 
ENDBRANCH   2  23
BRANCH   1  31
ATOM     30  C   UNL     1       1.146   1.915  -0.416  0.00  0.00    +0.027 C 
ATOM     31  C   UNL     1       0.692   0.478  -0.151  0.00  0.00    +0.123 C 
ENDBRANCH   1  31
BRANCH   5  32
ATOM     32  C   UNL     1       4.174  -2.289  -2.203  0.00  0.00    +0.105 C 
ATOM     33  N   UNL     1       5.224  -2.722  -2.167  0.00  0.00    -0.191 NA
ENDBRANCH   5  32
TORSDOF 6
