REMARK  Name = ZINC20289596
REMARK  16 active torsions:
REMARK  status: ('A' for Active; 'I' for Inactive)
REMARK    1  A    between atoms: C_1  and  C_2
REMARK    2  A    between atoms: C_2  and  N_3
REMARK    3  A    between atoms: N_3  and  C_4
REMARK    4  A    between atoms: N_3  and  C_6
REMARK    5  A    between atoms: C_4  and  C_5
REMARK    6  A    between atoms: C_6  and  C_7
REMARK    7  A    between atoms: C_7  and  N_8
REMARK    8  A    between atoms: C_9  and  C_11
REMARK    9  A    between atoms: N_13  and  C_14
REMARK   10  A    between atoms: C_14  and  C_16
REMARK   11  A    between atoms: C_14  and  C_17
REMARK   12  A    between atoms: C_17  and  C_19
REMARK   13  A    between atoms: C_17  and  N_24
REMARK   14  A    between atoms: N_27  and  C_30
REMARK   15  A    between atoms: C_35  and  O_36
REMARK   16  A    between atoms: O_36  and  C_37
REMARK                            x       y       z     vdW  Elec       q    Type
REMARK                         _______ _______ _______ _____ _____    ______ ____
ROOT
ATOM      1  C   UNL     1       1.478   3.515   0.020  0.00  0.00    +0.114 C 
ENDROOT
BRANCH   1   2
ATOM      2  N   UNL     1       2.496   3.713   1.060  0.00  0.00    -0.290 NA
ATOM      3  C   UNL     1       2.111   3.042   2.309  0.00  0.00    +0.104 C 
ATOM      4  C   UNL     1       3.232   3.204   3.339  0.00  0.00    +0.120 C 
ATOM      5  N   UNL     1       3.479   4.635   3.568  0.00  0.00    -0.325 N 
ATOM      6  C   UNL     1       3.864   5.307   2.319  0.00  0.00    +0.120 C 
ATOM      7  C   UNL     1       2.743   5.144   1.289  0.00  0.00    +0.104 C 
BRANCH   5   8
ATOM      8  C   UNL     1       4.449   4.824   4.559  0.00  0.00    +0.072 A 
ATOM      9  C   UNL     1       5.176   3.743   5.036  0.00  0.00    +0.027 A 
ATOM     10  C   UNL     1       6.137   3.933   6.011  0.00  0.00    +0.002 A 
ATOM     11  C   UNL     1       6.370   5.197   6.520  0.00  0.00    +0.004 A 
ATOM     12  C   UNL     1       5.646   6.279   6.053  0.00  0.00    +0.047 A 
ATOM     13  C   UNL     1       4.684   6.097   5.072  0.00  0.00    +0.141 A 
BRANCH  13  14
ATOM     14  O   UNL     1       3.971   7.160   4.612  0.00  0.00    -0.493 OA
ATOM     15  C   UNL     1       4.266   8.436   5.185  0.00  0.00    +0.277 C 
ENDBRANCH  13  14
ENDBRANCH   5   8
ENDBRANCH   1   2
BRANCH   1  16
ATOM     16  C   UNL     1       1.192   2.043  -0.129  0.00  0.00    +0.009 A 
ATOM     17  C   UNL     1      -0.001   1.415  -0.275  0.00  0.00    +0.013 A 
ATOM     18  C   UNL     1      -0.024   0.039  -0.396  0.00  0.00    +0.008 A 
ATOM     19  C   UNL     1       1.147  -0.643  -0.364  0.00  0.00    +0.045 A 
ATOM     20  S   UNL     1       2.336   0.672  -0.158  0.00  0.00    -0.100 S 
ENDBRANCH   1  16
BRANCH   1  21
ATOM     21  C   UNL     1       1.991   4.071  -1.310  0.00  0.00    +0.092 C 
ATOM     22  C   UNL     1       3.337   3.426  -1.647  0.00  0.00    +0.030 C 
BRANCH  21  25
ATOM     23  C   UNL     1       0.974   4.544  -3.473  0.00  0.00    +0.299 C 
ATOM     24  O   UNL     1       1.727   5.489  -3.587  0.00  0.00    -0.265 OA
ATOM     25  N   UNL     1       1.026   3.771  -2.370  0.00  0.00    -0.303 N 
ATOM     26  H   UNL     1       0.344   2.914  -2.266  0.00  0.00    +0.149 HD
BRANCH  23  28
ATOM     27  N   UNL     1      -0.062   5.011  -5.657  0.00  0.00    -0.309 N 
ATOM     28  C   UNL     1      -0.010   4.238  -4.554  0.00  0.00    +0.299 C 
ATOM     29  O   UNL     1      -0.763   3.293  -4.440  0.00  0.00    -0.265 OA
ATOM     30  H   UNL     1       0.620   5.868  -5.761  0.00  0.00    +0.149 HD
BRANCH  27  31
ATOM     31  C   UNL     1      -1.028   4.711  -6.718  0.00  0.00    +0.086 C 
BRANCH  31  32
ATOM     32  C   UNL     1      -0.879   5.732  -7.847  0.00  0.00    -0.060 C 
BRANCH  32  33
ATOM     33  N   UNL     1      -1.920   5.500  -8.857  0.00  0.00    +0.380 N 
ATOM     34  H   UNL     1      -2.009   4.414  -9.008  0.00  0.00    -0.082 HD
BRANCH  33  36
ATOM     35  C   UNL     1      -4.318   5.524  -9.352  0.00  0.00    -0.017 C 
ATOM     36  C   UNL     1      -3.222   6.000  -8.396  0.00  0.00    -0.082 C 
ENDBRANCH  33  36
BRANCH  33  37
ATOM     37  C   UNL     1      -1.549   6.105 -10.143  0.00  0.00    -0.082 C 
ATOM     38  C   UNL     1      -0.491   5.238 -10.829  0.00  0.00    -0.017 C 
ENDBRANCH  33  37
ENDBRANCH  32  33
ENDBRANCH  31  32
ENDBRANCH  27  31
ENDBRANCH  23  28
ENDBRANCH  21  25
ENDBRANCH   1  21
TORSDOF 12
