REMARK  Name = ZINC35986862
REMARK  8 active torsions:
REMARK  status: ('A' for Active; 'I' for Inactive)
REMARK    1  A    between atoms: C_1  and  O_2
REMARK    2  A    between atoms: O_2  and  C_3
REMARK    3  A    between atoms: C_3  and  C_4
REMARK    4  A    between atoms: C_4  and  N_5
REMARK    5  A    between atoms: C_6  and  C_8
REMARK    6  A    between atoms: C_14  and  C_16
REMARK    7  A    between atoms: C_27  and  C_29
REMARK    8  A    between atoms: C_29  and  C_30
REMARK                            x       y       z     vdW  Elec       q    Type
REMARK                         _______ _______ _______ _____ _____    ______ ____
ROOT
ATOM      1  C   UNL     1      -1.380  -4.670  -1.998  0.00  0.00    +0.190 C 
ATOM      2  C   UNL     1      -1.639  -4.569  -3.522  0.00  0.00    +0.194 C 
ATOM      3  O   UNL     1      -2.961  -5.141  -3.651  0.00  0.00    -0.353 OA
ATOM      4  C   UNL     1      -3.006  -6.224  -2.709  0.00  0.00    +0.142 C 
ATOM      5  N   UNL     1      -2.032  -5.949  -1.636  0.00  0.00    -0.255 N 
ATOM      6  C   UNL     1      -1.784  -6.706  -0.550  0.00  0.00    +0.249 C 
ATOM      7  O   UNL     1      -2.339  -7.779  -0.417  0.00  0.00    -0.270 OA
ATOM      8  C   UNL     1      -4.410  -6.325  -2.111  0.00  0.00    +0.074 C 
ATOM      9  C   UNL     1      -4.443  -7.461  -1.083  0.00  0.00    +0.112 C 
ATOM     10  N   UNL     1      -3.964  -8.693  -1.725  0.00  0.00    -0.301 N 
ATOM     11  C   UNL     1      -2.659  -8.678  -2.398  0.00  0.00    +0.112 C 
ATOM     12  C   UNL     1      -2.642  -7.531  -3.414  0.00  0.00    +0.074 C 
ATOM     13  C   UNL     1      -4.709  -9.816  -1.696  0.00  0.00    +0.220 C 
ATOM     14  O   UNL     1      -5.785  -9.816  -1.136  0.00  0.00    -0.275 OA
ENDROOT
BRANCH   6  15
ATOM     15  C   UNL     1      -0.836  -6.232   0.481  0.00  0.00    +0.037 A 
ATOM     16  C   UNL     1      -0.804  -4.882   0.836  0.00  0.00    +0.013 A 
ATOM     17  C   UNL     1       0.082  -4.446   1.798  0.00  0.00    +0.001 A 
ATOM     18  C   UNL     1       0.939  -5.343   2.412  0.00  0.00    +0.000 A 
ATOM     19  C   UNL     1       0.912  -6.682   2.065  0.00  0.00    +0.001 A 
ATOM     20  C   UNL     1       0.026  -7.132   1.108  0.00  0.00    +0.013 A 
ENDBRANCH   6  15
BRANCH   1  22
ATOM     21  N   UNL     1       0.787  -3.585  -1.502  0.00  0.00    -0.312 N 
ATOM     22  C   UNL     1       0.098  -4.725  -1.710  0.00  0.00    +0.236 C 
ATOM     23  O   UNL     1       0.668  -5.794  -1.665  0.00  0.00    -0.274 OA
ATOM     24  H   UNL     1       0.331  -2.730  -1.538  0.00  0.00    +0.149 HD
BRANCH  21  25
ATOM     25  C   UNL     1       2.224  -3.638  -1.222  0.00  0.00    +0.132 C 
BRANCH  25  26
ATOM     26  C   UNL     1       2.758  -2.218  -1.027  0.00  0.00    +0.178 C 
BRANCH  26  28
ATOM     27  C   UNL     1       2.600  -0.309   0.414  0.00  0.00    +0.194 C 
ATOM     28  O   UNL     1       2.166  -1.642   0.140  0.00  0.00    -0.381 OA
ENDBRANCH  26  28
ENDBRANCH  25  26
ENDBRANCH  21  25
ENDBRANCH   1  22
BRANCH  13  29
ATOM     29  C   UNL     1      -4.204 -11.072  -2.358  0.00  0.00    +0.138 C 
BRANCH  29  30
ATOM     30  C   UNL     1      -5.216 -12.174  -2.183  0.00  0.00    -0.001 A 
ATOM     31  C   UNL     1      -6.254 -12.516  -2.985  0.00  0.00    +0.011 A 
ATOM     32  C   UNL     1      -7.062 -13.576  -2.621  0.00  0.00    +0.008 A 
ATOM     33  C   UNL     1      -6.793 -14.244  -1.472  0.00  0.00    +0.045 A 
ATOM     34  S   UNL     1      -5.356 -13.374  -0.868  0.00  0.00    -0.101 S 
ENDBRANCH  29  30
ENDBRANCH  13  29
TORSDOF 7
