REMARK  Name = ZINC00431865
REMARK  4 active torsions:
REMARK  status: ('A' for Active; 'I' for Inactive)
REMARK    1  A    between atoms: C_4  and  O_22
REMARK    2  A    between atoms: C_5  and  C_7
REMARK    3  A    between atoms: N_8  and  N_9
REMARK    4  A    between atoms: C_10  and  C_12
REMARK                            x       y       z     vdW  Elec       q    Type
REMARK                         _______ _______ _______ _____ _____    ______ ____
ROOT
ATOM      1  N   UNL     1       3.600   5.951  -0.000  0.00  0.00    -0.202 N 
ATOM      2  C   UNL     1       3.579   7.299   0.007  0.00  0.00    +0.271 C 
ATOM      3  O   UNL     1       2.515   7.890   0.019  0.00  0.00    -0.268 OA
ATOM      4  H   UNL     1       4.448   5.480  -0.010  0.00  0.00    +0.178 HD
ENDROOT
BRANCH   2   5
ATOM      5  C   UNL     1       4.838   8.053  -0.001  0.00  0.00    +0.095 A 
ATOM      6  C   UNL     1       5.018   9.402  -0.001  0.00  0.00    +0.068 A 
ATOM      7  C   UNL     1       6.321   9.935  -0.004  0.00  0.00    +0.008 A 
ATOM      8  C   UNL     1       6.711  11.299  -0.000  0.00  0.00    +0.010 A 
ATOM      9  C   UNL     1       8.024  11.646  -0.011  0.00  0.00    +0.001 A 
ATOM     10  C   UNL     1       9.030  10.688  -0.025  0.00  0.00    +0.001 A 
ATOM     11  C   UNL     1       8.695   9.349  -0.029  0.00  0.00    +0.016 A 
ATOM     12  C   UNL     1       7.366   8.982  -0.019  0.00  0.00    +0.021 A 
ATOM     13  S   UNL     1       6.508   7.428  -0.020  0.00  0.00    -0.082 S 
ATOM     14 CL   UNL     1       3.644  10.463   0.007  0.00  0.00    -0.082 Cl
ENDBRANCH   2   5
BRANCH   1  16
ATOM     15  C   UNL     1       2.420   3.933   0.000  0.00  0.00    +0.142 C 
ATOM     16  N   UNL     1       2.399   5.231   0.007  0.00  0.00    -0.187 NA
BRANCH  15  21
ATOM     17  C   UNL     1      -0.013   1.076   0.008  0.00  0.00    +0.001 A 
ATOM     18  C   UNL     1      -1.222   1.749   0.017  0.00  0.00    +0.004 A 
ATOM     19  C   UNL     1      -1.254   3.131   0.030  0.00  0.00    +0.046 A 
ATOM     20  C   UNL     1      -0.071   3.852   0.022  0.00  0.00    +0.125 A 
ATOM     21  C   UNL     1       1.156   3.175   0.008  0.00  0.00    +0.036 A 
ATOM     22  C   UNL     1       1.174   1.779   0.000  0.00  0.00    +0.013 A 
BRANCH  20  23
ATOM     23  O   UNL     1      -0.101   5.210   0.030  0.00  0.00    -0.506 OA
ATOM     24  H   UNL     1      -0.118   5.608  -0.851  0.00  0.00    +0.292 HD
ENDBRANCH  20  23
ENDBRANCH  15  21
ENDBRANCH   1  16
TORSDOF 4
