REMARK  Name = ZINC35592608
REMARK  10 active torsions:
REMARK  status: ('A' for Active; 'I' for Inactive)
REMARK    1  A    between atoms: C_3  and  C_8
REMARK    2  A    between atoms: C_8  and  O_9
REMARK    3  A    between atoms: O_9  and  C_10
REMARK    4  A    between atoms: C_10  and  C_30
REMARK    5  A    between atoms: C_12  and  O_29
REMARK    6  A    between atoms: C_14  and  O_28
REMARK    7  A    between atoms: C_16  and  O_19
REMARK    8  A    between atoms: O_19  and  C_20
REMARK    9  A    between atoms: C_20  and  C_21
REMARK   10  A    between atoms: N_32  and  N_33
REMARK                            x       y       z     vdW  Elec       q    Type
REMARK                         _______ _______ _______ _____ _____    ______ ____
ROOT
ATOM      1  C   UNL     1       5.372   3.053   1.430  0.00  0.00    +0.151 C 
ATOM      2  C   UNL     1       5.497   4.526   1.035  0.00  0.00    +0.078 C 
ATOM      3  C   UNL     1       6.900   5.029   1.378  0.00  0.00    +0.149 C 
ATOM      4  C   UNL     1       7.141   4.883   2.882  0.00  0.00    +0.172 C 
ATOM      5  C   UNL     1       7.016   3.410   3.278  0.00  0.00    +0.153 C 
ATOM      6  C   UNL     1       5.613   2.907   2.934  0.00  0.00    +0.079 C 
ENDROOT
BRANCH   1   7
ATOM      7  C   UNL     1       6.395   2.242   0.677  0.00  0.00    +0.259 C 
ATOM      8  O   UNL     1       7.350   2.791   0.170  0.00  0.00    -0.271 OA
ATOM      9  N   UNL     1       6.248   0.907   0.567  0.00  0.00    -0.246 N 
ATOM     10  H   UNL     1       5.524   0.459   1.031  0.00  0.00    +0.169 HD
BRANCH   9  11
ATOM     11  N   UNL     1       7.119   0.185  -0.200  0.00  0.00    -0.223 NA
ATOM     12  C   UNL     1       6.426  -0.443  -1.334  0.00  0.00    +0.133 C 
ATOM     13  C   UNL     1       7.446  -1.191  -2.197  0.00  0.00    +0.177 C 
ATOM     14  O   UNL     1       8.138  -2.146  -1.389  0.00  0.00    -0.377 OA
ATOM     15  C   UNL     1       8.825  -1.568  -0.276  0.00  0.00    +0.177 C 
ATOM     16  C   UNL     1       7.819  -0.824   0.607  0.00  0.00    +0.133 C 
ENDBRANCH   9  11
ENDBRANCH   1   7
BRANCH   4  17
ATOM     17  O   UNL     1       6.171   5.652   3.596  0.00  0.00    -0.387 OA
ATOM     18  H   UNL     1       6.192   6.597   3.394  0.00  0.00    +0.210 HD
ENDBRANCH   4  17
BRANCH   3  19
ATOM     19  O   UNL     1       7.016   6.405   1.008  0.00  0.00    -0.389 OA
ATOM     20  H   UNL     1       7.882   6.791   1.198  0.00  0.00    +0.210 HD
ENDBRANCH   3  19
BRANCH   1  21
ATOM     21  O   UNL     1       4.061   2.583   1.110  0.00  0.00    -0.359 OA
BRANCH  21  22
ATOM     22  C   UNL     1       3.748   2.641  -0.283  0.00  0.00    +0.196 C 
BRANCH  22  25
ATOM     23  C   UNL     1       0.017   2.216  -0.685  0.00  0.00    +0.003 A 
ATOM     24  C   UNL     1       1.256   2.790  -0.467  0.00  0.00    +0.006 A 
ATOM     25  C   UNL     1       2.398   2.014  -0.521  0.00  0.00    -0.019 A 
ATOM     26  C   UNL     1       2.303   0.662  -0.792  0.00  0.00    +0.044 A 
ATOM     27  C   UNL     1       1.063   0.086  -1.011  0.00  0.00    +0.124 A 
ATOM     28  C   UNL     1      -0.080   0.865  -0.956  0.00  0.00    +0.038 A 
ATOM     29  F   UNL     1       0.969  -1.236  -1.277  0.00  0.00    -0.205 F 
ENDBRANCH  22  25
ENDBRANCH  21  22
ENDBRANCH   1  21
BRANCH   5  30
ATOM     30  O   UNL     1       7.241   3.274   4.682  0.00  0.00    -0.369 OA
BRANCH  30  31
ATOM     31  C   UNL     1       8.608   3.052   5.033  0.00  0.00    +0.195 C 
BRANCH  31  32
ATOM     32  C   UNL     1       8.728   2.924   6.530  0.00  0.00    -0.021 A 
ATOM     33  C   UNL     1       8.947   4.048   7.304  0.00  0.00    +0.006 A 
ATOM     34  C   UNL     1       9.057   3.931   8.677  0.00  0.00    +0.002 A 
ATOM     35  C   UNL     1       8.949   2.690   9.277  0.00  0.00    +0.020 A 
ATOM     36  C   UNL     1       8.729   1.565   8.502  0.00  0.00    +0.041 A 
ATOM     37  C   UNL     1       8.613   1.683   7.128  0.00  0.00    +0.026 A 
ATOM     38 CL   UNL     1       8.593   0.006   9.254  0.00  0.00    -0.084 Cl
ENDBRANCH  31  32
ENDBRANCH  30  31
ENDBRANCH   5  30
TORSDOF 10
