REMARK  Name = ZINC34747355
REMARK  6 active torsions:
REMARK  status: ('A' for Active; 'I' for Inactive)
REMARK    1  A    between atoms: C_1  and  C_2
REMARK    2  A    between atoms: C_5  and  C_38
REMARK    3  A    between atoms: C_6  and  C_8
REMARK    4  A    between atoms: C_8  and  N_9
REMARK    5  A    between atoms: N_28  and  C_29
REMARK    6  A    between atoms: C_29  and  C_30
REMARK                            x       y       z     vdW  Elec       q    Type
REMARK                         _______ _______ _______ _____ _____    ______ ____
ROOT
ATOM      1  N   UNL     1       2.534  -3.109   1.812  0.00  0.00    +0.384 N 
ATOM      2  C   UNL     1       3.913  -3.612   1.820  0.00  0.00    -0.059 C 
ATOM      3  C   UNL     1       4.153  -4.420   3.099  0.00  0.00    +0.089 C 
ATOM      4  N   UNL     1       3.808  -3.578   4.255  0.00  0.00    -0.304 N 
ATOM      5  C   UNL     1       2.502  -2.900   4.252  0.00  0.00    +0.089 C 
ATOM      6  C   UNL     1       2.340  -2.163   2.918  0.00  0.00    -0.059 C 
ATOM      7  C   UNL     1       4.678  -3.429   5.305  0.00  0.00    +0.202 A 
ATOM      8  N   UNL     1       5.569  -2.460   5.278  0.00  0.00    -0.208 NA
ATOM      9  C   UNL     1       6.424  -2.293   6.281  0.00  0.00    +0.117 A 
ATOM     10  C   UNL     1       6.423  -3.129   7.410  0.00  0.00    +0.076 A 
ATOM     11  C   UNL     1       7.424  -2.822   8.433  0.00  0.00    -0.023 A 
ATOM     12  C   UNL     1       8.242  -1.777   8.196  0.00  0.00    -0.004 A 
ATOM     13  S   UNL     1       7.736  -1.146   6.619  0.00  0.00    -0.073 S 
ATOM     14  C   UNL     1       9.339  -1.264   9.078  0.00  0.00    +0.043 C 
ATOM     15  C   UNL     1       9.163  -1.875  10.476  0.00  0.00    +0.005 C 
ATOM     16  C   UNL     1       8.932  -3.382  10.327  0.00  0.00    +0.005 C 
ATOM     17  C   UNL     1       7.553  -3.638   9.717  0.00  0.00    +0.037 C 
ATOM     18  C   UNL     1       5.444  -4.173   7.412  0.00  0.00    +0.264 A 
ATOM     19  O   UNL     1       5.368  -4.947   8.350  0.00  0.00    -0.267 OA
ATOM     20  N   UNL     1       4.604  -4.283   6.366  0.00  0.00    -0.271 N 
ATOM     21  H   UNL     1       1.895  -3.883   1.917  0.00  0.00    -0.081 HD
ENDROOT
BRANCH   1  22
ATOM     22  C   UNL     1       2.270  -2.428   0.537  0.00  0.00    -0.043 C 
BRANCH  22  28
ATOM     23  C   UNL     1       4.810  -4.510  -3.240  0.00  0.00    +0.044 C 
ATOM     24  C   UNL     1       3.563  -4.420  -2.398  0.00  0.00    -0.050 A 
ATOM     25  C   UNL     1       2.491  -5.254  -2.659  0.00  0.00    +0.003 A 
ATOM     26  C   UNL     1       1.348  -5.172  -1.887  0.00  0.00    +0.004 A 
ATOM     27  C   UNL     1       1.276  -4.257  -0.853  0.00  0.00    -0.049 A 
ATOM     28  C   UNL     1       2.348  -3.425  -0.591  0.00  0.00    -0.061 A 
ATOM     29  C   UNL     1       3.494  -3.510  -1.360  0.00  0.00    +0.005 A 
ATOM     30  C   UNL     1       0.029  -4.168  -0.011  0.00  0.00    +0.044 C 
ENDBRANCH  22  28
ENDBRANCH   1  22
BRANCH  20  31
ATOM     31  C   UNL     1       3.596  -5.346   6.363  0.00  0.00    +0.224 C 
BRANCH  31  32
ATOM     32  C   UNL     1       4.198  -6.609   5.803  0.00  0.00    +0.236 C 
ATOM     33  O   UNL     1       5.356  -6.620   5.442  0.00  0.00    -0.274 OA
ATOM     34  N   UNL     1       3.450  -7.726   5.704  0.00  0.00    -0.300 N 
ATOM     35  C   UNL     1       2.045  -7.726   6.132  0.00  0.00    +0.108 C 
ATOM     36  C   UNL     1       1.178  -8.240   4.978  0.00  0.00    +0.019 C 
ATOM     37  C   UNL     1       1.697  -9.606   4.525  0.00  0.00    +0.003 C 
ATOM     38  C   UNL     1       3.136  -9.466   4.023  0.00  0.00    +0.019 C 
ATOM     39  C   UNL     1       4.023  -8.964   5.160  0.00  0.00    +0.108 C 
ENDBRANCH  31  32
ENDBRANCH  20  31
TORSDOF 4
