REMARK  Name = ZINC43460631
REMARK  6 active torsions:
REMARK  status: ('A' for Active; 'I' for Inactive)
REMARK    1  A    between atoms: C_1  and  C_2
REMARK    2  A    between atoms: C_2  and  C_23
REMARK    3  A    between atoms: C_4  and  O_22
REMARK    4  A    between atoms: C_9  and  O_13
REMARK    5  A    between atoms: O_13  and  C_14
REMARK    6  A    between atoms: C_19  and  O_21
REMARK                            x       y       z     vdW  Elec       q    Type
REMARK                         _______ _______ _______ _____ _____    ______ ____
ROOT
ATOM      1  C   UNL     1       0.140   1.020  -0.161  0.00  0.00    +0.055 C 
ATOM      2  C   UNL     1      -0.070  -0.487  -0.001  0.00  0.00    +0.108 C 
ATOM      3  C   UNL     1      -1.570  -0.791   0.108  0.00  0.00    +0.083 C 
ATOM      4  C   UNL     1      -2.147   0.043   1.255  0.00  0.00    +0.152 C 
ATOM      5  C   UNL     1      -1.274  -0.099   2.476  0.00  0.00    +0.023 A 
ATOM      6  C   UNL     1      -1.795   0.252   3.711  0.00  0.00    +0.013 A 
ATOM      7  C   UNL     1      -1.026   0.138   4.851  0.00  0.00    +0.046 A 
ATOM      8  C   UNL     1       0.278  -0.329   4.763  0.00  0.00    +0.125 A 
ATOM      9  C   UNL     1       0.801  -0.682   3.531  0.00  0.00    +0.091 A 
ATOM     10  C   UNL     1       0.024  -0.570   2.383  0.00  0.00    +0.130 A 
ATOM     11  O   UNL     1       0.569  -0.937   1.194  0.00  0.00    -0.486 OA
ATOM     12  C   UNL     1       0.518  -1.220  -1.208  0.00  0.00    +0.055 C 
ENDROOT
BRANCH   4  13
ATOM     13  O   UNL     1      -3.466  -0.414   1.558  0.00  0.00    -0.387 OA
ATOM     14  H   UNL     1      -3.895   0.070   2.277  0.00  0.00    +0.210 HD
ENDBRANCH   4  13
BRANCH   8  15
ATOM     15  O   UNL     1       1.039  -0.441   5.884  0.00  0.00    -0.486 OA
BRANCH  15  16
ATOM     16  C   UNL     1       2.407  -0.810   5.704  0.00  0.00    +0.202 C 
ATOM     17  C   UNL     1       2.539  -2.347   5.664  0.00  0.00    +0.047 C 
ATOM     18  C   UNL     1       3.869  -2.633   6.404  0.00  0.00    +0.006 C 
ATOM     19  C   UNL     1       3.856  -1.589   7.548  0.00  0.00    +0.035 C 
ATOM     20  C   UNL     1       3.245  -0.327   6.902  0.00  0.00    +0.155 C 
BRANCH  20  21
ATOM     21  O   UNL     1       2.409   0.349   7.843  0.00  0.00    -0.388 OA
ATOM     22  H   UNL     1       2.879   0.678   8.621  0.00  0.00    +0.210 HD
ENDBRANCH  20  21
ENDBRANCH  15  16
ENDBRANCH   8  15
TORSDOF 4
