REMARK  Name = ZINC03938695
REMARK  7 active torsions:
REMARK  status: ('A' for Active; 'I' for Inactive)
REMARK    1  A    between atoms: C_1  and  C_2
REMARK    2  A    between atoms: C_2  and  C_3
REMARK    3  A    between atoms: C_14  and  C_15
REMARK    4  A    between atoms: C_14  and  O_17
REMARK    5  A    between atoms: O_17  and  C_18
REMARK    6  A    between atoms: C_18  and  C_20
REMARK    7  A    between atoms: N_26  and  O_27
REMARK                            x       y       z     vdW  Elec       q    Type
REMARK                         _______ _______ _______ _____ _____    ______ ____
ROOT
ATOM      1  C   UNL     1       0.606  -0.499  -1.314  0.00  0.00    +0.025 C 
ATOM      2  C   UNL     1      -0.190   0.050  -2.483  0.00  0.00    +0.012 C 
ATOM      3  C   UNL     1      -1.659  -0.339  -2.254  0.00  0.00    +0.005 C 
ATOM      4  C   UNL     1      -1.828  -1.849  -2.117  0.00  0.00    -0.000 C 
ATOM      5  C   UNL     1      -0.921  -2.428  -1.021  0.00  0.00    -0.003 C 
ATOM      6  C   UNL     1       0.516  -2.047  -1.385  0.00  0.00    +0.004 C 
ATOM      7  C   UNL     1       1.586  -2.467  -0.372  0.00  0.00    +0.009 C 
ATOM      8  C   UNL     1       2.749  -1.480  -0.664  0.00  0.00    +0.062 C 
ATOM      9  C   UNL     1       2.108  -0.234  -1.325  0.00  0.00    +0.179 C 
ATOM     10  C   UNL     1      -1.069  -3.952  -1.003  0.00  0.00    +0.008 C 
ATOM     11  C   UNL     1      -2.497  -4.314  -0.591  0.00  0.00    +0.031 C 
ATOM     12  C   UNL     1      -3.467  -3.616  -1.526  0.00  0.00    -0.064 C 
ATOM     13  C   UNL     1      -4.434  -4.346  -2.071  0.00  0.00    +0.026 C 
ATOM     14  C   UNL     1      -5.414  -3.716  -2.973  0.00  0.00    +0.080 C 
ATOM     15  N   UNL     1      -6.097  -4.406  -3.830  0.00  0.00    -0.092 NA
ATOM     16  C   UNL     1      -5.579  -2.214  -2.843  0.00  0.00    +0.059 C 
ATOM     17  C   UNL     1      -4.182  -1.597  -2.877  0.00  0.00    +0.014 C 
ATOM     18  C   UNL     1      -3.289  -2.163  -1.770  0.00  0.00    +0.019 C 
ENDROOT
BRANCH   1  20
ATOM     19  C   UNL     1      -0.061   1.525  -0.009  0.00  0.00    +0.004 C 
ATOM     20  C   UNL     1       0.002  -0.004   0.002  0.00  0.00    +0.009 C 
ENDBRANCH   1  20
BRANCH   9  21
ATOM     21  C   UNL     1       2.590  -0.087  -2.708  0.00  0.00    -0.058 C 
ATOM     22  C   UNL     1       2.974   0.031  -3.811  0.00  0.00    +0.008 C 
ENDBRANCH   9  21
BRANCH  15  23
ATOM     23  O   UNL     1      -7.029  -3.760  -4.678  0.00  0.00    -0.409 OA
ATOM     24  H   UNL     1      -7.490  -4.358  -5.283  0.00  0.00    +0.328 HD
ENDBRANCH  15  23
BRANCH   9  25
ATOM     25  O   UNL     1       2.410   0.939  -0.567  0.00  0.00    -0.445 OA
BRANCH  25  26
ATOM     26  C   UNL     1       3.701   1.298  -0.488  0.00  0.00    +0.305 C 
ATOM     27  O   UNL     1       4.547   0.638  -1.043  0.00  0.00    -0.251 OA
ATOM     28  C   UNL     1       4.095   2.524   0.294  0.00  0.00    +0.136 C 
ENDBRANCH  25  26
ENDBRANCH   9  25
TORSDOF 5
