REMARK  Name = ZINC67438353
REMARK  8 active torsions:
REMARK  status: ('A' for Active; 'I' for Inactive)
REMARK    1  A    between atoms: C_1  and  C_2
REMARK    2  A    between atoms: C_5  and  C_29
REMARK    3  A    between atoms: N_8  and  C_10
REMARK    4  A    between atoms: C_10  and  C_11
REMARK    5  A    between atoms: C_11  and  C_13
REMARK    6  A    between atoms: C_11  and  N_14
REMARK    7  A    between atoms: C_15  and  C_17
REMARK    8  A    between atoms: N_19  and  C_20
REMARK                            x       y       z     vdW  Elec       q    Type
REMARK                         _______ _______ _______ _____ _____    ______ ____
ROOT
ATOM      1  N   UNL     1       3.287  -2.295   0.758  0.00  0.00    -0.307 N 
ATOM      2  C   UNL     1       4.424  -1.760   0.270  0.00  0.00    +0.299 C 
ATOM      3  O   UNL     1       5.012  -0.906   0.900  0.00  0.00    -0.265 OA
ATOM      4  H   UNL     1       2.817  -2.978   0.254  0.00  0.00    +0.149 HD
ENDROOT
BRANCH   2   5
ATOM      5  C   UNL     1       4.960  -2.219  -1.046  0.00  0.00    +0.303 C 
ATOM      6  O   UNL     1       4.372  -3.074  -1.677  0.00  0.00    -0.265 OA
ATOM      7  N   UNL     1       6.097  -1.684  -1.535  0.00  0.00    -0.278 N 
ATOM      8  H   UNL     1       6.525  -0.949  -1.070  0.00  0.00    +0.155 HD
BRANCH   7   9
ATOM      9  C   UNL     1       6.659  -2.190  -2.712  0.00  0.00    +0.034 A 
ATOM     10  C   UNL     1       6.544  -3.551  -2.995  0.00  0.00    +0.024 A 
ATOM     11  C   UNL     1       7.098  -4.051  -4.155  0.00  0.00    +0.017 A 
ATOM     12  C   UNL     1       7.757  -3.204  -5.020  0.00  0.00    +0.019 A 
ATOM     13  C   UNL     1       7.892  -1.822  -4.765  0.00  0.00    -0.009 A 
ATOM     14  C   UNL     1       7.310  -1.335  -3.571  0.00  0.00    +0.032 A 
ATOM     15  C   UNL     1       8.619  -1.084  -5.789  0.00  0.00    +0.016 A 
ATOM     16  C   UNL     1       9.091  -1.738  -6.859  0.00  0.00    +0.046 A 
ATOM     17  S   UNL     1       8.589  -3.424  -6.572  0.00  0.00    -0.097 S 
ENDBRANCH   7   9
ENDBRANCH   2   5
BRANCH   1  18
ATOM     18  C   UNL     1       2.761  -1.845   2.049  0.00  0.00    +0.054 C 
ATOM     19  C   UNL     1       3.439  -2.626   3.176  0.00  0.00    +0.026 C 
BRANCH  18  20
ATOM     20  C   UNL     1       1.251  -2.088   2.097  0.00  0.00    -0.057 C 
BRANCH  20  26
ATOM     21  C   UNL     1       0.371   2.211  -0.073  0.00  0.00    +0.005 C 
ATOM     22  C   UNL     1       0.194   0.696  -0.187  0.00  0.00    -0.031 C 
ATOM     23  C   UNL     1      -1.298   0.362  -0.282  0.00  0.00    +0.003 C 
ATOM     24  C   UNL     1      -1.469  -1.159  -0.316  0.00  0.00    -0.031 C 
ATOM     25  C   UNL     1      -0.816  -1.769   0.926  0.00  0.00    -0.076 C 
ATOM     26  N   UNL     1       0.614  -1.436   0.945  0.00  0.00    +0.381 N 
ATOM     27  C   UNL     1       0.786   0.018   1.050  0.00  0.00    -0.076 C 
ATOM     28  C   UNL     1      -2.959  -1.506  -0.333  0.00  0.00    +0.005 C 
ATOM     29  H   UNL     1       1.045  -1.764   0.094  0.00  0.00    -0.082 HD
ENDBRANCH  20  26
ENDBRANCH  18  20
ENDBRANCH   1  18
TORSDOF 5
