REMARK  Name = ZINC38917642
REMARK  9 active torsions:
REMARK  status: ('A' for Active; 'I' for Inactive)
REMARK    1  A    between atoms: C_1  and  C_2
REMARK    2  A    between atoms: C_2  and  C_3
REMARK    3  A    between atoms: C_5  and  C_17
REMARK    4  A    between atoms: C_7  and  C_15
REMARK    5  A    between atoms: C_8  and  N_14
REMARK    6  A    between atoms: C_20  and  O_25
REMARK    7  A    between atoms: C_22  and  O_23
REMARK    8  A    between atoms: O_23  and  C_24
REMARK    9  A    between atoms: O_25  and  C_26
REMARK                            x       y       z     vdW  Elec       q    Type
REMARK                         _______ _______ _______ _____ _____    ______ ____
ROOT
ATOM      1  C   UNL     1      -1.412  -0.526   0.013  0.00  0.00    +0.069 C 
ATOM      2  C   UNL     1      -2.091  -0.872  -1.054  0.00  0.00    +0.030 C 
ATOM      3  C   UNL     1      -1.827  -0.764  -2.531  0.00  0.00    +0.101 C 
ATOM      4  C   UNL     1      -3.139  -0.315  -3.147  0.00  0.00    +0.098 C 
ATOM      5  C   UNL     1      -4.280  -0.267  -2.428  0.00  0.00    +0.195 C 
ATOM      6  O   UNL     1      -4.421  -0.564  -1.124  0.00  0.00    -0.448 OA
ATOM      7  C   UNL     1      -3.425  -1.397  -0.524  0.00  0.00    +0.343 C 
ATOM      8  N   UNL     1      -3.297  -1.157   0.917  0.00  0.00    -0.138 NA
ATOM      9  N   UNL     1      -2.163  -0.710   1.129  0.00  0.00    -0.155 NA
ENDROOT
BRANCH   3  10
ATOM     10  C   UNL     1      -1.418  -2.104  -3.087  0.00  0.00    +0.007 A 
ATOM     11  C   UNL     1      -2.280  -3.181  -2.995  0.00  0.00    +0.012 A 
ATOM     12  C   UNL     1      -1.908  -4.410  -3.504  0.00  0.00    +0.046 A 
ATOM     13  C   UNL     1      -0.668  -4.567  -4.109  0.00  0.00    +0.124 A 
ATOM     14  C   UNL     1       0.197  -3.488  -4.202  0.00  0.00    +0.091 A 
ATOM     15  C   UNL     1      -0.180  -2.253  -3.695  0.00  0.00    +0.128 A 
BRANCH  15  16
ATOM     16  O   UNL     1       0.663  -1.192  -3.790  0.00  0.00    -0.495 OA
ATOM     17  C   UNL     1       1.921  -1.419  -4.429  0.00  0.00    +0.277 C 
ENDBRANCH  15  16
BRANCH  13  18
ATOM     18  O   UNL     1      -0.303  -5.776  -4.608  0.00  0.00    -0.495 OA
ATOM     19  C   UNL     1      -1.245  -6.843  -4.477  0.00  0.00    +0.277 C 
ENDBRANCH  13  18
ENDBRANCH   3  10
BRANCH   5  20
ATOM     20  N   UNL     1      -5.413   0.125  -3.097  0.00  0.00    -0.329 N 
ATOM     21  H   UNL     1      -5.366   0.351  -4.039  0.00  0.00    +0.145 HD
ATOM     22  H   UNL     1      -6.260   0.176  -2.627  0.00  0.00    +0.145 HD
ENDBRANCH   5  20
BRANCH   1  24
ATOM     23  C   UNL     1      -0.019   1.526   0.010  0.00  0.00    +0.010 C 
ATOM     24  C   UNL     1       0.002  -0.004   0.002  0.00  0.00    +0.054 C 
ENDBRANCH   1  24
BRANCH   4  25
ATOM     25  C   UNL     1      -3.167   0.068  -4.527  0.00  0.00    +0.101 C 
ATOM     26  N   UNL     1      -3.190   0.371  -5.621  0.00  0.00    -0.191 NA
ENDBRANCH   4  25
TORSDOF 6
