REMARK  Name = ZINC33780927
REMARK  5 active torsions:
REMARK  status: ('A' for Active; 'I' for Inactive)
REMARK    1  A    between atoms: C_8  and  N_25
REMARK    2  A    between atoms: C_9  and  C_12
REMARK    3  A    between atoms: N_16  and  C_20
REMARK    4  A    between atoms: N_25  and  C_26
REMARK    5  A    between atoms: C_26  and  C_27
REMARK                            x       y       z     vdW  Elec       q    Type
REMARK                         _______ _______ _______ _____ _____    ______ ____
ROOT
ATOM      1  C   UNL     1      -4.144  -4.242  -6.143  0.00  0.00    +0.005 A 
ATOM      2  C   UNL     1      -4.795  -3.574  -7.189  0.00  0.00    +0.018 A 
ATOM      3  C   UNL     1      -4.727  -2.227  -7.278  0.00  0.00    +0.096 A 
ATOM      4  N   UNL     1      -4.030  -1.500  -6.359  0.00  0.00    -0.268 N 
ATOM      5  C   UNL     1      -3.385  -2.124  -5.328  0.00  0.00    +0.142 A 
ATOM      6  C   UNL     1      -3.444  -3.525  -5.219  0.00  0.00    +0.047 A 
ATOM      7  N   UNL     1      -2.694  -1.432  -4.422  0.00  0.00    -0.214 NA
ATOM      8  C   UNL     1      -2.610  -0.110  -4.473  0.00  0.00    +0.134 A 
ATOM      9  C   UNL     1      -3.258   0.590  -5.518  0.00  0.00    +0.081 A 
ATOM     10  C   UNL     1      -3.984  -0.156  -6.477  0.00  0.00    +0.267 A 
ATOM     11  O   UNL     1      -4.557   0.406  -7.394  0.00  0.00    -0.267 OA
ENDROOT
BRANCH   9  12
ATOM     12  C   UNL     1      -3.182   2.000  -5.602  0.00  0.00    +0.037 C 
ATOM     13  C   UNL     1      -2.531   2.587  -6.648  0.00  0.00    +0.077 C 
ATOM     14  C   UNL     1      -1.759   1.990  -7.684  0.00  0.00    +0.259 C 
ATOM     15  O   UNL     1      -1.598   0.783  -7.730  0.00  0.00    -0.269 OA
ATOM     16  N   UNL     1      -1.225   2.782  -8.598  0.00  0.00    -0.252 N 
ATOM     17  C   UNL     1      -1.397   4.121  -8.544  0.00  0.00    +0.121 C 
ATOM     18  S   UNL     1      -0.799   5.325  -9.604  0.00  0.00    -0.027 S 
ATOM     19  S   UNL     1      -2.409   4.316  -7.084  0.00  0.00    -0.061 S 
BRANCH  16  20
ATOM     20  C   UNL     1      -0.429   2.200  -9.682  0.00  0.00    +0.083 C 
ATOM     21  C   UNL     1       0.988   2.810  -9.684  0.00  0.00    +0.023 C 
ATOM     22  C   UNL     1       1.345   2.935 -11.186  0.00  0.00    +0.002 C 
ATOM     23  C   UNL     1      -0.003   3.354 -11.824  0.00  0.00    +0.002 C 
ATOM     24  C   UNL     1      -1.059   2.546 -11.043  0.00  0.00    +0.023 C 
ENDBRANCH  16  20
ENDBRANCH   9  12
BRANCH   8  25
ATOM     25  N   UNL     1      -1.893   0.577  -3.518  0.00  0.00    -0.326 N 
ATOM     26  H   UNL     1      -1.822   1.673  -3.566  0.00  0.00    +0.148 HD
BRANCH  25  27
ATOM     27  C   UNL     1      -1.224  -0.153  -2.438  0.00  0.00    +0.134 C 
BRANCH  27  28
ATOM     28  C   UNL     1      -0.504   0.838  -1.522  0.00  0.00    +0.135 C 
ATOM     29  C   UNL     1       0.305   0.074  -0.456  0.00  0.00    +0.035 C 
ATOM     30  C   UNL     1      -0.264   0.580   0.892  0.00  0.00    +0.031 C 
ATOM     31  C   UNL     1      -0.920   1.925   0.480  0.00  0.00    +0.160 C 
ATOM     32  O   UNL     1      -1.466   1.649  -0.827  0.00  0.00    -0.375 OA
ENDBRANCH  27  28
ENDBRANCH  25  27
ENDBRANCH   8  25
TORSDOF 5
