REMARK  Name = ZINC49890365
REMARK  5 active torsions:
REMARK  status: ('A' for Active; 'I' for Inactive)
REMARK    1  A    between atoms: C_16  and  C_18
REMARK    2  A    between atoms: C_18  and  C_20
REMARK    3  A    between atoms: C_24  and  N_26
REMARK    4  A    between atoms: N_31  and  C_34
REMARK    5  A    between atoms: C_37  and  N_40
REMARK                            x       y       z     vdW  Elec       q    Type
REMARK                         _______ _______ _______ _____ _____    ______ ____
ROOT
ATOM      1  C   UNL     1      -0.017   1.374   0.010  0.00  0.00    +0.001 A 
ATOM      2  C   UNL     1       1.174   2.080   0.002  0.00  0.00    +0.000 A 
ATOM      3  C   UNL     1       2.381   1.409  -0.010  0.00  0.00    +0.006 A 
ATOM      4  C   UNL     1       2.424   0.031  -0.011  0.00  0.00    -0.019 A 
ATOM      5  C   UNL     1       1.217  -0.690  -0.011  0.00  0.00    -0.019 A 
ATOM      6  C   UNL     1       0.002  -0.004   0.002  0.00  0.00    +0.008 A 
ATOM      7  C   UNL     1       1.224  -2.166  -0.030  0.00  0.00    +0.023 C 
ATOM      8  C   UNL     1       2.362  -2.843   0.215  0.00  0.00    +0.072 C 
ATOM      9  N   UNL     1       3.489  -2.096   0.472  0.00  0.00    -0.317 N 
ATOM     10  C   UNL     1       3.701  -0.720  -0.026  0.00  0.00    +0.117 C 
ATOM     11  C   UNL     1       4.907  -0.162   0.643  0.00  0.00    +0.115 C 
ATOM     12  C   UNL     1       4.991  -1.129   1.894  0.00  0.00    +0.118 C 
ATOM     13  C   UNL     1       4.673  -2.449   1.308  0.00  0.00    +0.157 C 
ATOM     14  C   UNL     1       6.006  -0.477   2.683  0.00  0.00    +0.232 C 
ATOM     15  O   UNL     1       6.847  -0.999   3.383  0.00  0.00    -0.274 OA
ATOM     16  N   UNL     1       5.812   0.866   2.466  0.00  0.00    -0.210 N 
ATOM     17  C   UNL     1       4.942   1.116   1.424  0.00  0.00    +0.232 C 
ATOM     18  O   UNL     1       4.336   2.139   1.191  0.00  0.00    -0.274 OA
ENDROOT
BRANCH  16  19
ATOM     19  C   UNL     1       6.436   1.875   3.213  0.00  0.00    +0.044 A 
ATOM     20  C   UNL     1       6.178   3.210   2.931  0.00  0.00    +0.026 A 
ATOM     21  C   UNL     1       6.794   4.201   3.669  0.00  0.00    +0.034 A 
ATOM     22  C   UNL     1       7.667   3.866   4.688  0.00  0.00    +0.126 A 
ATOM     23  C   UNL     1       7.925   2.537   4.971  0.00  0.00    +0.034 A 
ATOM     24  C   UNL     1       7.308   1.541   4.240  0.00  0.00    +0.026 A 
BRANCH  22  25
ATOM     25  N   UNL     1       8.325   4.931   5.478  0.00  0.00    +0.056 N 
ATOM     26  O   UNL     1       8.100   6.093   5.231  0.00  0.00    -0.126 OA
ATOM     27  O   UNL     1       9.088   4.639   6.369  0.00  0.00    -0.126 OA
ENDBRANCH  22  25
ENDBRANCH  16  19
BRANCH  13  28
ATOM     28  C   UNL     1       5.809  -2.956   0.457  0.00  0.00    +0.184 C 
ATOM     29  O   UNL     1       5.825  -2.726  -0.733  0.00  0.00    -0.290 OA
BRANCH  28  30
ATOM     30  C   UNL     1       6.900  -3.730   1.071  0.00  0.00    +0.021 A 
ATOM     31  C   UNL     1       6.882  -4.003   2.443  0.00  0.00    +0.011 A 
ATOM     32  C   UNL     1       7.907  -4.729   3.011  0.00  0.00    +0.003 A 
ATOM     33  C   UNL     1       8.952  -5.188   2.228  0.00  0.00    +0.033 A 
ATOM     34  C   UNL     1       8.976  -4.923   0.870  0.00  0.00    +0.127 A 
ATOM     35  C   UNL     1       7.955  -4.203   0.286  0.00  0.00    +0.044 A 
BRANCH  34  36
ATOM     36  N   UNL     1      10.098  -5.418   0.041  0.00  0.00    +0.056 N 
ATOM     37  O   UNL     1      10.992  -6.053   0.550  0.00  0.00    -0.126 OA
ATOM     38  O   UNL     1      10.121  -5.187  -1.146  0.00  0.00    -0.126 OA
ENDBRANCH  34  36
ENDBRANCH  28  30
ENDBRANCH  13  28
TORSDOF 5
