REMARK  Name = ZINC47342670
REMARK  6 active torsions:
REMARK  status: ('A' for Active; 'I' for Inactive)
REMARK    1  A    between atoms: N_3  and  C_25
REMARK    2  A    between atoms: C_8  and  C_10
REMARK    3  A    between atoms: C_10  and  C_11
REMARK    4  A    between atoms: C_11  and  N_12
REMARK    5  A    between atoms: C_13  and  C_15
REMARK    6  A    between atoms: C_25  and  C_26
REMARK                            x       y       z     vdW  Elec       q    Type
REMARK                         _______ _______ _______ _____ _____    ______ ____
ROOT
ATOM      1  C   UNL     1       0.270   1.611   0.557  0.00  0.00    +0.000 C 
ATOM      2  C   UNL     1       1.647   2.187   0.311  0.00  0.00    -0.077 C 
ATOM      3  N   UNL     1       1.881   2.279  -1.128  0.00  0.00    +0.386 N 
ATOM      4  C   UNL     1       2.429   1.117  -1.717  0.00  0.00    -0.059 C 
ATOM      5  C   UNL     1       1.437  -0.063  -1.595  0.00  0.00    +0.089 C 
ATOM      6  N   UNL     1       1.352  -0.492  -0.214  0.00  0.00    -0.303 N 
ATOM      7  C   UNL     1       0.377   0.085   0.734  0.00  0.00    +0.106 C 
ATOM      8  C   UNL     1       2.191  -1.452   0.221  0.00  0.00    +0.217 C 
ATOM      9  O   UNL     1       3.000  -1.941  -0.539  0.00  0.00    -0.276 OA
ATOM     10  H   UNL     1       1.003   2.481  -1.581  0.00  0.00    -0.081 HD
ENDROOT
BRANCH   8  11
ATOM     11  C   UNL     1       2.125  -1.918   1.653  0.00  0.00    +0.114 C 
BRANCH  11  12
ATOM     12  C   UNL     1       3.177  -3.005   1.885  0.00  0.00    +0.113 C 
BRANCH  12  13
ATOM     13  N   UNL     1       3.112  -3.458   3.276  0.00  0.00    -0.314 N 
ATOM     14  C   UNL     1       3.952  -4.418   3.712  0.00  0.00    +0.219 C 
ATOM     15  O   UNL     1       4.761  -4.907   2.952  0.00  0.00    -0.275 OA
ATOM     16  H   UNL     1       2.466  -3.067   3.884  0.00  0.00    +0.149 HD
BRANCH  14  17
ATOM     17  C   UNL     1       3.886  -4.884   5.143  0.00  0.00    +0.048 C 
ATOM     18  C   UNL     1       4.159  -3.703   6.077  0.00  0.00    +0.019 C 
ATOM     19  C   UNL     1       4.091  -4.177   7.531  0.00  0.00    -0.009 C 
ATOM     20  C   UNL     1       5.143  -5.263   7.762  0.00  0.00    +0.007 C 
ATOM     21  C   UNL     1       4.870  -6.444   6.828  0.00  0.00    -0.009 C 
ATOM     22  C   UNL     1       4.938  -5.971   5.375  0.00  0.00    +0.019 C 
ATOM     23  C   UNL     1       3.479  -7.011   7.116  0.00  0.00    +0.007 C 
ATOM     24  C   UNL     1       2.427  -5.925   6.885  0.00  0.00    -0.009 C 
ATOM     25  C   UNL     1       2.700  -4.744   7.819  0.00  0.00    +0.007 C 
ATOM     26  C   UNL     1       2.494  -5.451   5.431  0.00  0.00    +0.019 C 
ENDBRANCH  14  17
ENDBRANCH  12  13
ENDBRANCH  11  12
ENDBRANCH   8  11
BRANCH   3  27
ATOM     27  C   UNL     1       2.795   3.401  -1.378  0.00  0.00    +0.018 C 
BRANCH  27  28
ATOM     28  C   UNL     1       2.110   4.696  -1.025  0.00  0.00    +0.194 C 
ATOM     29  O   UNL     1       0.939   4.695  -0.708  0.00  0.00    -0.278 OA
ATOM     30  N   UNL     1       2.798   5.854  -1.060  0.00  0.00    -0.331 N 
ATOM     31  H   UNL     1       3.734   5.854  -1.314  0.00  0.00    +0.145 HD
ATOM     32  H   UNL     1       2.357   6.687  -0.833  0.00  0.00    +0.145 HD
ENDBRANCH  27  28
ENDBRANCH   3  27
TORSDOF 6
