REMARK  Name = ZINC02729875
REMARK  8 active torsions:
REMARK  status: ('A' for Active; 'I' for Inactive)
REMARK    1  A    between atoms: C_1  and  C_2
REMARK    2  A    between atoms: C_2  and  O_3
REMARK    3  A    between atoms: O_3  and  C_4
REMARK    4  A    between atoms: C_4  and  C_6
REMARK    5  A    between atoms: C_9  and  N_12
REMARK    6  A    between atoms: C_16  and  N_20
REMARK    7  A    between atoms: N_20  and  C_21
REMARK    8  A    between atoms: C_24  and  O_28
REMARK                            x       y       z     vdW  Elec       q    Type
REMARK                         _______ _______ _______ _____ _____    ______ ____
ROOT
ATOM      1  N   UNL     1       3.369  -3.896  -5.888  0.00  0.00    -0.209 N 
ATOM      2  C   UNL     1       3.822  -3.124  -6.883  0.00  0.00    +0.228 C 
ATOM      3  O   UNL     1       3.736  -1.915  -6.930  0.00  0.00    -0.275 OA
ATOM      4  C   UNL     1       4.460  -3.998  -7.941  0.00  0.00    +0.128 C 
ATOM      5  C   UNL     1       4.294  -5.425  -7.378  0.00  0.00    +0.166 C 
ATOM      6  C   UNL     1       3.586  -5.206  -6.059  0.00  0.00    +0.247 C 
ATOM      7  O   UNL     1       3.263  -6.078  -5.282  0.00  0.00    -0.273 OA
ENDROOT
BRANCH   1  11
ATOM      8  C   UNL     1       1.455  -2.346  -2.524  0.00  0.00    +0.059 A 
ATOM      9  C   UNL     1       2.713  -2.943  -2.402  0.00  0.00    +0.017 A 
ATOM     10  C   UNL     1       3.342  -3.454  -3.515  0.00  0.00    +0.025 A 
ATOM     11  C   UNL     1       2.727  -3.376  -4.760  0.00  0.00    +0.044 A 
ATOM     12  C   UNL     1       1.475  -2.783  -4.886  0.00  0.00    +0.025 A 
ATOM     13  C   UNL     1       0.838  -2.275  -3.776  0.00  0.00    +0.017 A 
BRANCH   8  14
ATOM     14  C   UNL     1       0.778  -1.797  -1.334  0.00  0.00    +0.339 C 
ATOM     15  O   UNL     1      -0.318  -1.283  -1.442  0.00  0.00    -0.245 OA
BRANCH  14  16
ATOM     16  O   UNL     1       1.374  -1.866  -0.128  0.00  0.00    -0.461 OA
BRANCH  16  18
ATOM     17  C   UNL     1       1.490  -1.484   2.256  0.00  0.00    +0.048 C 
ATOM     18  C   UNL     1       0.661  -1.315   0.981  0.00  0.00    +0.229 C 
ENDBRANCH  16  18
ENDBRANCH  14  16
ENDBRANCH   8  14
ENDBRANCH   1  11
BRANCH   5  19
ATOM     19  N   UNL     1       3.480  -6.244  -8.280  0.00  0.00    -0.332 N 
ATOM     20  H   UNL     1       2.845  -5.820  -8.879  0.00  0.00    +0.147 HD
BRANCH  19  21
ATOM     21  C   UNL     1       3.618  -7.636  -8.277  0.00  0.00    +0.031 A 
ATOM     22  C   UNL     1       4.522  -8.242  -7.415  0.00  0.00    +0.046 A 
ATOM     23  C   UNL     1       4.658  -9.618  -7.412  0.00  0.00    +0.085 A 
ATOM     24  C   UNL     1       3.891 -10.393  -8.271  0.00  0.00    +0.153 A 
ATOM     25  C   UNL     1       2.987  -9.787  -9.133  0.00  0.00    +0.085 A 
ATOM     26  C   UNL     1       2.846  -8.412  -9.131  0.00  0.00    +0.046 A 
ATOM     27 CL   UNL     1       2.029 -10.757 -10.207  0.00  0.00    -0.080 Cl
ATOM     28 CL   UNL     1       5.788 -10.377  -6.335  0.00  0.00    -0.080 Cl
BRANCH  24  29
ATOM     29  O   UNL     1       4.025 -11.747  -8.268  0.00  0.00    -0.504 OA
ATOM     30  H   UNL     1       3.435 -12.199  -7.650  0.00  0.00    +0.292 HD
ENDBRANCH  24  29
ENDBRANCH  19  21
ENDBRANCH   5  19
TORSDOF 7
