REMARK  Name = ZINC01454060
REMARK  8 active torsions:
REMARK  status: ('A' for Active; 'I' for Inactive)
REMARK    1  A    between atoms: C_1  and  C_2
REMARK    2  A    between atoms: C_4  and  C_29
REMARK    3  A    between atoms: C_5  and  N_9
REMARK    4  A    between atoms: C_6  and  C_8
REMARK    5  A    between atoms: C_10  and  C_12
REMARK    6  A    between atoms: C_12  and  C_27
REMARK    7  A    between atoms: C_13  and  C_14
REMARK    8  A    between atoms: C_17  and  C_19
REMARK                            x       y       z     vdW  Elec       q    Type
REMARK                         _______ _______ _______ _____ _____    ______ ____
ROOT
ATOM      1  C   UNL     1       3.779   5.916  -0.307  0.00  0.00    +0.117 C 
ATOM      2  C   UNL     1       3.807   7.249  -0.694  0.00  0.00    +0.070 C 
ENDROOT
BRANCH   2   3
ATOM      3  C   UNL     1       5.026   7.943  -0.734  0.00  0.00    +0.130 A 
ATOM      4  C   UNL     1       5.196   9.270  -1.106  0.00  0.00    +0.050 A 
ATOM      5  C   UNL     1       6.558   9.547  -0.998  0.00  0.00    +0.050 A 
ATOM      6  C   UNL     1       7.174   8.387  -0.575  0.00  0.00    +0.137 A 
ATOM      7  O   UNL     1       6.238   7.435  -0.422  0.00  0.00    -0.455 OA
BRANCH   6   8
ATOM      8  C   UNL     1       8.620   8.220  -0.332  0.00  0.00    +0.037 A 
ATOM      9  C   UNL     1       9.070   7.658   0.865  0.00  0.00    +0.033 A 
ATOM     10  C   UNL     1      10.423   7.504   1.086  0.00  0.00    +0.042 A 
ATOM     11  C   UNL     1      11.335   7.907   0.123  0.00  0.00    +0.021 A 
ATOM     12  C   UNL     1      10.897   8.464  -1.064  0.00  0.00    +0.022 A 
ATOM     13  C   UNL     1       9.546   8.619  -1.301  0.00  0.00    +0.052 A 
ATOM     14 CL   UNL     1       8.998   9.312  -2.795  0.00  0.00    -0.083 Cl
ATOM     15 CL   UNL     1      10.985   6.806   2.572  0.00  0.00    -0.084 Cl
ENDBRANCH   6   8
ENDBRANCH   2   3
BRANCH   1  17
ATOM     16  N   UNL     1       2.478   3.896   0.111  0.00  0.00    -0.280 N 
ATOM     17  C   UNL     1       2.505   5.190  -0.265  0.00  0.00    +0.259 C 
ATOM     18  O   UNL     1       1.472   5.757  -0.571  0.00  0.00    -0.269 OA
ATOM     19  H   UNL     1       3.398   3.407   0.464  0.00  0.00    +0.155 HD
BRANCH  16  24
ATOM     20  C   UNL     1      -2.380   0.979  -0.134  0.00  0.00    +0.044 C 
ATOM     21  C   UNL     1      -1.089   1.752  -0.067  0.00  0.00    -0.050 A 
ATOM     22  C   UNL     1       0.027   1.293  -0.742  0.00  0.00    +0.008 A 
ATOM     23  C   UNL     1       1.210   2.002  -0.687  0.00  0.00    -0.029 A 
ATOM     24  C   UNL     1       1.281   3.176   0.052  0.00  0.00    +0.040 A 
ATOM     25  C   UNL     1       0.160   3.632   0.734  0.00  0.00    -0.029 A 
ATOM     26  C   UNL     1      -1.020   2.917   0.675  0.00  0.00    +0.008 A 
ATOM     27  C   UNL     1       0.232   4.905   1.537  0.00  0.00    +0.045 C 
ATOM     28  C   UNL     1       2.424   1.504  -1.429  0.00  0.00    +0.045 C 
ENDBRANCH  16  24
ENDBRANCH   1  17
BRANCH   1  29
ATOM     29  C   UNL     1       4.995   5.250   0.052  0.00  0.00    +0.104 C 
ATOM     30  N   UNL     1       5.959   4.721   0.337  0.00  0.00    -0.191 NA
ENDBRANCH   1  29
TORSDOF 5
