REMARK  Name = ZINC11673025
REMARK  10 active torsions:
REMARK  status: ('A' for Active; 'I' for Inactive)
REMARK    1  A    between atoms: C_1  and  C_2
REMARK    2  A    between atoms: C_2  and  O_3
REMARK    3  A    between atoms: O_3  and  C_4
REMARK    4  A    between atoms: C_4  and  C_6
REMARK    5  A    between atoms: C_7  and  C_20
REMARK    6  A    between atoms: C_12  and  C_14
REMARK    7  A    between atoms: C_20  and  O_21
REMARK    8  A    between atoms: O_21  and  C_22
REMARK    9  A    between atoms: C_22  and  C_24
REMARK   10  A    between atoms: C_25  and  C_26
REMARK                            x       y       z     vdW  Elec       q    Type
REMARK                         _______ _______ _______ _____ _____    ______ ____
ROOT
ATOM      1  C   UNL     1       4.318   2.167   1.077  0.00  0.00    +0.081 C 
ATOM      2  C   UNL     1       3.614   1.988  -0.061  0.00  0.00    +0.061 C 
ATOM      3  N   UNL     1       3.882   2.725  -1.179  0.00  0.00    -0.269 N 
ATOM      4  C   UNL     1       4.830   3.669  -1.236  0.00  0.00    +0.304 C 
ATOM      5  O   UNL     1       4.992   4.278  -2.275  0.00  0.00    -0.252 OA
ATOM      6  N   UNL     1       5.615   3.962  -0.180  0.00  0.00    -0.288 N 
ATOM      7  C   UNL     1       5.410   3.217   1.074  0.00  0.00    +0.144 C 
ATOM      8  H   UNL     1       3.353   2.559  -1.975  0.00  0.00    +0.156 HD
ATOM      9  H   UNL     1       6.299   4.647  -0.245  0.00  0.00    +0.151 HD
ENDROOT
BRANCH   7  10
ATOM     10  C   UNL     1       6.708   2.539   1.429  0.00  0.00    -0.022 A 
ATOM     11  C   UNL     1       7.402   1.828   0.468  0.00  0.00    +0.006 A 
ATOM     12  C   UNL     1       8.595   1.210   0.793  0.00  0.00    +0.000 A 
ATOM     13  C   UNL     1       9.089   1.294   2.081  0.00  0.00    +0.000 A 
ATOM     14  C   UNL     1       8.392   2.001   3.044  0.00  0.00    +0.000 A 
ATOM     15  C   UNL     1       7.202   2.623   2.718  0.00  0.00    +0.006 A 
ENDBRANCH   7  10
BRANCH   1  16
ATOM     16  C   UNL     1       4.045   1.400   2.234  0.00  0.00    +0.339 C 
ATOM     17  O   UNL     1       3.392   1.880   3.142  0.00  0.00    -0.245 OA
BRANCH  16  18
ATOM     18  O   UNL     1       4.508   0.136   2.331  0.00  0.00    -0.462 OA
BRANCH  18  20
ATOM     19  C   UNL     1       4.798  -1.984   3.455  0.00  0.00    +0.048 C 
ATOM     20  C   UNL     1       4.194  -0.580   3.527  0.00  0.00    +0.229 C 
ENDBRANCH  18  20
ENDBRANCH  16  18
ENDBRANCH   1  16
BRANCH   2  21
ATOM     21  C   UNL     1       2.519   0.953  -0.101  0.00  0.00    +0.283 C 
BRANCH  21  22
ATOM     22  O   UNL     1       1.259   1.600  -0.287  0.00  0.00    -0.456 OA
BRANCH  22  23
ATOM     23  C   UNL     1       0.166   0.809  -0.345  0.00  0.00    +0.332 C 
ATOM     24  O   UNL     1       0.283  -0.398  -0.240  0.00  0.00    -0.246 OA
BRANCH  23  25
ATOM     25  C   UNL     1      -1.110   1.381  -0.534  0.00  0.00    +0.092 C 
ATOM     26  C   UNL     1      -2.209   0.584  -0.598  0.00  0.00    +0.022 C 
BRANCH  26  27
ATOM     27  C   UNL     1      -3.487   1.157  -0.787  0.00  0.00    +0.014 A 
ATOM     28  C   UNL     1      -4.724   0.528  -0.885  0.00  0.00    +0.017 A 
ATOM     29  C   UNL     1      -5.820   1.333  -1.064  0.00  0.00    +0.028 A 
ATOM     30  C   UNL     1      -5.647   2.681  -1.148  0.00  0.00    +0.079 A 
ATOM     31  S   UNL     1      -3.934   2.875  -0.969  0.00  0.00    -0.077 S 
ATOM     32 CL   UNL     1      -6.852   3.909  -1.379  0.00  0.00    -0.076 Cl
ENDBRANCH  26  27
ENDBRANCH  23  25
ENDBRANCH  22  23
ENDBRANCH  21  22
ENDBRANCH   2  21
TORSDOF 9
