REMARK  Name = ZINC09450403
REMARK  4 active torsions:
REMARK  status: ('A' for Active; 'I' for Inactive)
REMARK    1  A    between atoms: C_1  and  N_2
REMARK    2  A    between atoms: C_9  and  N_29
REMARK    3  A    between atoms: C_19  and  C_20
REMARK    4  A    between atoms: C_19  and  N_59
REMARK                            x       y       z     vdW  Elec       q    Type
REMARK                         _______ _______ _______ _____ _____    ______ ____
ROOT
ATOM      1  C   UNL     1      -2.030   6.866  -3.248  0.00  0.00    +0.143 C 
ATOM      2  N   UNL     1      -1.403   6.392  -2.011  0.00  0.00    -0.228 N 
ATOM      3  C   UNL     1      -2.095   5.578  -1.201  0.00  0.00    +0.240 C 
ATOM      4  O   UNL     1      -3.218   5.249  -1.517  0.00  0.00    -0.274 OA
ATOM      5  C   UNL     1      -1.518   5.061   0.086  0.00  0.00    +0.144 C 
ATOM      6  C   UNL     1      -2.403   5.502   1.256  0.00  0.00    +0.064 C 
ATOM      7  C   UNL     1      -2.042   4.721   2.494  0.00  0.00    -0.023 A 
ATOM      8  C   UNL     1      -2.499   5.187   3.717  0.00  0.00    +0.038 A 
ATOM      9  C   UNL     1      -2.213   4.500   4.880  0.00  0.00    +0.127 A 
ATOM     10  C   UNL     1      -1.466   3.337   4.828  0.00  0.00    +0.034 A 
ATOM     11  C   UNL     1      -1.005   2.870   3.616  0.00  0.00    +0.025 A 
ATOM     12  C   UNL     1      -1.287   3.562   2.438  0.00  0.00    +0.033 A 
ATOM     13  N   UNL     1      -0.787   3.047   1.246  0.00  0.00    -0.329 N 
ATOM     14  C   UNL     1      -1.500   3.529   0.061  0.00  0.00    +0.081 C 
ATOM     15  C   UNL     1      -0.781   3.042  -1.199  0.00  0.00    -0.054 C 
ATOM     16  C   UNL     1      -0.013   1.086   0.008  0.00  0.00    -0.059 C 
ATOM     17  C   UNL     1      -0.729   1.580   1.268  0.00  0.00    +0.087 C 
ATOM     18  C   UNL     1      -0.122   5.578   0.287  0.00  0.00    +0.238 C 
ATOM     19  O   UNL     1       0.488   5.253   1.283  0.00  0.00    -0.274 OA
ATOM     20  N   UNL     1       0.469   6.386  -0.604  0.00  0.00    -0.239 N 
ATOM     21  C   UNL     1      -0.154   6.786  -1.722  0.00  0.00    +0.315 C 
ATOM     22  O   UNL     1       0.428   7.523  -2.493  0.00  0.00    -0.252 OA
ATOM     23  H   UNL     1       1.374   6.692  -0.434  0.00  0.00    +0.159 HD
ATOM     24  N   UNL     1      -0.750   1.562  -1.181  0.00  0.00    +0.385 N 
ATOM     25  H   UNL     1      -1.714   1.209  -1.140  0.00  0.00    -0.081 HD
ENDROOT
BRANCH   9  26
ATOM     26  N   UNL     1      -2.705   5.007   6.180  0.00  0.00    +0.056 N 
ATOM     27  O   UNL     1      -2.452   4.401   7.206  0.00  0.00    -0.126 OA
ATOM     28  O   UNL     1      -3.363   6.031   6.225  0.00  0.00    -0.126 OA
ENDBRANCH   9  26
BRANCH  24  29
ATOM     29  C   UNL     1      -0.106   1.056  -2.411  0.00  0.00    -0.043 C 
BRANCH  29  30
ATOM     30  C   UNL     1      -0.285  -0.439  -2.474  0.00  0.00    -0.060 A 
ATOM     31  C   UNL     1      -1.403  -0.975  -3.084  0.00  0.00    +0.005 A 
ATOM     32  C   UNL     1      -1.571  -2.346  -3.144  0.00  0.00    +0.050 A 
ATOM     33  C   UNL     1      -0.619  -3.186  -2.591  0.00  0.00    +0.166 A 
ATOM     34  C   UNL     1       0.508  -2.646  -1.976  0.00  0.00    +0.166 A 
ATOM     35  C   UNL     1       0.673  -1.271  -1.925  0.00  0.00    +0.051 A 
ATOM     36  O   UNL     1       1.286  -3.669  -1.516  0.00  0.00    -0.453 OA
ATOM     37  C   UNL     1       0.830  -4.843  -2.213  0.00  0.00    +0.466 C 
ATOM     38  O   UNL     1      -0.546  -4.547  -2.517  0.00  0.00    -0.453 OA
ENDBRANCH  29  30
ENDBRANCH  24  29
TORSDOF 3
