REMARK  Name = ZINC25589209
REMARK  9 active torsions:
REMARK  status: ('A' for Active; 'I' for Inactive)
REMARK    1  A    between atoms: C_1  and  C_2
REMARK    2  A    between atoms: C_2  and  C_3
REMARK    3  A    between atoms: C_4  and  C_25
REMARK    4  A    between atoms: C_5  and  N_24
REMARK    5  A    between atoms: C_7  and  S_9
REMARK    6  A    between atoms: S_9  and  C_10
REMARK    7  A    between atoms: C_10  and  C_12
REMARK    8  A    between atoms: C_10  and  C_13
REMARK    9  A    between atoms: N_15  and  C_16
REMARK                            x       y       z     vdW  Elec       q    Type
REMARK                         _______ _______ _______ _____ _____    ______ ____
ROOT
ATOM      1  C   UNL     1       0.691   1.398  -4.964  0.00  0.00    +0.055 A 
ATOM      2  C   UNL     1       1.853   0.697  -4.650  0.00  0.00    +0.043 A 
ATOM      3  C   UNL     1       2.137   0.452  -3.294  0.00  0.00    +0.129 A 
ATOM      4  N   UNL     1       1.294   0.899  -2.371  0.00  0.00    -0.207 NA
ATOM      5  C   UNL     1       0.197   1.558  -2.717  0.00  0.00    +0.191 A 
ATOM      6  N   UNL     1      -0.100   1.806  -3.986  0.00  0.00    -0.226 NA
ENDROOT
BRANCH   2   7
ATOM      7  C   UNL     1       2.767   0.222  -5.717  0.00  0.00    -0.013 A 
ATOM      8  C   UNL     1       2.340  -0.746  -6.624  0.00  0.00    +0.010 A 
ATOM      9  C   UNL     1       3.192  -1.182  -7.617  0.00  0.00    +0.020 A 
ATOM     10  C   UNL     1       4.474  -0.666  -7.708  0.00  0.00    +0.041 A 
ATOM     11  C   UNL     1       4.905   0.292  -6.806  0.00  0.00    +0.020 A 
ATOM     12  C   UNL     1       4.059   0.738  -5.812  0.00  0.00    +0.010 A 
ATOM     13 CL   UNL     1       5.544  -1.224  -8.956  0.00  0.00    -0.084 Cl
ENDBRANCH   2   7
BRANCH   3  14
ATOM     14  N   UNL     1       3.278  -0.240  -2.928  0.00  0.00    -0.343 N 
ATOM     15  H   UNL     1       3.491  -0.427  -1.865  0.00  0.00    +0.144 HD
ATOM     16  H   UNL     1       3.972  -0.604  -3.700  0.00  0.00    +0.144 HD
ENDBRANCH   3  14
BRANCH   1  18
ATOM     17  C   UNL     1       0.950   3.029  -6.815  0.00  0.00    +0.010 C 
ATOM     18  C   UNL     1       0.339   1.688  -6.401  0.00  0.00    +0.053 C 
ENDBRANCH   1  18
BRANCH   5  19
ATOM     19  S   UNL     1      -0.894   2.125  -1.456  0.00  0.00    -0.074 S 
BRANCH  19  20
ATOM     20  C   UNL     1      -0.019   1.526   0.010  0.00  0.00    +0.137 C 
ATOM     21  C   UNL     1       0.002  -0.004   0.002  0.00  0.00    +0.029 C 
BRANCH  20  22
ATOM     22  C   UNL     1      -0.724   2.012   1.250  0.00  0.00    +0.226 C 
ATOM     23  O   UNL     1      -1.905   2.284   1.209  0.00  0.00    -0.275 OA
ATOM     24  N   UNL     1      -0.042   2.143   2.405  0.00  0.00    -0.310 N 
ATOM     25  H   UNL     1       1.029   1.896   2.443  0.00  0.00    +0.149 HD
BRANCH  24  26
ATOM     26  C   UNL     1      -0.728   2.616   3.611  0.00  0.00    +0.095 C 
ATOM     27  C   UNL     1      -1.392   1.424   4.321  0.00  0.00    +0.046 C 
ATOM     28  C   UNL     1      -1.837   1.890   5.736  0.00  0.00    +0.168 C 
ATOM     29  S   UNL     1      -0.387   2.919   6.223  0.00  0.00    -0.029 S 
ATOM     30  O   UNL     1       0.538   2.107   6.933  0.00  0.00    -0.174 OA
ATOM     31  O   UNL     1      -0.853   4.127   6.809  0.00  0.00    -0.174 OA
ATOM     32  C   UNL     1       0.297   3.287   4.556  0.00  0.00    +0.188 C 
ENDBRANCH  24  26
ENDBRANCH  20  22
ENDBRANCH  19  20
ENDBRANCH   5  19
TORSDOF 7
