REMARK  Name = ZINC33428853
REMARK  7 active torsions:
REMARK  status: ('A' for Active; 'I' for Inactive)
REMARK    1  A    between atoms: C_1  and  C_2
REMARK    2  A    between atoms: C_2  and  O_25
REMARK    3  A    between atoms: N_4  and  C_24
REMARK    4  A    between atoms: C_5  and  C_18
REMARK    5  A    between atoms: C_8  and  C_9
REMARK    6  A    between atoms: C_8  and  O_17
REMARK    7  A    between atoms: C_10  and  C_11
REMARK                            x       y       z     vdW  Elec       q    Type
REMARK                         _______ _______ _______ _____ _____    ______ ____
ROOT
ATOM      1  C   UNL     1      -4.588   1.511  -1.260  0.00  0.00    +0.043 C 
ATOM      2  C   UNL     1      -4.373   3.026  -1.215  0.00  0.00    +0.089 C 
ATOM      3  C   UNL     1      -3.599   3.470  -2.458  0.00  0.00    -0.040 C 
ATOM      4  N   UNL     1      -3.375   4.920  -2.404  0.00  0.00    +0.384 N 
ATOM      5  C   UNL     1      -2.566   5.289  -1.236  0.00  0.00    -0.034 C 
ATOM      6  C   UNL     1      -3.309   4.899   0.044  0.00  0.00    +0.040 C 
ATOM      7  C   UNL     1      -3.571   3.391   0.037  0.00  0.00    +0.152 C 
ATOM      8  C   UNL     1      -2.757   5.403  -3.646  0.00  0.00    -0.095 C 
ATOM      9  H   UNL     1      -4.356   5.407  -2.301  0.00  0.00    -0.081 HD
ENDROOT
BRANCH   5  10
ATOM     10  C   UNL     1      -2.324   6.777  -1.242  0.00  0.00    -0.061 A 
ATOM     11  C   UNL     1      -3.337   7.640  -1.615  0.00  0.00    +0.002 A 
ATOM     12  C   UNL     1      -3.116   9.005  -1.616  0.00  0.00    +0.000 A 
ATOM     13  C   UNL     1      -1.879   9.505  -1.255  0.00  0.00    +0.000 A 
ATOM     14  C   UNL     1      -0.864   8.641  -0.888  0.00  0.00    +0.000 A 
ATOM     15  C   UNL     1      -1.087   7.277  -0.881  0.00  0.00    +0.002 A 
ENDBRANCH   5  10
BRANCH   7  16
ATOM     16  C   UNL     1      -2.288   2.669   0.027  0.00  0.00    -0.060 C 
ATOM     17  C   UNL     1      -1.265   2.093   0.019  0.00  0.00    -0.063 C 
BRANCH  17  18
ATOM     18  C   UNL     1      -0.017   1.391   0.010  0.00  0.00    +0.025 A 
ATOM     19  C   UNL     1       1.185   2.099   0.002  0.00  0.00    +0.017 A 
ATOM     20  C   UNL     1       2.385   1.417  -0.013  0.00  0.00    +0.001 A 
ATOM     21  C   UNL     1       2.396   0.034  -0.020  0.00  0.00    +0.000 A 
ATOM     22  C   UNL     1       1.208  -0.674  -0.013  0.00  0.00    +0.001 A 
ATOM     23  C   UNL     1       0.002  -0.004   0.002  0.00  0.00    +0.017 A 
ENDBRANCH  17  18
ENDBRANCH   7  16
BRANCH   7  24
ATOM     24  O   UNL     1      -4.313   3.029   1.204  0.00  0.00    -0.374 OA
ATOM     25  H   UNL     1      -3.893   3.217   2.203  0.00  0.00    +0.212 HD
ENDBRANCH   7  24
BRANCH   2  26
ATOM     26  O   UNL     1      -5.640   3.687  -1.179  0.00  0.00    -0.387 OA
ATOM     27  H   UNL     1      -5.686   4.785  -1.144  0.00  0.00    +0.210 HD
ENDBRANCH   2  26
TORSDOF 5
