REMARK  Name = ZINC13499165
REMARK  13 active torsions:
REMARK  status: ('A' for Active; 'I' for Inactive)
REMARK    1  A    between atoms: C_1  and  C_2
REMARK    2  A    between atoms: C_7  and  C_15
REMARK    3  A    between atoms: C_13  and  C_14
REMARK    4  A    between atoms: C_15  and  N_75
REMARK    5  A    between atoms: C_16  and  N_75
REMARK    6  A    between atoms: C_21  and  C_23
REMARK    7  A    between atoms: C_21  and  C_36
REMARK    8  A    between atoms: C_21  and  N_75
REMARK    9  A    between atoms: N_27  and  C_28
REMARK   10  A    between atoms: C_28  and  C_29
REMARK   11  A    between atoms: C_29  and  C_30
REMARK   12  A    between atoms: C_36  and  C_37
REMARK   13  A    between atoms: C_36  and  C_38
REMARK                            x       y       z     vdW  Elec       q    Type
REMARK                         _______ _______ _______ _____ _____    ______ ____
ROOT
ATOM      1  N   UNL     1       0.542  -0.522   2.775  0.00  0.00    +0.391 N 
ATOM      2  H   UNL     1      -0.423  -0.490   2.426  0.00  0.00    -0.080 HD
ENDROOT
BRANCH   1   3
ATOM      3  C   UNL     1       0.638  -1.554   3.828  0.00  0.00    -0.067 C 
ATOM      4  C   UNL     1       2.011  -1.506   4.529  0.00  0.00    -0.015 C 
ATOM      5  C   UNL     1       2.349  -2.994   4.804  0.00  0.00    -0.002 C 
ATOM      6  C   UNL     1       1.816  -3.706   3.536  0.00  0.00    -0.002 C 
ATOM      7  C   UNL     1       0.514  -2.952   3.197  0.00  0.00    -0.015 C 
ENDBRANCH   1   3
BRANCH   1   8
ATOM      8  C   UNL     1       1.445  -0.859   1.654  0.00  0.00    -0.036 C 
BRANCH   8  15
ATOM      9  C   UNL     1       9.094   0.068   3.719  0.00  0.00    +0.044 C 
ATOM     10  C   UNL     1       7.679  -0.331   3.386  0.00  0.00    -0.046 A 
ATOM     11  C   UNL     1       7.281  -1.651   3.552  0.00  0.00    +0.004 A 
ATOM     12  C   UNL     1       6.004  -2.034   3.257  0.00  0.00    +0.010 A 
ATOM     13  C   UNL     1       5.088  -1.089   2.783  0.00  0.00    -0.001 A 
ATOM     14  C   UNL     1       3.712  -1.465   2.456  0.00  0.00    +0.017 A 
ATOM     15  C   UNL     1       2.869  -0.506   2.000  0.00  0.00    +0.001 A 
ATOM     16  C   UNL     1       3.322   0.822   1.842  0.00  0.00    +0.251 A 
ATOM     17  O   UNL     1       2.549   1.668   1.425  0.00  0.00    -0.268 OA
ATOM     18  N   UNL     1       4.582   1.178   2.144  0.00  0.00    -0.322 N 
ATOM     19  H   UNL     1       4.860   2.100   2.028  0.00  0.00    +0.169 HD
ATOM     20  C   UNL     1       5.488   0.250   2.613  0.00  0.00    +0.052 A 
ATOM     21  C   UNL     1       6.794   0.617   2.921  0.00  0.00    -0.024 A 
ATOM     22  C   UNL     1       7.240   2.046   2.746  0.00  0.00    +0.046 C 
ENDBRANCH   8  15
ENDBRANCH   1   8
BRANCH   1  23
ATOM     23  C   UNL     1       0.898   0.801   3.330  0.00  0.00    +0.006 C 
BRANCH  23  24
ATOM     24  C   UNL     1       0.376   0.907   4.740  0.00  0.00    +0.138 A 
ATOM     25  N   UNL     1      -0.825   0.587   5.156  0.00  0.00    -0.115 NA
ATOM     26  N   UNL     1      -0.882   0.820   6.422  0.00  0.00    -0.023 NA
ATOM     27  N   UNL     1       0.252   1.279   6.824  0.00  0.00    -0.044 NA
ATOM     28  N   UNL     1       1.056   1.342   5.817  0.00  0.00    -0.231 N 
BRANCH  28  29
ATOM     29  C   UNL     1       2.446   1.805   5.841  0.00  0.00    +0.152 C 
BRANCH  29  30
ATOM     30  C   UNL     1       2.475   3.334   5.805  0.00  0.00    +0.058 C 
BRANCH  30  31
ATOM     31  C   UNL     1       3.904   3.808   5.746  0.00  0.00    -0.046 A 
ATOM     32  C   UNL     1       4.598   4.058   6.916  0.00  0.00    +0.004 A 
ATOM     33  C   UNL     1       5.911   4.487   6.862  0.00  0.00    +0.000 A 
ATOM     34  C   UNL     1       6.526   4.678   5.639  0.00  0.00    +0.000 A 
ATOM     35  C   UNL     1       5.831   4.433   4.470  0.00  0.00    +0.000 A 
ATOM     36  C   UNL     1       4.520   3.998   4.523  0.00  0.00    +0.004 A 
ENDBRANCH  30  31
ENDBRANCH  29  30
ENDBRANCH  28  29
ENDBRANCH  23  24
BRANCH  23  37
ATOM     37  C   UNL     1       0.251   1.884   2.464  0.00  0.00    -0.024 C 
ATOM     38  C   UNL     1       0.548   3.260   3.062  0.00  0.00    +0.006 C 
ATOM     39  C   UNL     1      -1.263   1.664   2.418  0.00  0.00    +0.006 C 
ENDBRANCH  23  37
ENDBRANCH   1  23
TORSDOF 9
