REMARK  Name = ZINC08417831
REMARK  9 active torsions:
REMARK  status: ('A' for Active; 'I' for Inactive)
REMARK    1  A    between atoms: C_1  and  C_2
REMARK    2  A    between atoms: C_7  and  N_12
REMARK    3  A    between atoms: C_9  and  C_11
REMARK    4  A    between atoms: N_12  and  C_13
REMARK    5  A    between atoms: C_13  and  N_15
REMARK    6  A    between atoms: N_15  and  N_16
REMARK    7  A    between atoms: C_17  and  C_19
REMARK    8  A    between atoms: C_19  and  O_20
REMARK    9  A    between atoms: O_20  and  C_21
REMARK                            x       y       z     vdW  Elec       q    Type
REMARK                         _______ _______ _______ _____ _____    ______ ____
ROOT
ATOM      1  N   UNL     1       3.583   1.399  -0.694  0.00  0.00    -0.246 N 
ATOM      2  H   UNL     1       4.271   0.924  -1.185  0.00  0.00    +0.172 HD
ENDROOT
BRANCH   1   3
ATOM      3  N   UNL     1       3.903   2.570   0.005  0.00  0.00    -0.232 N 
ATOM      4  C   UNL     1       5.167   3.037  -0.004  0.00  0.00    +0.267 C 
ATOM      5  O   UNL     1       6.028   2.443  -0.618  0.00  0.00    -0.271 OA
ATOM      6  H   UNL     1       3.214   3.046   0.496  0.00  0.00    +0.173 HD
BRANCH   4   7
ATOM      7  C   UNL     1       5.511   4.297   0.748  0.00  0.00    +0.326 C 
BRANCH   7   8
ATOM      8  O   UNL     1       6.902   4.583   0.586  0.00  0.00    -0.480 OA
BRANCH   8   9
ATOM      9  C   UNL     1       7.379   5.695   1.206  0.00  0.00    +0.156 A 
ATOM     10  C   UNL     1       6.527   6.493   1.954  0.00  0.00    +0.048 A 
ATOM     11  C   UNL     1       7.014   7.623   2.583  0.00  0.00    +0.004 A 
ATOM     12  C   UNL     1       8.350   7.958   2.469  0.00  0.00    +0.003 A 
ATOM     13  C   UNL     1       9.204   7.165   1.724  0.00  0.00    +0.042 A 
ATOM     14  C   UNL     1       8.723   6.030   1.096  0.00  0.00    +0.165 A 
ATOM     15  F   UNL     1       9.557   5.252   0.373  0.00  0.00    -0.202 F 
ENDBRANCH   8   9
ENDBRANCH   7   8
ENDBRANCH   4   7
ENDBRANCH   1   3
BRANCH   1  16
ATOM     16  C   UNL     1       2.318   0.933  -0.685  0.00  0.00    +0.147 C 
ATOM     17  S   UNL     1       1.927  -0.498  -1.539  0.00  0.00    -0.017 S 
BRANCH  16  18
ATOM     18  N   UNL     1       1.362   1.593  -0.002  0.00  0.00    -0.322 N 
ATOM     19  H   UNL     1       1.583   2.404   0.482  0.00  0.00    +0.148 HD
BRANCH  18  25
ATOM     20  C   UNL     1      -2.880   1.543   2.537  0.00  0.00    +0.008 C 
ATOM     21  C   UNL     1      -2.164   1.050   1.278  0.00  0.00    -0.009 C 
ATOM     22  C   UNL     1      -2.904   1.556   0.038  0.00  0.00    +0.003 C 
ATOM     23  C   UNL     1      -2.188   1.063  -1.221  0.00  0.00    +0.002 C 
ATOM     24  C   UNL     1      -0.753   1.593  -1.232  0.00  0.00    +0.022 C 
ATOM     25  C   UNL     1      -0.013   1.086   0.008  0.00  0.00    +0.075 C 
ATOM     26  C   UNL     1      -0.729   1.579   1.267  0.00  0.00    +0.009 C 
ATOM     27  C   UNL     1       0.011   1.072   2.506  0.00  0.00    +0.009 C 
ENDBRANCH  18  25
ENDBRANCH  16  18
ENDBRANCH   1  16
TORSDOF 7
