REMARK  Name = ZINC20459292
REMARK  8 active torsions:
REMARK  status: ('A' for Active; 'I' for Inactive)
REMARK    1  A    between atoms: C_1  and  C_2
REMARK    2  A    between atoms: C_2  and  C_3
REMARK    3  A    between atoms: C_2  and  N_4
REMARK    4  A    between atoms: C_8  and  C_10
REMARK    5  A    between atoms: C_10  and  C_11
REMARK    6  A    between atoms: C_19  and  N_32
REMARK    7  A    between atoms: C_20  and  C_30
REMARK    8  A    between atoms: C_21  and  C_23
REMARK                            x       y       z     vdW  Elec       q    Type
REMARK                         _______ _______ _______ _____ _____    ______ ____
ROOT
ATOM      1  N   UNL     1       2.283   4.854   3.342  0.00  0.00    -0.329 N 
ATOM      2  C   UNL     1       1.107   5.592   3.817  0.00  0.00    +0.140 C 
ATOM      3  C   UNL     1      -0.144   4.905   3.318  0.00  0.00    +0.003 C 
ATOM      4  C   UNL     1      -0.110   4.213   2.180  0.00  0.00    +0.136 C 
ATOM      5  C   UNL     1       1.155   4.087   1.434  0.00  0.00    +0.013 C 
ATOM      6  C   UNL     1       2.311   4.420   2.026  0.00  0.00    +0.078 C 
ATOM      7  O   UNL     1      -1.219   3.600   1.693  0.00  0.00    -0.441 OA
ATOM      8  C   UNL     1      -2.437   3.985   2.108  0.00  0.00    +0.199 C 
ATOM      9  C   UNL     1      -2.600   4.672   3.266  0.00  0.00    +0.098 C 
ATOM     10  C   UNL     1      -1.413   5.025   4.119  0.00  0.00    +0.095 C 
ENDROOT
BRANCH  10  11
ATOM     11  C   UNL     1      -1.350   4.090   5.298  0.00  0.00    -0.035 A 
ATOM     12  C   UNL     1      -1.214   2.729   5.094  0.00  0.00    +0.007 A 
ATOM     13  C   UNL     1      -1.150   1.871   6.176  0.00  0.00    +0.038 A 
ATOM     14  C   UNL     1      -1.235   2.373   7.463  0.00  0.00    +0.123 A 
ATOM     15  C   UNL     1      -1.376   3.735   7.666  0.00  0.00    +0.038 A 
ATOM     16  C   UNL     1      -1.434   4.592   6.584  0.00  0.00    +0.007 A 
ATOM     17  F   UNL     1      -1.179   1.534   8.521  0.00  0.00    -0.205 F 
ENDBRANCH  10  11
BRANCH   1  19
ATOM     18  C   UNL     1       3.608   3.070   4.364  0.00  0.00    +0.027 C 
ATOM     19  C   UNL     1       3.407   4.582   4.242  0.00  0.00    +0.067 C 
ATOM     20  C   UNL     1       4.678   5.221   3.678  0.00  0.00    +0.027 C 
ENDBRANCH   1  19
BRANCH   8  21
ATOM     21  N   UNL     1      -3.537   3.678   1.346  0.00  0.00    -0.328 N 
ATOM     22  H   UNL     1      -4.539   3.988   1.677  0.00  0.00    +0.145 HD
ATOM     23  H   UNL     1      -3.416   3.121   0.405  0.00  0.00    +0.145 HD
ENDBRANCH   8  21
BRANCH   9  24
ATOM     24  C   UNL     1      -3.914   5.065   3.680  0.00  0.00    +0.101 C 
ATOM     25  N   UNL     1      -4.956   5.377   4.008  0.00  0.00    -0.191 NA
ENDBRANCH   9  24
BRANCH   5  26
ATOM     26  C   UNL     1       1.149   3.593   0.010  0.00  0.00    +0.075 C 
BRANCH  26  27
ATOM     27  C   UNL     1       1.171   2.086   0.002  0.00  0.00    -0.043 A 
ATOM     28  C   UNL     1      -0.017   1.378   0.010  0.00  0.00    +0.007 A 
ATOM     29  C   UNL     1       0.002  -0.004   0.002  0.00  0.00    +0.038 A 
ATOM     30  C   UNL     1       1.211  -0.679  -0.013  0.00  0.00    +0.123 A 
ATOM     31  C   UNL     1       2.399   0.031  -0.021  0.00  0.00    +0.038 A 
ATOM     32  C   UNL     1       2.378   1.413  -0.013  0.00  0.00    +0.007 A 
ATOM     33  F   UNL     1       1.230  -2.030  -0.020  0.00  0.00    -0.205 F 
ENDBRANCH  26  27
ENDBRANCH   5  26
TORSDOF 6
