REMARK  Name = ZINC02628122
REMARK  6 active torsions:
REMARK  status: ('A' for Active; 'I' for Inactive)
REMARK    1  A    between atoms: C_1  and  C_2
REMARK    2  A    between atoms: C_3  and  C_29
REMARK    3  A    between atoms: N_9  and  C_23
REMARK    4  A    between atoms: C_10  and  S_12
REMARK    5  A    between atoms: S_12  and  C_13
REMARK    6  A    between atoms: C_13  and  C_14
REMARK                            x       y       z     vdW  Elec       q    Type
REMARK                         _______ _______ _______ _____ _____    ______ ____
ROOT
ATOM      1  C   UNL     1      -5.926   1.524   9.623  0.00  0.00    +0.045 C 
ATOM      2  C   UNL     1      -5.082   2.272   8.624  0.00  0.00    -0.026 A 
ATOM      3  C   UNL     1      -5.298   3.576   8.393  0.00  0.00    -0.008 A 
ATOM      4  S   UNL     1      -4.074   3.988   7.165  0.00  0.00    -0.073 S 
ATOM      5  C   UNL     1      -3.306   2.397   6.997  0.00  0.00    +0.117 A 
ATOM      6  C   UNL     1      -4.023   1.590   7.900  0.00  0.00    +0.076 A 
ATOM      7  C   UNL     1      -3.610   0.223   7.976  0.00  0.00    +0.268 A 
ATOM      8  O   UNL     1      -4.173  -0.551   8.732  0.00  0.00    -0.267 OA
ATOM      9  N   UNL     1      -2.592  -0.199   7.203  0.00  0.00    -0.255 N 
ATOM     10  C   UNL     1      -1.950   0.654   6.351  0.00  0.00    +0.178 A 
ATOM     11  N   UNL     1      -2.306   1.920   6.265  0.00  0.00    -0.215 NA
ATOM     12  C   UNL     1      -6.331   4.476   9.022  0.00  0.00    +0.052 C 
ENDROOT
BRANCH   9  13
ATOM     13  C   UNL     1      -2.184  -1.537   7.274  0.00  0.00    +0.052 A 
ATOM     14  C   UNL     1      -2.762  -2.485   6.440  0.00  0.00    +0.026 A 
ATOM     15  C   UNL     1      -2.353  -3.803   6.507  0.00  0.00    +0.002 A 
ATOM     16  C   UNL     1      -1.378  -4.181   7.412  0.00  0.00    +0.000 A 
ATOM     17  C   UNL     1      -0.805  -3.240   8.248  0.00  0.00    +0.002 A 
ATOM     18  C   UNL     1      -1.205  -1.919   8.181  0.00  0.00    +0.026 A 
ENDBRANCH   9  13
BRANCH  10  19
ATOM     19  S   UNL     1      -0.622   0.056   5.359  0.00  0.00    -0.078 S 
BRANCH  19  20
ATOM     20  C   UNL     1      -0.183   1.573   4.473  0.00  0.00    +0.173 C 
BRANCH  20  21
ATOM     21  C   UNL     1       0.965   1.294   3.537  0.00  0.00    +0.226 C 
ATOM     22  O   UNL     1       1.439   0.179   3.475  0.00  0.00    -0.275 OA
ATOM     23  N   UNL     1       1.463   2.282   2.769  0.00  0.00    -0.301 N 
ATOM     24  C   UNL     1       2.588   1.976   1.863  0.00  0.00    +0.108 C 
ATOM     25  C   UNL     1       2.414   2.633   0.482  0.00  0.00    +0.019 C 
ATOM     26  C   UNL     1       0.975   2.534   0.039  0.00  0.00    +0.002 C 
ATOM     27  C   UNL     1       0.222   3.784   0.485  0.00  0.00    +0.002 C 
ATOM     28  C   UNL     1      -0.294   3.721   1.861  0.00  0.00    +0.019 C 
ATOM     29  C   UNL     1       0.876   3.599   2.869  0.00  0.00    +0.108 C 
ENDBRANCH  20  21
ENDBRANCH  19  20
ENDBRANCH  10  19
TORSDOF 4
