REMARK  Name = ZINC48984832
REMARK  10 active torsions:
REMARK  status: ('A' for Active; 'I' for Inactive)
REMARK    1  A    between atoms: C_1  and  C_2
REMARK    2  A    between atoms: C_2  and  C_20
REMARK    3  A    between atoms: C_3  and  C_4
REMARK    4  A    between atoms: C_4  and  N_5
REMARK    5  A    between atoms: C_9  and  C_10
REMARK    6  A    between atoms: C_9  and  C_12
REMARK    7  A    between atoms: C_12  and  C_14
REMARK    8  A    between atoms: C_14  and  C_15
REMARK    9  A    between atoms: C_14  and  C_16
REMARK   10  A    between atoms: C_14  and  C_17
REMARK                            x       y       z     vdW  Elec       q    Type
REMARK                         _______ _______ _______ _____ _____    ______ ____
ROOT
ATOM      1  N   UNL     1      -1.020   0.160   3.198  0.00  0.00    +0.382 N 
ATOM      2  C   UNL     1      -2.401   0.013   2.723  0.00  0.00    -0.074 C 
ATOM      3  C   UNL     1      -3.149  -0.978   3.622  0.00  0.00    +0.013 C 
ATOM      4  C   UNL     1      -3.023  -0.503   5.055  0.00  0.00    -0.052 C 
ATOM      5  C   UNL     1      -4.103  -0.424   5.863  0.00  0.00    +0.094 C 
ATOM      6  C   UNL     1      -1.644  -0.122   5.551  0.00  0.00    +0.013 C 
ATOM      7  C   UNL     1      -1.003   0.809   4.514  0.00  0.00    -0.074 C 
ATOM      8  H   UNL     1      -0.595  -0.752   3.269  0.00  0.00    -0.081 HD
ENDROOT
BRANCH   5   9
ATOM      9  C   UNL     1      -5.411  -0.665   5.334  0.00  0.00    +0.103 C 
ATOM     10  N   UNL     1      -6.450  -0.856   4.914  0.00  0.00    -0.191 NA
ENDBRANCH   5   9
BRANCH   5  11
ATOM     11  C   UNL     1      -3.934  -0.091   7.285  0.00  0.00    +0.179 C 
ATOM     12  O   UNL     1      -3.371  -0.868   8.027  0.00  0.00    -0.291 OA
BRANCH  11  13
ATOM     13  C   UNL     1      -4.460   1.216   7.820  0.00  0.00    +0.026 C 
ATOM     14  C   UNL     1      -4.157   1.313   9.316  0.00  0.00    +0.019 C 
ATOM     15  C   UNL     1      -3.786   2.376   7.086  0.00  0.00    +0.019 C 
ATOM     16  C   UNL     1      -5.973   1.284   7.601  0.00  0.00    +0.019 C 
ENDBRANCH  11  13
ENDBRANCH   5  11
BRANCH   1  17
ATOM     17  C   UNL     1      -0.261   0.978   2.242  0.00  0.00    -0.051 C 
BRANCH  17  20
ATOM     18  C   UNL     1      -1.031   2.281  -0.138  0.00  0.00    +0.038 C 
ATOM     19  C   UNL     1      -0.589   0.841  -0.174  0.00  0.00    -0.081 C 
ATOM     20  C   UNL     1      -0.173   0.256   0.922  0.00  0.00    -0.047 C 
ATOM     21  C   UNL     1      -0.624   0.073  -1.470  0.00  0.00    +0.038 C 
ENDBRANCH  17  20
ENDBRANCH   1  17
TORSDOF 5
