REMARK  Name = ZINC35157732
REMARK  17 active torsions:
REMARK  status: ('A' for Active; 'I' for Inactive)
REMARK    1  A    between atoms: C_1  and  C_2
REMARK    2  A    between atoms: C_2  and  N_3
REMARK    3  A    between atoms: N_3  and  C_4
REMARK    4  A    between atoms: N_3  and  C_6
REMARK    5  A    between atoms: C_4  and  C_5
REMARK    6  A    between atoms: C_6  and  C_7
REMARK    7  A    between atoms: C_7  and  C_8
REMARK    8  A    between atoms: C_8  and  C_9
REMARK    9  A    between atoms: C_9  and  C_11
REMARK   10  A    between atoms: C_9  and  N_12
REMARK   11  A    between atoms: C_13  and  C_15
REMARK   12  A    between atoms: C_15  and  C_17
REMARK   13  A    between atoms: C_15  and  S_18
REMARK   14  A    between atoms: S_18  and  C_19
REMARK   15  A    between atoms: C_25  and  C_38
REMARK   16  A    between atoms: N_29  and  C_30
REMARK   17  A    between atoms: C_30  and  C_31
REMARK                            x       y       z     vdW  Elec       q    Type
REMARK                         _______ _______ _______ _____ _____    ______ ____
ROOT
ATOM      1  C   UNL     1       0.486  -4.241  10.008  0.00  0.00    +0.212 A 
ATOM      2  N   UNL     1       0.753  -4.493  11.283  0.00  0.00    -0.201 NA
ATOM      3  C   UNL     1      -0.211  -4.356  12.188  0.00  0.00    +0.165 A 
ATOM      4  C   UNL     1      -1.487  -3.945  11.751  0.00  0.00    +0.138 A 
ATOM      5  C   UNL     1      -2.336  -3.882  12.953  0.00  0.00    +0.029 A 
ATOM      6  C   UNL     1      -3.671  -3.548  13.170  0.00  0.00    +0.015 A 
ATOM      7  C   UNL     1      -4.188  -3.587  14.447  0.00  0.00    -0.050 A 
ATOM      8  C   UNL     1      -3.385  -3.957  15.514  0.00  0.00    +0.005 A 
ATOM      9  C   UNL     1      -2.062  -4.290  15.314  0.00  0.00    +0.027 A 
ATOM     10  C   UNL     1      -1.522  -4.257  14.033  0.00  0.00    +0.053 A 
ATOM     11  N   UNL     1      -0.254  -4.536  13.549  0.00  0.00    -0.319 N 
ATOM     12  C   UNL     1      -5.632  -3.225  14.684  0.00  0.00    +0.044 C 
ATOM     13  N   UNL     1      -1.689  -3.708  10.463  0.00  0.00    -0.143 NA
ATOM     14  N   UNL     1      -0.723  -3.850   9.621  0.00  0.00    -0.122 NA
ENDROOT
BRANCH   1  15
ATOM     15  S   UNL     1       1.762  -4.421   8.806  0.00  0.00    -0.072 S 
BRANCH  15  16
ATOM     16  C   UNL     1       0.959  -3.972   7.243  0.00  0.00    +0.137 C 
ATOM     17  C   UNL     1       0.557  -2.497   7.281  0.00  0.00    +0.029 C 
BRANCH  16  19
ATOM     18  N   UNL     1       1.448  -4.332   4.845  0.00  0.00    -0.312 N 
ATOM     19  C   UNL     1       1.917  -4.202   6.102  0.00  0.00    +0.226 C 
ATOM     20  O   UNL     1       3.109  -4.271   6.316  0.00  0.00    -0.275 OA
ATOM     21  H   UNL     1       0.495  -4.278   4.675  0.00  0.00    +0.149 HD
BRANCH  18  22
ATOM     22  C   UNL     1       2.379  -4.556   3.736  0.00  0.00    +0.070 C 
ATOM     23  C   UNL     1       2.684  -6.051   3.620  0.00  0.00    +0.028 C 
BRANCH  22  24
ATOM     24  C   UNL     1       1.748  -4.062   2.433  0.00  0.00    +0.020 C 
BRANCH  24  25
ATOM     25  C   UNL     1       1.558  -2.546   2.502  0.00  0.00    -0.017 C 
BRANCH  25  26
ATOM     26  C   UNL     1       0.926  -2.051   1.199  0.00  0.00    -0.079 C 
BRANCH  26  27
ATOM     27  N   UNL     1       0.643  -0.614   1.306  0.00  0.00    +0.379 N 
ATOM     28  H   UNL     1       0.074  -0.444   2.122  0.00  0.00    -0.082 HD
BRANCH  27  30
ATOM     29  C   UNL     1       1.607   1.609   1.663  0.00  0.00    -0.017 C 
ATOM     30  C   UNL     1       1.905   0.127   1.426  0.00  0.00    -0.082 C 
ENDBRANCH  27  30
BRANCH  27  31
ATOM     31  C   UNL     1      -0.076  -0.166   0.106  0.00  0.00    -0.082 C 
ATOM     32  C   UNL     1      -1.460  -0.817   0.068  0.00  0.00    -0.017 C 
ENDBRANCH  27  31
ENDBRANCH  26  27
ENDBRANCH  25  26
ENDBRANCH  24  25
ENDBRANCH  22  24
ENDBRANCH  18  22
ENDBRANCH  16  19
ENDBRANCH  15  16
ENDBRANCH   1  15
BRANCH  11  33
ATOM     33  C   UNL     1       0.880  -4.963  14.372  0.00  0.00    +0.162 C 
BRANCH  33  34
ATOM     34  C   UNL     1       1.641  -3.752  14.846  0.00  0.00    +0.007 A 
ATOM     35  C   UNL     1       2.741  -3.305  14.138  0.00  0.00    +0.008 A 
ATOM     36  C   UNL     1       3.438  -2.194  14.573  0.00  0.00    +0.000 A 
ATOM     37  C   UNL     1       3.037  -1.528  15.716  0.00  0.00    +0.003 A 
ATOM     38  C   UNL     1       1.938  -1.972  16.425  0.00  0.00    +0.039 A 
ATOM     39  C   UNL     1       1.235  -3.082  15.988  0.00  0.00    +0.128 A 
ATOM     40  F   UNL     1       0.157  -3.515  16.678  0.00  0.00    -0.205 F 
ENDBRANCH  33  34
ENDBRANCH  11  33
TORSDOF 12
