REMARK  Name = ZINC39030407
REMARK  8 active torsions:
REMARK  status: ('A' for Active; 'I' for Inactive)
REMARK    1  A    between atoms: C_1  and  C_2
REMARK    2  A    between atoms: C_3  and  C_7
REMARK    3  A    between atoms: C_11  and  S_14
REMARK    4  A    between atoms: S_14  and  C_15
REMARK    5  A    between atoms: C_15  and  C_16
REMARK    6  A    between atoms: C_21  and  C_24
REMARK    7  A    between atoms: C_27  and  O_30
REMARK    8  A    between atoms: O_30  and  C_31
REMARK                            x       y       z     vdW  Elec       q    Type
REMARK                         _______ _______ _______ _____ _____    ______ ____
ROOT
ATOM      1  C   UNL     1      -4.396  -2.842  -4.521  0.00  0.00    +0.229 C 
ATOM      2  O   UNL     1      -5.200  -2.276  -5.232  0.00  0.00    -0.275 OA
ATOM      3  N   UNL     1      -3.840  -4.002  -4.922  0.00  0.00    -0.264 N 
ATOM      4  C   UNL     1      -4.188  -4.550  -6.151  0.00  0.00    +0.165 A 
ATOM      5  N   UNL     1      -3.766  -5.666  -6.717  0.00  0.00    -0.225 NA
ATOM      6  C   UNL     1      -4.208  -6.042  -7.907  0.00  0.00    +0.080 A 
ATOM      7  C   UNL     1      -5.118  -5.261  -8.563  0.00  0.00    +0.076 A 
ATOM      8  S   UNL     1      -5.330  -3.936  -7.381  0.00  0.00    -0.060 S 
ATOM      9  H   UNL     1      -3.198  -4.454  -4.354  0.00  0.00    +0.157 HD
ENDROOT
BRANCH   6  10
ATOM     10  C   UNL     1      -3.719  -7.300  -8.524  0.00  0.00    +0.001 A 
ATOM     11  C   UNL     1      -4.182  -7.688  -9.780  0.00  0.00    +0.013 A 
ATOM     12  C   UNL     1      -3.725  -8.858 -10.350  0.00  0.00    +0.046 A 
ATOM     13  C   UNL     1      -2.805  -9.648  -9.675  0.00  0.00    +0.120 A 
ATOM     14  C   UNL     1      -2.342  -9.264  -8.424  0.00  0.00    +0.046 A 
ATOM     15  C   UNL     1      -2.791  -8.093  -7.851  0.00  0.00    +0.013 A 
BRANCH  13  16
ATOM     16  O   UNL     1      -2.357 -10.800 -10.240  0.00  0.00    -0.495 OA
ATOM     17  C   UNL     1      -1.411 -11.565  -9.490  0.00  0.00    +0.277 C 
ENDBRANCH  13  16
ENDBRANCH   6  10
BRANCH   1  18
ATOM     18  C   UNL     1      -4.020  -2.247  -3.188  0.00  0.00    +0.169 C 
BRANCH  18  19
ATOM     19  S   UNL     1      -4.930  -0.698  -2.938  0.00  0.00    -0.103 S 
BRANCH  19  23
ATOM     20  C   UNL     1      -2.521  -0.369   0.012  0.00  0.00    +0.237 C 
ATOM     21  N   UNL     1      -3.415  -1.517   0.315  0.00  0.00    -0.222 NA
ATOM     22  N   UNL     1      -4.697  -1.122  -0.279  0.00  0.00    -0.218 NA
ATOM     23  C   UNL     1      -4.371  -0.118  -1.313  0.00  0.00    +0.263 C 
ATOM     24  O   UNL     1      -2.939   0.040  -1.309  0.00  0.00    -0.328 OA
ATOM     25  H   UNL     1      -3.068  -2.366  -0.105  0.00  0.00    +0.144 HD
ATOM     26  H   UNL     1      -5.315  -0.736   0.418  0.00  0.00    +0.144 HD
BRANCH  20  29
ATOM     27  C   UNL     1      -0.018   1.503   0.010  0.00  0.00    +0.086 C 
ATOM     28  C   UNL     1       0.002  -0.004   0.002  0.00  0.00    +0.109 A 
ATOM     29  C   UNL     1      -1.078  -0.805   0.003  0.00  0.00    +0.037 A 
ATOM     30  C   UNL     1      -0.601  -2.136  -0.007  0.00  0.00    +0.049 A 
ATOM     31  C   UNL     1       0.742  -2.069  -0.013  0.00  0.00    +0.195 A 
ATOM     32  O   UNL     1       1.102  -0.775  -0.013  0.00  0.00    -0.468 OA
ENDBRANCH  20  29
ENDBRANCH  19  23
ENDBRANCH  18  19
ENDBRANCH   1  18
TORSDOF 6
