REMARK  Name = ZINC35776743
REMARK  10 active torsions:
REMARK  status: ('A' for Active; 'I' for Inactive)
REMARK    1  A    between atoms: C_1  and  O_2
REMARK    2  A    between atoms: O_2  and  C_3
REMARK    3  A    between atoms: C_7  and  C_10
REMARK    4  A    between atoms: C_8  and  O_9
REMARK    5  A    between atoms: C_14  and  C_28
REMARK    6  A    between atoms: C_15  and  N_17
REMARK    7  A    between atoms: N_17  and  C_18
REMARK    8  A    between atoms: C_21  and  C_24
REMARK    9  A    between atoms: C_28  and  O_30
REMARK   10  A    between atoms: O_30  and  C_31
REMARK                            x       y       z     vdW  Elec       q    Type
REMARK                         _______ _______ _______ _____ _____    ______ ____
ROOT
ATOM      1  C   UNL     1      -2.644  -4.285  -0.845  0.00  0.00    +0.030 C 
ATOM      2  C   UNL     1      -3.823  -4.867  -0.503  0.00  0.00    +0.062 C 
ATOM      3  C   UNL     1      -5.132  -4.230  -0.284  0.00  0.00    +0.209 C 
ATOM      4  O   UNL     1      -5.300  -3.026  -0.396  0.00  0.00    -0.286 OA
ATOM      5  C   UNL     1      -6.203  -5.126   0.072  0.00  0.00    +0.134 C 
ATOM      6  C   UNL     1      -5.905  -6.489   0.175  0.00  0.00    +0.088 C 
ATOM      7  S   UNL     1      -4.170  -6.591  -0.216  0.00  0.00    -0.069 S 
ENDROOT
BRANCH   1  12
ATOM      8  C   UNL     1      -1.681  -0.809  -1.906  0.00  0.00    +0.162 A 
ATOM      9  C   UNL     1      -2.317  -0.054  -0.934  0.00  0.00    +0.049 A 
ATOM     10  C   UNL     1      -3.056  -0.671   0.062  0.00  0.00    +0.004 A 
ATOM     11  C   UNL     1      -3.166  -2.044   0.097  0.00  0.00    +0.012 A 
ATOM     12  C   UNL     1      -2.530  -2.822  -0.878  0.00  0.00    +0.021 A 
ATOM     13  C   UNL     1      -1.787  -2.195  -1.890  0.00  0.00    +0.166 A 
BRANCH   8  15
ATOM     14  C   UNL     1      -0.893   1.233  -2.836  0.00  0.00    +0.277 C 
ATOM     15  O   UNL     1      -0.959  -0.194  -2.880  0.00  0.00    -0.491 OA
ENDBRANCH   8  15
BRANCH  13  16
ATOM     16  O   UNL     1      -1.170  -2.938  -2.845  0.00  0.00    -0.503 OA
ATOM     17  H   UNL     1      -0.269  -3.202  -2.616  0.00  0.00    +0.292 HD
ENDBRANCH  13  16
ENDBRANCH   1  12
BRANCH   6  18
ATOM     18  N   UNL     1      -6.755  -7.512   0.496  0.00  0.00    -0.308 N 
ATOM     19  H   UNL     1      -7.704  -7.340   0.600  0.00  0.00    +0.153 HD
BRANCH  18  20
ATOM     20  C   UNL     1      -6.255  -8.805   0.676  0.00  0.00    +0.032 A 
ATOM     21  C   UNL     1      -4.999  -8.994   1.238  0.00  0.00    +0.024 A 
ATOM     22  C   UNL     1      -4.508 -10.273   1.415  0.00  0.00    +0.014 A 
ATOM     23  C   UNL     1      -5.266 -11.365   1.031  0.00  0.00    +0.055 A 
ATOM     24  C   UNL     1      -6.517 -11.180   0.471  0.00  0.00    +0.014 A 
ATOM     25  C   UNL     1      -7.016  -9.904   0.297  0.00  0.00    +0.024 A 
BRANCH  23  26
ATOM     26  C   UNL     1      -4.727 -12.759   1.224  0.00  0.00    +0.417 C 
ATOM     27  F   UNL     1      -5.104 -13.234   2.485  0.00  0.00    -0.166 F 
ATOM     28  F   UNL     1      -5.245 -13.600   0.234  0.00  0.00    -0.166 F 
ATOM     29  F   UNL     1      -3.331 -12.736   1.133  0.00  0.00    -0.166 F 
ENDBRANCH  23  26
ENDBRANCH  18  20
ENDBRANCH   6  18
BRANCH   5  30
ATOM     30  C   UNL     1      -7.554  -4.628   0.319  0.00  0.00    +0.345 C 
ATOM     31  O   UNL     1      -8.443  -5.403   0.619  0.00  0.00    -0.245 OA
BRANCH  30  32
ATOM     32  O   UNL     1      -7.816  -3.309   0.214  0.00  0.00    -0.464 OA
ATOM     33  C   UNL     1      -9.159  -2.892   0.469  0.00  0.00    +0.280 C 
ENDBRANCH  30  32
ENDBRANCH   5  30
TORSDOF 8
