REMARK  Name = ZINC63194521
REMARK  5 active torsions:
REMARK  status: ('A' for Active; 'I' for Inactive)
REMARK    1  A    between atoms: C_1  and  C_2
REMARK    2  A    between atoms: C_2  and  C_4
REMARK    3  A    between atoms: C_2  and  N_23
REMARK    4  A    between atoms: N_10  and  C_11
REMARK    5  A    between atoms: C_11  and  C_12
REMARK                            x       y       z     vdW  Elec       q    Type
REMARK                         _______ _______ _______ _____ _____    ______ ____
ROOT
ATOM      1  C   UNL     1       0.710  -0.395   1.349  0.00  0.00    +0.042 C 
ATOM      2  C   UNL     1       0.840  -1.919   1.408  0.00  0.00    +0.017 C 
ATOM      3  C   UNL     1       1.617  -2.312   2.668  0.00  0.00    +0.003 C 
ATOM      4  C   UNL     1       2.987  -1.628   2.647  0.00  0.00    +0.015 C 
ATOM      5  C   UNL     1       2.794  -0.113   2.553  0.00  0.00    +0.085 C 
ATOM      6  N   UNL     1       2.047   0.211   1.331  0.00  0.00    -0.297 NA
ENDROOT
BRANCH   1   8
ATOM      7  C   UNL     1      -1.426  -0.662   0.080  0.00  0.00    -0.013 C 
ATOM      8  C   UNL     1      -0.048   0.004   0.082  0.00  0.00    -0.061 C 
BRANCH   8   9
ATOM      9  N   UNL     1       0.708  -0.434  -1.099  0.00  0.00    +0.381 N 
ATOM     10  H   UNL     1       0.819  -1.437  -1.075  0.00  0.00    -0.090 HD
ATOM     11  H   UNL     1       0.208  -0.171  -1.935  0.00  0.00    -0.090 HD
ATOM     12  H   UNL     1       1.617   0.005  -1.098  0.00  0.00    -0.090 HD
ENDBRANCH   8   9
ENDBRANCH   1   8
BRANCH   6  13
ATOM     13  C   UNL     1       1.964   1.665   1.136  0.00  0.00    +0.120 C 
BRANCH  13  14
ATOM     14  C   UNL     1       3.331   2.207   0.809  0.00  0.00    -0.028 A 
ATOM     15  C   UNL     1       4.171   2.619   1.827  0.00  0.00    +0.054 A 
ATOM     16  C   UNL     1       5.430   3.119   1.530  0.00  0.00    +0.164 A 
ATOM     17  C   UNL     1       5.847   3.202   0.207  0.00  0.00    +0.180 A 
ATOM     18  C   UNL     1       4.999   2.788  -0.810  0.00  0.00    +0.086 A 
ATOM     19  C   UNL     1       3.746   2.287  -0.507  0.00  0.00    +0.028 A 
ATOM     20 CL   UNL     1       5.513   2.894  -2.465  0.00  0.00    -0.080 Cl
ATOM     21  O   UNL     1       7.082   3.681  -0.105  0.00  0.00    -0.483 OA
ATOM     22  C   UNL     1       7.757   4.431   0.910  0.00  0.00    +0.270 C 
ATOM     23  C   UNL     1       7.635   3.665   2.235  0.00  0.00    +0.270 C 
ATOM     24  O   UNL     1       6.244   3.524   2.544  0.00  0.00    -0.485 OA
ENDBRANCH  13  14
ENDBRANCH   6  13
TORSDOF 4
