REMARK  Name = ZINC39443873
REMARK  7 active torsions:
REMARK  status: ('A' for Active; 'I' for Inactive)
REMARK    1  A    between atoms: C_1  and  C_2
REMARK    2  A    between atoms: C_5  and  C_17
REMARK    3  A    between atoms: C_7  and  C_16
REMARK    4  A    between atoms: N_23  and  C_24
REMARK    5  A    between atoms: C_24  and  C_25
REMARK    6  A    between atoms: C_24  and  C_26
REMARK    7  A    between atoms: C_24  and  C_27
REMARK                            x       y       z     vdW  Elec       q    Type
REMARK                         _______ _______ _______ _____ _____    ______ ____
ROOT
ATOM      1  C   UNL     1      -0.019   1.526   0.010  0.00  0.00    +0.028 C 
ATOM      2  C   UNL     1       0.002  -0.004   0.002  0.00  0.00    +0.074 C 
ATOM      3  C   UNL     1       0.740  -0.526   1.253  0.00  0.00    +0.033 C 
ATOM      4  C   UNL     1      -0.093  -1.772   1.653  0.00  0.00    +0.058 C 
ATOM      5  C   UNL     1      -1.528  -1.317   1.290  0.00  0.00    +0.082 C 
ATOM      6  N   UNL     1      -1.373  -0.523   0.054  0.00  0.00    -0.294 N 
ATOM      7  C   UNL     1      -2.354  -0.303  -0.896  0.00  0.00    +0.214 A 
ATOM      8  H   UNL     1      -1.423   0.893  -2.323  0.00  0.00    +0.192 HD
ATOM      9  N   UNL     1      -3.586  -0.762  -0.858  0.00  0.00    -0.202 NA
ATOM     10  C   UNL     1      -4.252  -0.352  -1.938  0.00  0.00    +0.246 A 
ATOM     11  N   UNL     1      -3.459   0.373  -2.680  0.00  0.00    -0.160 NA
ATOM     12  N   UNL     1      -2.219   0.427  -2.024  0.00  0.00    -0.247 N 
ATOM     13  C   UNL     1      -2.424  -2.530   1.035  0.00  0.00    +0.029 C 
ENDROOT
BRANCH   4  14
ATOM     14  C   UNL     1       0.029  -2.053   3.129  0.00  0.00    +0.056 C 
ATOM     15  N   UNL     1      -1.007  -1.923   3.862  0.00  0.00    -0.155 NA
ATOM     16  N   UNL     1      -1.097  -2.111   5.231  0.00  0.00    -0.127 NA
ATOM     17  C   UNL     1      -0.061  -2.088   6.040  0.00  0.00    +0.176 C 
ATOM     18  S   UNL     1       1.540  -1.785   5.351  0.00  0.00    -0.083 S 
ATOM     19  C   UNL     1       1.369  -2.480   3.674  0.00  0.00    +0.130 C 
ATOM     20  N   UNL     1      -0.218  -2.294   7.389  0.00  0.00    -0.318 N 
ATOM     21  H   UNL     1       0.554  -2.275   7.975  0.00  0.00    +0.148 HD
BRANCH  20  22
ATOM     22  C   UNL     1      -1.552  -2.544   7.941  0.00  0.00    +0.026 C 
ATOM     23  C   UNL     1      -2.140  -3.804   7.303  0.00  0.00    +0.031 C 
ATOM     24  C   UNL     1      -1.448  -2.739   9.455  0.00  0.00    +0.031 C 
ATOM     25  C   UNL     1      -2.459  -1.349   7.642  0.00  0.00    +0.031 C 
ENDBRANCH  20  22
ENDBRANCH   4  14
TORSDOF 2
