REMARK  Name = ZINC06177636
REMARK  6 active torsions:
REMARK  status: ('A' for Active; 'I' for Inactive)
REMARK    1  A    between atoms: C_1  and  C_2
REMARK    2  A    between atoms: C_6  and  N_35
REMARK    3  A    between atoms: C_7  and  C_8
REMARK    4  A    between atoms: C_11  and  C_13
REMARK    5  A    between atoms: C_18  and  C_22
REMARK    6  A    between atoms: C_18  and  C_23
REMARK                            x       y       z     vdW  Elec       q    Type
REMARK                         _______ _______ _______ _____ _____    ______ ____
ROOT
ATOM      1  C   UNL     1      -1.210  -0.899   0.009  0.00  0.00    +0.171 C 
ATOM      2  C   UNL     1      -1.791  -0.982  -1.383  0.00  0.00    +0.026 C 
ATOM      3  C   UNL     1      -2.730  -0.078  -1.789  0.00  0.00    -0.029 C 
ATOM      4  C   UNL     1      -3.286  -0.156  -3.185  0.00  0.00    +0.043 C 
ATOM      5  C   UNL     1      -3.326  -1.609  -3.665  0.00  0.00    -0.024 C 
ATOM      6  C   UNL     1      -1.906  -2.178  -3.616  0.00  0.00    +0.086 C 
ATOM      7  C   UNL     1      -1.352  -2.010  -2.228  0.00  0.00    +0.162 C 
ATOM      8  O   UNL     1      -0.505  -2.788  -1.832  0.00  0.00    -0.292 OA
ATOM      9  C   UNL     1      -4.252  -2.432  -2.769  0.00  0.00    +0.011 C 
ATOM     10  C   UNL     1      -3.842  -1.654  -5.107  0.00  0.00    +0.011 C 
ATOM     11  C   UNL     1      -3.164   0.933  -0.897  0.00  0.00    +0.007 A 
ATOM     12  C   UNL     1      -3.828   2.158  -1.342  0.00  0.00    -0.009 A 
ATOM     13  C   UNL     1      -3.950   2.516  -2.686  0.00  0.00    +0.009 A 
ATOM     14  C   UNL     1      -4.652   3.632  -3.041  0.00  0.00    +0.001 A 
ATOM     15  C   UNL     1      -5.237   4.446  -2.077  0.00  0.00    +0.001 A 
ATOM     16  C   UNL     1      -5.095   4.161  -0.753  0.00  0.00    +0.008 A 
ATOM     17  C   UNL     1      -4.352   3.036  -0.358  0.00  0.00    -0.017 A 
ATOM     18  C   UNL     1      -4.110   2.792   1.008  0.00  0.00    +0.010 A 
ATOM     19  C   UNL     1      -3.410   1.699   1.403  0.00  0.00    +0.024 A 
ATOM     20  C   UNL     1      -2.930   0.773   0.479  0.00  0.00    +0.036 A 
ATOM     21  N   UNL     1      -2.226  -0.343   0.911  0.00  0.00    -0.330 N 
ATOM     22  H   UNL     1      -2.400  -0.741   1.777  0.00  0.00    +0.147 HD
ENDROOT
BRANCH   1  26
ATOM     23  C   UNL     1       1.248   1.804  -0.000  0.00  0.00    +0.138 A 
ATOM     24  C   UNL     1       2.091   0.738  -0.014  0.00  0.00    +0.050 A 
ATOM     25  C   UNL     1       1.284  -0.418  -0.012  0.00  0.00    +0.047 A 
ATOM     26  C   UNL     1       0.002  -0.004   0.002  0.00  0.00    +0.130 A 
ATOM     27  O   UNL     1      -0.016   1.339   0.009  0.00  0.00    -0.457 OA
BRANCH  23  34
ATOM     28  C   UNL     1       0.590   3.480  -2.264  0.00  0.00    +0.046 C 
ATOM     29  C   UNL     1       1.337   4.045  -1.083  0.00  0.00    -0.019 A 
ATOM     30  C   UNL     1       1.715   5.373  -1.074  0.00  0.00    +0.045 A 
ATOM     31  C   UNL     1       2.401   5.892   0.011  0.00  0.00    +0.022 A 
ATOM     32  C   UNL     1       2.712   5.085   1.091  0.00  0.00    +0.035 A 
ATOM     33  C   UNL     1       2.336   3.759   1.096  0.00  0.00    +0.137 A 
ATOM     34  C   UNL     1       1.649   3.226   0.003  0.00  0.00    +0.052 A 
ATOM     35 CL   UNL     1       1.329   6.393  -2.424  0.00  0.00    -0.083 Cl
BRANCH  33  36
ATOM     36  N   UNL     1       2.665   2.899   2.255  0.00  0.00    +0.057 N 
ATOM     37  O   UNL     1       3.264   3.364   3.208  0.00  0.00    -0.126 OA
ATOM     38  O   UNL     1       2.336   1.726   2.256  0.00  0.00    -0.126 OA
ENDBRANCH  33  36
ENDBRANCH  23  34
ENDBRANCH   1  26
TORSDOF 3
