REMARK  Name = ZINC00865561
REMARK  6 active torsions:
REMARK  status: ('A' for Active; 'I' for Inactive)
REMARK    1  A    between atoms: C_1  and  C_2
REMARK    2  A    between atoms: C_5  and  C_8
REMARK    3  A    between atoms: C_8  and  C_9
REMARK    4  A    between atoms: C_9  and  C_11
REMARK    5  A    between atoms: C_9  and  C_22
REMARK    6  A    between atoms: C_11  and  C_12
REMARK                            x       y       z     vdW  Elec       q    Type
REMARK                         _______ _______ _______ _____ _____    ______ ____
ROOT
ATOM      1  C   UNL     1       1.508  -4.767  -0.032  0.00  0.00    +0.066 C 
ENDROOT
BRANCH   1   2
ATOM      2  C   UNL     1       2.170  -4.352  -1.321  0.00  0.00    +0.112 A 
ATOM      3  N   UNL     1       2.099  -5.043  -2.491  0.00  0.00    -0.342 N 
ATOM      4  H   UNL     1       1.622  -5.875  -2.639  0.00  0.00    +0.167 HD
ATOM      5  C   UNL     1       2.831  -4.342  -3.428  0.00  0.00    +0.066 A 
ATOM      6  C   UNL     1       3.125  -4.539  -4.770  0.00  0.00    +0.028 A 
ATOM      7  C   UNL     1       3.909  -3.623  -5.439  0.00  0.00    +0.002 A 
ATOM      8  C   UNL     1       4.405  -2.507  -4.779  0.00  0.00    +0.002 A 
ATOM      9  C   UNL     1       4.127  -2.297  -3.458  0.00  0.00    +0.030 A 
ATOM     10  C   UNL     1       3.334  -3.212  -2.760  0.00  0.00    +0.089 A 
ATOM     11  N   UNL     1       2.887  -3.278  -1.480  0.00  0.00    -0.232 NA
ENDBRANCH   1   2
BRANCH   1  12
ATOM     12  C   UNL     1       0.059  -4.275  -0.021  0.00  0.00    +0.046 C 
BRANCH  12  17
ATOM     13  C   UNL     1      -0.018   1.503   0.010  0.00  0.00    +0.044 C 
ATOM     14  C   UNL     1       0.002  -0.004   0.002  0.00  0.00    -0.050 A 
ATOM     15  C   UNL     1       0.006  -0.689  -1.199  0.00  0.00    +0.003 A 
ATOM     16  C   UNL     1       0.025  -2.071  -1.206  0.00  0.00    +0.004 A 
ATOM     17  C   UNL     1       0.040  -2.768  -0.013  0.00  0.00    -0.047 A 
ATOM     18  C   UNL     1       0.037  -2.084   1.188  0.00  0.00    +0.004 A 
ATOM     19  C   UNL     1       0.023  -0.702   1.195  0.00  0.00    +0.003 A 
ENDBRANCH  12  17
ENDBRANCH   1  12
BRANCH   1  20
ATOM     20  C   UNL     1       1.531  -6.292   0.085  0.00  0.00    +0.085 C 
BRANCH  20  21
ATOM     21  C   UNL     1       2.957  -6.766   0.198  0.00  0.00    +0.109 A 
ATOM     22  N   UNL     1       3.439  -7.552   1.198  0.00  0.00    -0.342 N 
ATOM     23  H   UNL     1       2.936  -7.899   1.951  0.00  0.00    +0.167 HD
ATOM     24  C   UNL     1       4.780  -7.763   0.944  0.00  0.00    +0.066 A 
ATOM     25  C   UNL     1       5.787  -8.466   1.589  0.00  0.00    +0.028 A 
ATOM     26  C   UNL     1       7.060  -8.479   1.058  0.00  0.00    +0.002 A 
ATOM     27  C   UNL     1       7.338  -7.794  -0.116  0.00  0.00    +0.002 A 
ATOM     28  C   UNL     1       6.359  -7.097  -0.765  0.00  0.00    +0.030 A 
ATOM     29  C   UNL     1       5.062  -7.070  -0.246  0.00  0.00    +0.089 A 
ATOM     30  N   UNL     1       3.904  -6.489  -0.649  0.00  0.00    -0.232 NA
ENDBRANCH  20  21
ENDBRANCH   1  20
TORSDOF 5
