REMARK  Name = ZINC19938457
REMARK  17 active torsions:
REMARK  status: ('A' for Active; 'I' for Inactive)
REMARK    1  A    between atoms: C_1  and  C_2
REMARK    2  A    between atoms: C_2  and  N_3
REMARK    3  A    between atoms: N_3  and  C_4
REMARK    4  A    between atoms: N_3  and  C_6
REMARK    5  A    between atoms: C_4  and  C_5
REMARK    6  A    between atoms: C_6  and  C_7
REMARK    7  A    between atoms: C_7  and  N_8
REMARK    8  A    between atoms: C_9  and  C_29
REMARK    9  A    between atoms: C_11  and  C_16
REMARK   10  A    between atoms: C_16  and  C_18
REMARK   11  A    between atoms: C_25  and  C_28
REMARK   12  A    between atoms: C_31  and  O_39
REMARK   13  A    between atoms: C_32  and  O_37
REMARK   14  A    between atoms: C_33  and  O_35
REMARK   15  A    between atoms: O_35  and  C_36
REMARK   16  A    between atoms: O_37  and  C_38
REMARK   17  A    between atoms: O_39  and  C_40
REMARK                            x       y       z     vdW  Elec       q    Type
REMARK                         _______ _______ _______ _____ _____    ______ ____
ROOT
ATOM      1  N   UNL     1      -0.567   2.555   6.230  0.00  0.00    -0.285 N 
ATOM      2  C   UNL     1      -0.366   3.851   6.890  0.00  0.00    +0.145 C 
ATOM      3  C   UNL     1      -1.592   4.083   7.742  0.00  0.00    +0.076 C 
ATOM      4  C   UNL     1      -2.395   3.007   7.574  0.00  0.00    +0.249 C 
ATOM      5  C   UNL     1      -1.752   2.064   6.636  0.00  0.00    +0.288 C 
ATOM      6  O   UNL     1      -2.224   1.002   6.282  0.00  0.00    -0.266 OA
ATOM      7  O   UNL     1      -3.595   2.823   8.171  0.00  0.00    -0.282 OA
ENDROOT
BRANCH   2   8
ATOM      8  C   UNL     1       0.868   3.807   7.754  0.00  0.00    -0.015 A 
ATOM      9  C   UNL     1       1.129   2.691   8.527  0.00  0.00    +0.055 A 
ATOM     10  C   UNL     1       2.266   2.644   9.318  0.00  0.00    +0.165 A 
ATOM     11  C   UNL     1       3.138   3.727   9.344  0.00  0.00    +0.204 A 
ATOM     12  C   UNL     1       2.869   4.849   8.570  0.00  0.00    +0.165 A 
ATOM     13  C   UNL     1       1.732   4.885   7.776  0.00  0.00    +0.055 A 
BRANCH  12  14
ATOM     14  O   UNL     1       3.718   5.911   8.591  0.00  0.00    -0.491 OA
ATOM     15  C   UNL     1       3.322   7.073   7.860  0.00  0.00    +0.277 C 
ENDBRANCH  12  14
BRANCH  11  16
ATOM     16  O   UNL     1       4.252   3.687  10.124  0.00  0.00    -0.488 OA
ATOM     17  C   UNL     1       4.125   4.176  11.461  0.00  0.00    +0.277 C 
ENDBRANCH  11  16
BRANCH  10  18
ATOM     18  O   UNL     1       2.525   1.544  10.074  0.00  0.00    -0.491 OA
ATOM     19  C   UNL     1       1.586   0.469   9.999  0.00  0.00    +0.277 C 
ENDBRANCH  10  18
ENDBRANCH   2   8
BRANCH   3  20
ATOM     20  C   UNL     1      -1.859   5.249   8.591  0.00  0.00    +0.195 C 
ATOM     21  O   UNL     1      -1.895   5.124   9.802  0.00  0.00    -0.287 OA
BRANCH  20  22
ATOM     22  C   UNL     1      -2.083   6.573   7.979  0.00  0.00    +0.023 A 
ATOM     23  C   UNL     1      -2.110   6.710   6.587  0.00  0.00    +0.015 A 
ATOM     24  C   UNL     1      -2.322   7.943   6.018  0.00  0.00    +0.046 A 
ATOM     25  C   UNL     1      -2.511   9.070   6.821  0.00  0.00    +0.124 A 
ATOM     26  C   UNL     1      -2.477   8.928   8.206  0.00  0.00    -0.002 A 
ATOM     27  C   UNL     1      -2.275   7.700   8.785  0.00  0.00    +0.019 A 
ATOM     28  C   UNL     1      -2.695  10.307   8.798  0.00  0.00    +0.083 C 
ATOM     29  C   UNL     1      -2.443  11.222   7.577  0.00  0.00    +0.175 C 
ATOM     30  O   UNL     1      -2.743  10.361   6.466  0.00  0.00    -0.488 OA
ATOM     31  C   UNL     1      -0.982  11.675   7.532  0.00  0.00    +0.052 C 
ENDBRANCH  20  22
ENDBRANCH   3  20
BRANCH   1  32
ATOM     32  C   UNL     1       0.362   1.909   5.300  0.00  0.00    +0.090 C 
BRANCH  32  33
ATOM     33  C   UNL     1       0.035   2.341   3.869  0.00  0.00    -0.060 C 
BRANCH  33  34
ATOM     34  N   UNL     1       0.895   1.611   2.929  0.00  0.00    +0.380 N 
ATOM     35  H   UNL     1       0.941   0.562   3.257  0.00  0.00    -0.082 HD
BRANCH  34  37
ATOM     36  C   UNL     1       3.182   1.218   2.146  0.00  0.00    -0.017 C 
ATOM     37  C   UNL     1       2.262   2.148   2.940  0.00  0.00    -0.082 C 
ENDBRANCH  34  37
BRANCH  34  38
ATOM     38  C   UNL     1       0.331   1.636   1.572  0.00  0.00    -0.082 C 
ATOM     39  C   UNL     1      -0.905   0.735   1.518  0.00  0.00    -0.017 C 
ENDBRANCH  34  38
ENDBRANCH  33  34
ENDBRANCH  32  33
ENDBRANCH   1  32
TORSDOF 11
