REMARK  Name = ZINC04160188
REMARK  8 active torsions:
REMARK  status: ('A' for Active; 'I' for Inactive)
REMARK    1  A    between atoms: C_1  and  C_2
REMARK    2  A    between atoms: C_5  and  C_8
REMARK    3  A    between atoms: C_13  and  C_19
REMARK    4  A    between atoms: C_13  and  C_20
REMARK    5  A    between atoms: C_15  and  S_17
REMARK    6  A    between atoms: S_17  and  C_18
REMARK    7  A    between atoms: C_26  and  O_29
REMARK    8  A    between atoms: C_27  and  C_28
REMARK                            x       y       z     vdW  Elec       q    Type
REMARK                         _______ _______ _______ _____ _____    ______ ____
ROOT
ATOM      1  C   UNL     1      -0.219  -4.378  -0.337  0.00  0.00    +0.058 C 
ATOM      2  C   UNL     1       0.950  -4.819   0.549  0.00  0.00    +0.081 C 
ATOM      3  C   UNL     1       0.837  -6.328   0.781  0.00  0.00    +0.180 C 
ATOM      4  C   UNL     1       0.803  -7.056  -0.567  0.00  0.00    +0.096 C 
ATOM      5  C   UNL     1       2.106  -6.760  -1.313  0.00  0.00    +0.040 C 
ATOM      6  N   UNL     1       3.256  -6.978  -0.443  0.00  0.00    -0.363 N 
ATOM      7  C   UNL     1       3.192  -6.985   0.849  0.00  0.00    +0.131 C 
ATOM      8  N   UNL     1       2.007  -6.806   1.526  0.00  0.00    -0.288 N 
ATOM      9  C   UNL     1       2.098  -5.304  -1.782  0.00  0.00    +0.034 C 
ATOM     10  C   UNL     1       2.212  -7.681  -2.530  0.00  0.00    +0.034 C 
ATOM     11  O   UNL     1      -0.356  -6.597   1.512  0.00  0.00    -0.468 OA
ATOM     12  C   UNL     1      -1.509  -6.026   1.075  0.00  0.00    +0.133 A 
ATOM     13  C   UNL     1      -1.505  -4.959   0.194  0.00  0.00    +0.002 A 
ATOM     14  C   UNL     1      -2.705  -4.404  -0.221  0.00  0.00    +0.011 A 
ATOM     15  C   UNL     1      -3.904  -4.909   0.239  0.00  0.00    +0.046 A 
ATOM     16  C   UNL     1      -3.912  -5.979   1.122  0.00  0.00    +0.123 A 
ATOM     17  C   UNL     1      -2.717  -6.536   1.537  0.00  0.00    +0.033 A 
ATOM     18  C   UNL     1      -2.724  -7.699   2.496  0.00  0.00    +0.051 C 
ATOM     19  H   UNL     1       1.947  -6.990   2.476  0.00  0.00    +0.152 HD
ATOM     20  H   UNL     1       4.120  -7.126  -0.858  0.00  0.00    +0.162 HD
ENDROOT
BRANCH   1  25
ATOM     21  C   UNL     1      -0.569   1.390  -0.331  0.00  0.00    +0.044 C 
ATOM     22  C   UNL     1      -0.478  -0.115  -0.333  0.00  0.00    -0.050 A 
ATOM     23  C   UNL     1      -0.269  -0.793  -1.519  0.00  0.00    +0.003 A 
ATOM     24  C   UNL     1      -0.185  -2.173  -1.520  0.00  0.00    +0.004 A 
ATOM     25  C   UNL     1      -0.309  -2.874  -0.335  0.00  0.00    -0.040 A 
ATOM     26  C   UNL     1      -0.517  -2.195   0.851  0.00  0.00    +0.004 A 
ATOM     27  C   UNL     1      -0.597  -0.815   0.853  0.00  0.00    +0.003 A 
ENDBRANCH   1  25
BRANCH   7  28
ATOM     28  S   UNL     1       4.671  -7.233   1.774  0.00  0.00    -0.096 S 
ATOM     29  C   UNL     1       5.955  -7.421   0.506  0.00  0.00    +0.092 C 
ENDBRANCH   7  28
BRANCH  16  30
ATOM     30  O   UNL     1      -5.091  -6.479   1.576  0.00  0.00    -0.506 OA
ATOM     31  H   UNL     1      -5.457  -7.186   1.026  0.00  0.00    +0.292 HD
ENDBRANCH  16  30
TORSDOF 3
