REMARK  Name = ZINC39677336
REMARK  7 active torsions:
REMARK  status: ('A' for Active; 'I' for Inactive)
REMARK    1  A    between atoms: C_1  and  C_2
REMARK    2  A    between atoms: C_6  and  C_7
REMARK    3  A    between atoms: C_7  and  N_8
REMARK    4  A    between atoms: C_9  and  C_11
REMARK    5  A    between atoms: C_22  and  C_24
REMARK    6  A    between atoms: C_31  and  C_35
REMARK    7  A    between atoms: N_33  and  C_34
REMARK                            x       y       z     vdW  Elec       q    Type
REMARK                         _______ _______ _______ _____ _____    ______ ____
ROOT
ATOM      1  C   UNL     1      -3.397   0.174   5.063  0.00  0.00    +0.100 C 
ATOM      2  C   UNL     1      -3.906   1.337   4.182  0.00  0.00    +0.121 C 
ATOM      3  N   UNL     1      -4.666   2.206   5.111  0.00  0.00    -0.296 N 
ATOM      4  C   UNL     1      -3.868   2.197   6.360  0.00  0.00    +0.115 C 
ATOM      5  C   UNL     1      -3.373   0.743   6.492  0.00  0.00    -0.004 C 
ATOM      6  C   UNL     1      -4.311  -0.054   7.394  0.00  0.00    -0.010 C 
ATOM      7  C   UNL     1      -4.227   0.494   8.821  0.00  0.00    -0.082 C 
ATOM      8  N   UNL     1      -2.846   0.392   9.306  0.00  0.00    +0.379 N 
ATOM      9  C   UNL     1      -1.964   1.235   8.489  0.00  0.00    -0.082 C 
ATOM     10  C   UNL     1      -1.953   0.718   7.047  0.00  0.00    -0.010 C 
ATOM     11  C   UNL     1      -5.821   2.858   4.873  0.00  0.00    +0.250 C 
ATOM     12  O   UNL     1      -6.276   3.614   5.710  0.00  0.00    -0.270 OA
ATOM     13  H   UNL     1      -2.804   0.697  10.267  0.00  0.00    -0.086 HD
ATOM     14  H   UNL     1      -2.540  -0.568   9.247  0.00  0.00    -0.086 HD
ENDROOT
BRANCH  11  15
ATOM     15  C   UNL     1      -6.535   2.654   3.597  0.00  0.00    +0.074 A 
ATOM     16  C   UNL     1      -5.819   2.458   2.408  0.00  0.00    +0.127 A 
ATOM     17  N   UNL     1      -6.434   2.275   1.263  0.00  0.00    -0.235 NA
ATOM     18  C   UNL     1      -7.761   2.266   1.172  0.00  0.00    +0.160 A 
ATOM     19  C   UNL     1      -8.553   2.456   2.322  0.00  0.00    +0.060 A 
ATOM     20  C   UNL     1      -7.931   2.649   3.560  0.00  0.00    +0.067 A 
ATOM     21 CL   UNL     1      -8.866   2.880   5.005  0.00  0.00    -0.082 Cl
ATOM     22  C   UNL     1      -9.943   2.390   1.883  0.00  0.00    +0.071 A 
ATOM     23  N   UNL     1      -9.940   2.182   0.598  0.00  0.00    -0.174 NA
ATOM     24  N   UNL     1      -8.626   2.100   0.127  0.00  0.00    -0.249 N 
ATOM     25  C   UNL     1      -8.238   1.873  -1.267  0.00  0.00    +0.174 C 
ATOM     26  C   UNL     1     -11.161   2.537   2.758  0.00  0.00    +0.068 C 
ENDBRANCH  11  15
BRANCH   1  28
ATOM     27  N   UNL     1      -1.603  -1.510   4.816  0.00  0.00    -0.310 N 
ATOM     28  C   UNL     1      -2.011  -0.238   4.639  0.00  0.00    +0.218 C 
ATOM     29  O   UNL     1      -1.263   0.575   4.139  0.00  0.00    -0.275 OA
ATOM     30  H   UNL     1      -2.201  -2.161   5.216  0.00  0.00    +0.149 HD
BRANCH  27  31
ATOM     31  C   UNL     1      -0.255  -1.911   4.404  0.00  0.00    +0.147 C 
BRANCH  31  37
ATOM     32  C   UNL     1      -0.865  -4.276   2.540  0.00  0.00    +0.044 C 
ATOM     33  C   UNL     1      -0.301  -4.451   3.927  0.00  0.00    -0.039 A 
ATOM     34  C   UNL     1      -0.027  -5.714   4.418  0.00  0.00    +0.011 A 
ATOM     35  C   UNL     1       0.480  -5.837   5.669  0.00  0.00    +0.046 A 
ATOM     36  S   UNL     1       0.583  -4.134   6.195  0.00  0.00    -0.100 S 
ATOM     37  C   UNL     1      -0.051  -3.373   4.709  0.00  0.00    +0.010 A 
ENDBRANCH  31  37
ENDBRANCH  27  31
ENDBRANCH   1  28
TORSDOF 4
