REMARK  Name = ZINC04035395
REMARK  6 active torsions:
REMARK  status: ('A' for Active; 'I' for Inactive)
REMARK    1  A    between atoms: C_1  and  C_2
REMARK    2  A    between atoms: C_5  and  C_7
REMARK    3  A    between atoms: C_7  and  N_8
REMARK    4  A    between atoms: C_9  and  C_11
REMARK    5  A    between atoms: N_13  and  C_26
REMARK    6  A    between atoms: N_24  and  C_25
REMARK                            x       y       z     vdW  Elec       q    Type
REMARK                         _______ _______ _______ _____ _____    ______ ____
ROOT
ATOM      1  C   UNL     1       3.195  -4.957  -3.050  0.00  0.00    +0.063 A 
ATOM      2  C   UNL     1       4.028  -6.005  -3.329  0.00  0.00    +0.103 A 
ATOM      3  N   UNL     1       4.384  -6.287  -4.605  0.00  0.00    -0.310 N 
ATOM      4  C   UNL     1       3.946  -5.567  -5.651  0.00  0.00    +0.276 A 
ATOM      5  O   UNL     1       4.298  -5.867  -6.779  0.00  0.00    -0.265 OA
ATOM      6  C   UNL     1       3.081  -4.466  -5.459  0.00  0.00    +0.116 A 
ATOM      7  C   UNL     1       2.688  -4.146  -4.163  0.00  0.00    +0.026 A 
ATOM      8  C   UNL     1       1.801  -2.985  -4.263  0.00  0.00    +0.009 A 
ATOM      9  C   UNL     1       1.106  -2.215  -3.328  0.00  0.00    +0.010 A 
ATOM     10  C   UNL     1       0.339  -1.164  -3.745  0.00  0.00    +0.001 A 
ATOM     11  C   UNL     1       0.244  -0.854  -5.095  0.00  0.00    +0.002 A 
ATOM     12  C   UNL     1       0.920  -1.599  -6.035  0.00  0.00    +0.026 A 
ATOM     13  C   UNL     1       1.708  -2.675  -5.632  0.00  0.00    +0.050 A 
ATOM     14  N   UNL     1       2.489  -3.571  -6.330  0.00  0.00    -0.339 N 
ATOM     15  C   UNL     1       2.656  -3.581  -7.785  0.00  0.00    +0.149 C 
ENDROOT
BRANCH   3  16
ATOM     16  C   UNL     1       5.280  -7.420  -4.853  0.00  0.00    +0.090 C 
ATOM     17  C   UNL     1       4.669  -8.714  -4.276  0.00  0.00    +0.025 C 
ATOM     18  C   UNL     1       5.886  -9.495  -3.724  0.00  0.00    +0.002 C 
ATOM     19  C   UNL     1       6.773  -8.373  -3.131  0.00  0.00    +0.002 C 
ATOM     20  C   UNL     1       6.618  -7.203  -4.125  0.00  0.00    +0.025 C 
ENDBRANCH   3  16
BRANCH   1  22
ATOM     21  N   UNL     1       3.382  -5.322  -0.642  0.00  0.00    -0.304 N 
ATOM     22  C   UNL     1       2.810  -4.653  -1.662  0.00  0.00    +0.246 C 
ATOM     23  O   UNL     1       1.976  -3.797  -1.436  0.00  0.00    -0.270 OA
ATOM     24  H   UNL     1       3.992  -6.054  -0.823  0.00  0.00    +0.149 HD
BRANCH  21  25
ATOM     25  C   UNL     1       3.082  -4.945   0.742  0.00  0.00    +0.179 C 
BRANCH  25  30
ATOM     26  C   UNL     1       4.234  -8.834   3.739  0.00  0.00    +0.086 C 
ATOM     27  C   UNL     1       4.344  -7.533   2.987  0.00  0.00    +0.102 A 
ATOM     28  C   UNL     1       5.400  -6.700   3.006  0.00  0.00    +0.045 A 
ATOM     29  C   UNL     1       5.077  -5.610   2.165  0.00  0.00    +0.046 A 
ATOM     30  C   UNL     1       3.843  -5.842   1.683  0.00  0.00    +0.122 A 
ATOM     31  O   UNL     1       3.406  -7.011   2.180  0.00  0.00    -0.463 OA
ENDBRANCH  25  30
ENDBRANCH  21  25
ENDBRANCH   1  22
TORSDOF 4
