REMARK  Name = ZINC40038363
REMARK  8 active torsions:
REMARK  status: ('A' for Active; 'I' for Inactive)
REMARK    1  A    between atoms: C_1  and  C_2
REMARK    2  A    between atoms: C_2  and  N_3
REMARK    3  A    between atoms: C_4  and  C_6
REMARK    4  A    between atoms: C_10  and  N_11
REMARK    5  A    between atoms: C_12  and  C_14
REMARK    6  A    between atoms: C_15  and  C_25
REMARK    7  A    between atoms: C_17  and  C_24
REMARK    8  A    between atoms: C_19  and  C_23
REMARK                            x       y       z     vdW  Elec       q    Type
REMARK                         _______ _______ _______ _____ _____    ______ ____
ROOT
ATOM      1  N   UNL     1      -0.619  -2.717  -3.960  0.00  0.00    -0.273 N 
ATOM      2  C   UNL     1      -1.143  -3.057  -5.154  0.00  0.00    +0.284 C 
ATOM      3  O   UNL     1      -0.427  -3.512  -6.025  0.00  0.00    -0.266 OA
ATOM      4  H   UNL     1      -1.190  -2.353  -3.265  0.00  0.00    +0.156 HD
ENDROOT
BRANCH   2   5
ATOM      5  C   UNL     1      -2.580  -2.877  -5.403  0.00  0.00    +0.194 A 
ATOM      6  C   UNL     1      -3.217  -3.188  -6.561  0.00  0.00    +0.008 A 
ATOM      7  C   UNL     1      -4.623  -2.844  -6.355  0.00  0.00    +0.027 A 
ATOM      8  C   UNL     1      -5.771  -2.921  -7.147  0.00  0.00    -0.039 A 
ATOM      9  C   UNL     1      -6.971  -2.504  -6.644  0.00  0.00    +0.007 A 
ATOM     10  C   UNL     1      -7.056  -2.005  -5.351  0.00  0.00    -0.047 A 
ATOM     11  C   UNL     1      -5.936  -1.921  -4.553  0.00  0.00    +0.050 A 
ATOM     12  C   UNL     1      -4.704  -2.339  -5.044  0.00  0.00    +0.137 A 
ATOM     13  O   UNL     1      -3.466  -2.383  -4.513  0.00  0.00    -0.450 OA
ATOM     14  C   UNL     1      -8.389  -1.551  -4.814  0.00  0.00    +0.044 C 
ATOM     15  C   UNL     1      -5.686  -3.460  -8.552  0.00  0.00    +0.044 C 
ATOM     16  C   UNL     1      -2.600  -3.769  -7.807  0.00  0.00    +0.048 C 
ENDBRANCH   2   5
BRANCH   1  21
ATOM     17  C   UNL     1       1.444  -2.595  -2.568  0.00  0.00    +0.069 A 
ATOM     18  C   UNL     1       2.869  -2.873  -2.575  0.00  0.00    -0.023 A 
ATOM     19  C   UNL     1       3.327  -3.385  -3.738  0.00  0.00    -0.004 A 
ATOM     20  S   UNL     1       1.899  -3.489  -4.776  0.00  0.00    -0.077 S 
ATOM     21  C   UNL     1       0.736  -2.886  -3.725  0.00  0.00    +0.085 A 
ATOM     22  C   UNL     1       4.738  -3.773  -4.056  0.00  0.00    +0.043 C 
ATOM     23  C   UNL     1       5.660  -3.151  -2.997  0.00  0.00    +0.005 C 
ATOM     24  C   UNL     1       5.082  -3.438  -1.608  0.00  0.00    +0.005 C 
ATOM     25  C   UNL     1       3.802  -2.625  -1.399  0.00  0.00    +0.037 C 
BRANCH  17  27
ATOM     26  N   UNL     1       0.678  -0.700  -1.240  0.00  0.00    -0.312 N 
ATOM     27  C   UNL     1       0.780  -2.036  -1.387  0.00  0.00    +0.247 C 
ATOM     28  O   UNL     1       0.320  -2.778  -0.539  0.00  0.00    -0.270 OA
ATOM     29  H   UNL     1       1.045  -0.108  -1.916  0.00  0.00    +0.149 HD
BRANCH  26  31
ATOM     30  C   UNL     1       0.036   1.387  -0.138  0.00  0.00    +0.024 C 
ATOM     31  C   UNL     1       0.015  -0.141  -0.059  0.00  0.00    +0.101 C 
ENDBRANCH  26  31
ENDBRANCH  17  27
ENDBRANCH   1  21
TORSDOF 4
