REMARK  Name = ZINC39301921
REMARK  6 active torsions:
REMARK  status: ('A' for Active; 'I' for Inactive)
REMARK    1  A    between atoms: C_13  and  C_15
REMARK    2  A    between atoms: C_21  and  C_23
REMARK    3  A    between atoms: N_25  and  C_26
REMARK    4  A    between atoms: C_26  and  C_27
REMARK    5  A    between atoms: N_30  and  C_33
REMARK    6  A    between atoms: C_33  and  C_34
REMARK                            x       y       z     vdW  Elec       q    Type
REMARK                         _______ _______ _______ _____ _____    ______ ____
ROOT
ATOM      1  C   UNL     1       6.713  -4.059   1.163  0.00  0.00    +0.091 C 
ATOM      2  C   UNL     1       5.927  -4.488   2.404  0.00  0.00    +0.040 C 
ATOM      3  C   UNL     1       6.733  -4.226   3.643  0.00  0.00    -0.030 C 
ATOM      4  C   UNL     1       8.011  -4.019   3.646  0.00  0.00    -0.030 C 
ATOM      5  C   UNL     1       8.863  -4.001   2.410  0.00  0.00    +0.040 C 
ATOM      6  C   UNL     1       8.121  -4.663   1.242  0.00  0.00    +0.091 C 
ENDROOT
BRANCH   1  19
ATOM      7  C   UNL     1       4.463   1.444  -5.349  0.00  0.00    +0.039 A 
ATOM      8  C   UNL     1       5.057   2.113  -4.290  0.00  0.00    +0.116 A 
ATOM      9  N   UNL     1       5.618   1.413  -3.318  0.00  0.00    -0.223 NA
ATOM     10  C   UNL     1       5.615   0.088  -3.349  0.00  0.00    +0.218 A 
ATOM     11  N   UNL     1       5.057  -0.582  -4.346  0.00  0.00    -0.223 NA
ATOM     12  C   UNL     1       4.479   0.058  -5.350  0.00  0.00    +0.116 A 
ATOM     13  N   UNL     1       6.211  -0.612  -2.314  0.00  0.00    -0.297 N 
ATOM     14  C   UNL     1       6.834   0.100  -1.190  0.00  0.00    +0.127 C 
ATOM     15  C   UNL     1       6.209  -0.404   0.117  0.00  0.00    +0.127 C 
ATOM     16  N   UNL     1       6.229  -1.874   0.111  0.00  0.00    -0.298 N 
ATOM     17  C   UNL     1       5.606  -2.586  -1.014  0.00  0.00    +0.127 C 
ATOM     18  C   UNL     1       6.226  -2.082  -2.317  0.00  0.00    +0.127 C 
ATOM     19  C   UNL     1       6.809  -2.556   1.118  0.00  0.00    +0.220 C 
ATOM     20  O   UNL     1       7.408  -1.960   1.988  0.00  0.00    -0.275 OA
ENDBRANCH   1  19
BRANCH   6  21
ATOM     21  C   UNL     1       8.856  -4.406  -0.047  0.00  0.00    +0.217 C 
ATOM     22  O   UNL     1       8.312  -3.798  -0.945  0.00  0.00    -0.275 OA
ATOM     23  N   UNL     1      10.119  -4.850  -0.203  0.00  0.00    -0.315 N 
ATOM     24  H   UNL     1      10.555  -5.335   0.515  0.00  0.00    +0.149 HD
BRANCH  23  25
ATOM     25  C   UNL     1      10.834  -4.599  -1.457  0.00  0.00    +0.107 C 
BRANCH  25  26
ATOM     26  C   UNL     1      12.237  -5.203  -1.374  0.00  0.00    +0.003 C 
ATOM     27  C   UNL     1      13.048  -4.469  -0.302  0.00  0.00    -0.014 C 
ATOM     28  C   UNL     1      14.474  -5.024  -0.279  0.00  0.00    -0.078 C 
ATOM     29  N   UNL     1      15.101  -4.826  -1.591  0.00  0.00    +0.382 N 
ATOM     30  C   UNL     1      14.371  -5.586  -2.612  0.00  0.00    -0.078 C 
ATOM     31  C   UNL     1      12.941  -5.052  -2.725  0.00  0.00    -0.014 C 
ATOM     32  H   UNL     1      15.084  -3.845  -1.826  0.00  0.00    -0.081 HD
BRANCH  29  33
ATOM     33  C   UNL     1      16.494  -5.290  -1.541  0.00  0.00    -0.042 C 
BRANCH  33  34
ATOM     34  C   UNL     1      17.176  -4.975  -2.847  0.00  0.00    -0.057 A 
ATOM     35  C   UNL     1      17.152  -5.885  -3.888  0.00  0.00    +0.009 A 
ATOM     36  C   UNL     1      17.775  -5.571  -5.050  0.00  0.00    +0.045 A 
ATOM     37  S   UNL     1      18.424  -3.947  -4.694  0.00  0.00    -0.105 S 
ATOM     38  C   UNL     1      17.817  -3.794  -3.022  0.00  0.00    +0.047 A 
ENDBRANCH  33  34
ENDBRANCH  29  33
ENDBRANCH  25  26
ENDBRANCH  23  25
ENDBRANCH   6  21
TORSDOF 6
