REMARK  Name = ZINC51699844
REMARK  5 active torsions:
REMARK  status: ('A' for Active; 'I' for Inactive)
REMARK    1  A    between atoms: C_1  and  O_2
REMARK    2  A    between atoms: O_2  and  C_3
REMARK    3  A    between atoms: C_3  and  C_4
REMARK    4  A    between atoms: C_6  and  N_15
REMARK    5  A    between atoms: N_15  and  N_16
REMARK                            x       y       z     vdW  Elec       q    Type
REMARK                         _______ _______ _______ _____ _____    ______ ____
ROOT
ATOM      1  C   UNL     1       0.633  -2.085   1.012  0.00  0.00    +0.044 A 
ATOM      2  C   UNL     1       0.004  -2.664  -0.081  0.00  0.00    +0.048 A 
ATOM      3  C   UNL     1      -0.040  -4.044  -0.196  0.00  0.00    +0.052 A 
ATOM      4  C   UNL     1       0.568  -4.814   0.825  0.00  0.00    +0.021 A 
ATOM      5  C   UNL     1       0.567  -6.215   0.781  0.00  0.00    +0.012 A 
ATOM      6  C   UNL     1       1.163  -6.920   1.783  0.00  0.00    +0.002 A 
ATOM      7  C   UNL     1       1.775  -6.267   2.849  0.00  0.00    +0.016 A 
ATOM      8  C   UNL     1       1.795  -4.907   2.922  0.00  0.00    +0.037 A 
ATOM      9  C   UNL     1       1.189  -4.146   1.907  0.00  0.00    +0.062 A 
ATOM     10  N   UNL     1       1.199  -2.809   1.950  0.00  0.00    -0.355 N 
ATOM     11  I   UNL     1       2.723  -3.954   4.540  0.00  0.00    -0.042 I 
ATOM     12  H   UNL     1       1.631  -2.363   2.695  0.00  0.00    +0.166 HD
ENDROOT
BRANCH   3  13
ATOM     13  N   UNL     1      -0.661  -4.653  -1.276  0.00  0.00    -0.282 N 
ATOM     14  H   UNL     1      -0.683  -5.620  -1.341  0.00  0.00    +0.166 HD
BRANCH  13  15
ATOM     15  N   UNL     1      -1.242  -3.889  -2.249  0.00  0.00    -0.256 NA
ATOM     16  H   UNL     1      -1.652  -4.468  -2.966  0.00  0.00    +0.140 HD
ATOM     17  H   UNL     1      -1.928  -3.262  -1.855  0.00  0.00    +0.140 HD
ENDBRANCH  13  15
ENDBRANCH   3  13
BRANCH   1  18
ATOM     18  C   UNL     1       0.673  -0.582   1.123  0.00  0.00    +0.212 C 
BRANCH  18  20
ATOM     19  C   UNL     1      -0.017   1.425   0.010  0.00  0.00    +0.194 C 
ATOM     20  O   UNL     1       0.002  -0.004   0.002  0.00  0.00    -0.377 OA
ENDBRANCH  18  20
ENDBRANCH   1  18
TORSDOF 4
