REMARK  Name = ZINC24580630
REMARK  7 active torsions:
REMARK  status: ('A' for Active; 'I' for Inactive)
REMARK    1  A    between atoms: C_6  and  C_7
REMARK    2  A    between atoms: N_11  and  C_15
REMARK    3  A    between atoms: C_15  and  C_16
REMARK    4  A    between atoms: C_16  and  N_17
REMARK    5  A    between atoms: C_18  and  C_20
REMARK    6  A    between atoms: C_20  and  N_21
REMARK    7  A    between atoms: C_22  and  C_24
REMARK                            x       y       z     vdW  Elec       q    Type
REMARK                         _______ _______ _______ _____ _____    ______ ____
ROOT
ATOM      1  C   UNL     1      -3.185  10.156   0.327  0.00  0.00    +0.136 C 
ENDROOT
BRANCH   1   6
ATOM      2  C   UNL     1      -7.750  10.564   2.224  0.00  0.00    +0.028 C 
ATOM      3  C   UNL     1      -6.780  10.620   1.277  0.00  0.00    +0.080 C 
ATOM      4  C   UNL     1      -5.341  10.306   1.384  0.00  0.00    +0.260 C 
ATOM      5  O   UNL     1      -4.844   9.934   2.431  0.00  0.00    -0.269 OA
ATOM      6  N   UNL     1      -4.619  10.451   0.285  0.00  0.00    -0.227 N 
ATOM      7  C   UNL     1      -5.173  10.868  -0.871  0.00  0.00    +0.286 C 
ATOM      8  O   UNL     1      -4.632  11.048  -1.946  0.00  0.00    -0.262 OA
ATOM      9  S   UNL     1      -6.892  11.092  -0.444  0.00  0.00    -0.026 S 
BRANCH   2  15
ATOM     10  C   UNL     1      -9.326  11.801   0.753  0.00  0.00    +0.012 A 
ATOM     11  C   UNL     1     -10.587  12.283   0.479  0.00  0.00    +0.050 A 
ATOM     12  C   UNL     1     -11.627  12.071   1.374  0.00  0.00    +0.166 A 
ATOM     13  C   UNL     1     -11.400  11.361   2.555  0.00  0.00    +0.167 A 
ATOM     14  C   UNL     1     -10.141  10.870   2.835  0.00  0.00    +0.057 A 
ATOM     15  C   UNL     1      -9.092  11.084   1.932  0.00  0.00    -0.020 A 
ATOM     16  O   UNL     1     -12.572  11.293   3.253  0.00  0.00    -0.453 OA
ATOM     17  C   UNL     1     -13.415  12.313   2.688  0.00  0.00    +0.466 C 
ATOM     18  O   UNL     1     -12.938  12.443   1.336  0.00  0.00    -0.453 OA
ENDBRANCH   2  15
ENDBRANCH   1   6
BRANCH   1  19
ATOM     19  C   UNL     1      -2.957   8.683  -0.017  0.00  0.00    +0.123 C 
BRANCH  19  20
ATOM     20  N   UNL     1      -1.522   8.388   0.025  0.00  0.00    -0.313 N 
ATOM     21  C   UNL     1      -1.082   7.143  -0.245  0.00  0.00    +0.230 C 
ATOM     22  O   UNL     1      -1.873   6.267  -0.523  0.00  0.00    -0.274 OA
ATOM     23  H   UNL     1      -0.805   9.182   0.278  0.00  0.00    +0.149 HD
BRANCH  21  24
ATOM     24  C   UNL     1       0.394   6.840  -0.203  0.00  0.00    +0.200 C 
BRANCH  24  25
ATOM     25  N   UNL     1       0.612   5.429  -0.532  0.00  0.00    -0.302 N 
ATOM     26  C   UNL     1       1.863   4.929  -0.555  0.00  0.00    +0.263 C 
ATOM     27  O   UNL     1       2.810   5.648  -0.303  0.00  0.00    -0.269 OA
ATOM     28  H   UNL     1      -0.245   4.779  -0.760  0.00  0.00    +0.150 HD
BRANCH  26  29
ATOM     29  C   UNL     1       2.084   3.502  -0.888  0.00  0.00    +0.127 A 
ATOM     30  C   UNL     1       3.380   2.991  -0.910  0.00  0.00    +0.053 A 
ATOM     31  C   UNL     1       3.570   1.653  -1.224  0.00  0.00    +0.045 A 
ATOM     32  C   UNL     1       2.457   0.874  -1.503  0.00  0.00    +0.040 A 
ATOM     33  C   UNL     1       1.198   1.450  -1.462  0.00  0.00    +0.113 A 
ATOM     34  N   UNL     1       1.046   2.722  -1.162  0.00  0.00    -0.250 NA
ATOM     35 CL   UNL     1       5.165   0.969  -1.265  0.00  0.00    -0.083 Cl
ENDBRANCH  26  29
ENDBRANCH  24  25
ENDBRANCH  21  24
ENDBRANCH  19  20
ENDBRANCH   1  19
TORSDOF 7
