REMARK  Name = ZINC17288565
REMARK  12 active torsions:
REMARK  status: ('A' for Active; 'I' for Inactive)
REMARK    1  A    between atoms: C_1  and  O_2
REMARK    2  A    between atoms: O_2  and  C_3
REMARK    3  A    between atoms: C_6  and  C_9
REMARK    4  A    between atoms: C_14  and  C_15
REMARK    5  A    between atoms: C_14  and  N_66
REMARK    6  A    between atoms: N_17  and  C_18
REMARK    7  A    between atoms: C_18  and  C_19
REMARK    8  A    between atoms: C_18  and  C_27
REMARK    9  A    between atoms: C_22  and  O_25
REMARK   10  A    between atoms: O_25  and  C_26
REMARK   11  A    between atoms: C_30  and  O_33
REMARK   12  A    between atoms: O_33  and  C_34
REMARK                            x       y       z     vdW  Elec       q    Type
REMARK                         _______ _______ _______ _____ _____    ______ ____
ROOT
ATOM      1  C   UNL     1       1.177   1.656   0.264  0.00  0.00    +0.197 C 
ATOM      2  O   UNL     1       1.194   2.852   0.462  0.00  0.00    -0.278 OA
ATOM      3  N   UNL     1       0.009   0.984   0.294  0.00  0.00    -0.306 N 
ATOM      4  H   UNL     1      -0.005   0.027   0.136  0.00  0.00    +0.150 HD
ENDROOT
BRANCH   1   5
ATOM      5  C   UNL     1       2.462   0.920  -0.017  0.00  0.00    +0.019 C 
BRANCH   5  10
ATOM      6  C   UNL     1       4.859   1.191  -0.345  0.00  0.00    -0.037 C 
ATOM      7  C   UNL     1       5.756   2.291  -0.967  0.00  0.00    -0.013 C 
ATOM      8  C   UNL     1       4.778   3.055  -1.888  0.00  0.00    -0.020 C 
ATOM      9  C   UNL     1       3.376   2.748  -1.329  0.00  0.00    -0.077 C 
ATOM     10  N   UNL     1       3.586   1.895  -0.154  0.00  0.00    +0.390 N 
ATOM     11  H   UNL     1       3.634   2.475   0.692  0.00  0.00    -0.080 HD
BRANCH   6  15
ATOM     12  C   UNL     1       6.463  -0.130   3.389  0.00  0.00    +0.120 A 
ATOM     13  C   UNL     1       6.559  -0.939   2.266  0.00  0.00    +0.046 A 
ATOM     14  C   UNL     1       6.039  -0.510   1.060  0.00  0.00    +0.005 A 
ATOM     15  C   UNL     1       5.424   0.725   0.972  0.00  0.00    -0.061 A 
ATOM     16  C   UNL     1       5.332   1.536   2.088  0.00  0.00    +0.005 A 
ATOM     17  C   UNL     1       5.845   1.109   3.297  0.00  0.00    +0.046 A 
BRANCH  12  19
ATOM     18  C   UNL     1       6.838   0.335   5.690  0.00  0.00    +0.277 C 
ATOM     19  O   UNL     1       6.973  -0.550   4.576  0.00  0.00    -0.495 OA
ENDBRANCH  12  19
ENDBRANCH   6  15
ENDBRANCH   5  10
ENDBRANCH   1   5
BRANCH   3  20
ATOM     20  C   UNL     1      -1.241   1.700   0.561  0.00  0.00    +0.133 C 
BRANCH  20  21
ATOM     21  C   UNL     1      -2.394   0.941  -0.043  0.00  0.00    -0.023 A 
ATOM     22  C   UNL     1      -2.422  -0.440   0.024  0.00  0.00    +0.009 A 
ATOM     23  C   UNL     1      -3.481  -1.138  -0.524  0.00  0.00    +0.046 A 
ATOM     24  C   UNL     1      -4.510  -0.453  -1.153  0.00  0.00    +0.120 A 
ATOM     25  C   UNL     1      -4.477   0.932  -1.224  0.00  0.00    +0.046 A 
ATOM     26  C   UNL     1      -3.419   1.626  -0.670  0.00  0.00    +0.009 A 
BRANCH  24  27
ATOM     27  O   UNL     1      -5.550  -1.138  -1.697  0.00  0.00    -0.495 OA
ATOM     28  C   UNL     1      -5.518  -2.562  -1.586  0.00  0.00    +0.277 C 
ENDBRANCH  24  27
ENDBRANCH  20  21
BRANCH  20  29
ATOM     29  C   UNL     1      -1.444   1.820   2.050  0.00  0.00    -0.023 A 
ATOM     30  C   UNL     1      -1.138   0.755   2.876  0.00  0.00    +0.009 A 
ATOM     31  C   UNL     1      -1.317   0.864   4.241  0.00  0.00    +0.046 A 
ATOM     32  C   UNL     1      -1.816   2.040   4.782  0.00  0.00    +0.120 A 
ATOM     33  C   UNL     1      -2.127   3.106   3.950  0.00  0.00    +0.046 A 
ATOM     34  C   UNL     1      -1.941   2.994   2.586  0.00  0.00    +0.009 A 
BRANCH  32  35
ATOM     35  O   UNL     1      -1.998   2.149   6.124  0.00  0.00    -0.495 OA
ATOM     36  C   UNL     1      -1.656   1.012   6.919  0.00  0.00    +0.277 C 
ENDBRANCH  32  35
ENDBRANCH  20  29
ENDBRANCH   3  20
TORSDOF 9
