REMARK  Name = ZINC03840737
REMARK  14 active torsions:
REMARK  status: ('A' for Active; 'I' for Inactive)
REMARK    1  A    between atoms: C_1  and  C_2
REMARK    2  A    between atoms: C_10  and  C_12
REMARK    3  A    between atoms: C_12  and  C_13
REMARK    4  A    between atoms: C_13  and  C_14
REMARK    5  A    between atoms: C_13  and  C_15
REMARK    6  A    between atoms: C_13  and  C_16
REMARK    7  A    between atoms: C_18  and  C_38
REMARK    8  A    between atoms: C_21  and  O_37
REMARK    9  A    between atoms: C_23  and  C_27
REMARK   10  A    between atoms: C_27  and  C_29
REMARK   11  A    between atoms: C_27  and  C_30
REMARK   12  A    between atoms: N_32  and  C_33
REMARK   13  A    between atoms: N_32  and  C_34
REMARK   14  A    between atoms: C_34  and  C_35
REMARK                            x       y       z     vdW  Elec       q    Type
REMARK                         _______ _______ _______ _____ _____    ______ ____
ROOT
ATOM      1  C   UNL     1      -1.873   3.530  -0.190  0.00  0.00    +0.014 C 
ATOM      2  C   UNL     1      -1.417   2.119  -0.564  0.00  0.00    +0.042 C 
ATOM      3  C   UNL     1      -0.633   1.516   0.593  0.00  0.00    +0.057 A 
ATOM      4  C   UNL     1       0.492   0.789   0.357  0.00  0.00    +0.015 A 
ATOM      5  S   UNL     1       1.012   0.324   1.986  0.00  0.00    -0.057 S 
ATOM      6  C   UNL     1      -0.272   1.115   2.852  0.00  0.00    +0.165 A 
ATOM      7  N   UNL     1      -0.978   1.652   1.871  0.00  0.00    -0.229 NA
ATOM      8  N   UNL     1      -0.499   1.167   4.222  0.00  0.00    -0.265 N 
ATOM      9  C   UNL     1       0.345   0.545   5.069  0.00  0.00    +0.219 C 
ATOM     10  O   UNL     1       1.302  -0.060   4.636  0.00  0.00    -0.275 OA
ATOM     11  C   UNL     1       1.108   0.475  -0.963  0.00  0.00    +0.051 C 
ATOM     12  C   UNL     1       0.109   0.813  -2.072  0.00  0.00    -0.022 C 
ATOM     13  C   UNL     1      -0.522   2.184  -1.807  0.00  0.00    +0.033 C 
ATOM     14  C   UNL     1      -1.414   2.528  -3.012  0.00  0.00    +0.123 C 
ATOM     15  C   UNL     1      -2.530   1.485  -3.109  0.00  0.00    +0.029 C 
ATOM     16  C   UNL     1      -1.929   0.093  -3.308  0.00  0.00    +0.007 C 
ATOM     17  C   UNL     1      -0.994  -0.241  -2.141  0.00  0.00    +0.008 C 
ATOM     18  C   UNL     1       0.843   0.865  -3.413  0.00  0.00    +0.012 C 
ATOM     19  H   UNL     1      -1.265   1.651   4.569  0.00  0.00    +0.157 HD
ENDROOT
BRANCH  15  20
ATOM     20  C   UNL     1      -3.434   1.821  -4.296  0.00  0.00    +0.078 C 
ATOM     21  C   UNL     1      -4.037   3.214  -4.100  0.00  0.00    +0.017 C 
BRANCH  20  22
ATOM     22  C   UNL     1      -4.542   0.803  -4.389  0.00  0.00    +0.219 C 
ATOM     23  O   UNL     1      -4.793   0.093  -3.438  0.00  0.00    -0.275 OA
ATOM     24  N   UNL     1      -5.252   0.682  -5.527  0.00  0.00    -0.293 N 
ATOM     25  C   UNL     1      -5.013   1.602  -6.642  0.00  0.00    +0.133 C 
BRANCH  24  26
ATOM     26  C   UNL     1      -6.264  -0.370  -5.651  0.00  0.00    +0.196 C 
BRANCH  26  27
ATOM     27  C   UNL     1      -7.563   0.141  -5.185  0.00  0.00    -0.086 C 
ATOM     28  C   UNL     1      -8.600   0.549  -4.813  0.00  0.00    +0.005 C 
ENDBRANCH  26  27
ENDBRANCH  24  26
ENDBRANCH  20  22
ENDBRANCH  15  20
BRANCH  14  29
ATOM     29  O   UNL     1      -0.634   2.509  -4.210  0.00  0.00    -0.391 OA
ATOM     30  H   UNL     1      -1.139   2.707  -5.011  0.00  0.00    +0.210 HD
ENDBRANCH  14  29
BRANCH   9  31
ATOM     31  C   UNL     1       0.098   0.602   6.555  0.00  0.00    +0.102 C 
BRANCH  31  32
ATOM     32  C   UNL     1       1.194  -0.179   7.283  0.00  0.00    -0.029 C 
ATOM     33  C   UNL     1       2.557   0.440   6.969  0.00  0.00    +0.011 C 
ATOM     34  C   UNL     1       0.944  -0.122   8.792  0.00  0.00    +0.011 C 
ATOM     35  C   UNL     1       1.176  -1.637   6.819  0.00  0.00    +0.011 C 
ENDBRANCH  31  32
ENDBRANCH   9  31
TORSDOF 7
