REMARK  Name = ZINC07947828
REMARK  5 active torsions:
REMARK  status: ('A' for Active; 'I' for Inactive)
REMARK    1  A    between atoms: C_3  and  C_6
REMARK    2  A    between atoms: C_6  and  C_7
REMARK    3  A    between atoms: C_7  and  C_8
REMARK    4  A    between atoms: C_8  and  C_9
REMARK    5  A    between atoms: C_19  and  C_21
REMARK                            x       y       z     vdW  Elec       q    Type
REMARK                         _______ _______ _______ _____ _____    ______ ____
ROOT
ATOM      1  C   UNL     1       6.464   1.833   3.199  0.00  0.00    +0.216 C 
ATOM      2  O   UNL     1       5.798   1.684   4.202  0.00  0.00    -0.276 OA
ATOM      3  N   UNL     1       7.557   2.621   3.228  0.00  0.00    -0.290 N 
ATOM      4  C   UNL     1       8.446   2.705   2.060  0.00  0.00    +0.114 C 
ATOM      5  C   UNL     1       8.384   4.145   1.515  0.00  0.00    +0.062 C 
ATOM      6  C   UNL     1       8.433   5.095   2.667  0.00  0.00    -0.003 A 
ATOM      7  C   UNL     1       8.215   4.826   3.983  0.00  0.00    -0.012 A 
ATOM      8  C   UNL     1       8.315   5.899   4.866  0.00  0.00    +0.013 A 
ATOM      9  C   UNL     1       8.619   7.133   4.401  0.00  0.00    +0.046 A 
ATOM     10  S   UNL     1       8.782   6.834   2.647  0.00  0.00    -0.101 S 
ATOM     11  C   UNL     1       7.880   3.404   4.428  0.00  0.00    +0.144 C 
ENDROOT
BRANCH  11  12
ATOM     12  C   UNL     1       6.694   3.426   5.358  0.00  0.00    +0.015 A 
ATOM     13  C   UNL     1       6.609   3.007   6.644  0.00  0.00    +0.013 A 
ATOM     14  C   UNL     1       5.404   3.126   7.310  0.00  0.00    +0.008 A 
ATOM     15  C   UNL     1       4.342   3.659   6.657  0.00  0.00    +0.045 A 
ATOM     16  S   UNL     1       5.037   4.018   5.053  0.00  0.00    -0.099 S 
ENDBRANCH  11  12
BRANCH   1  17
ATOM     17  C   UNL     1       6.069   1.138   1.922  0.00  0.00    +0.096 C 
BRANCH  17  18
ATOM     18  C   UNL     1       4.803   0.314   2.160  0.00  0.00    +0.014 C 
BRANCH  18  19
ATOM     19  C   UNL     1       4.402  -0.392   0.863  0.00  0.00    +0.043 C 
BRANCH  19  22
ATOM     20  C   UNL     1       0.865  -1.759   1.235  0.00  0.00    +0.008 A 
ATOM     21  C   UNL     1       1.857  -0.835   0.962  0.00  0.00    +0.011 A 
ATOM     22  C   UNL     1       3.154  -1.204   1.098  0.00  0.00    -0.010 A 
ATOM     23  S   UNL     1       3.002  -2.903   1.626  0.00  0.00    -0.102 S 
ATOM     24  C   UNL     1       1.219  -3.006   1.630  0.00  0.00    +0.045 A 
ENDBRANCH  19  22
ENDBRANCH  18  19
ENDBRANCH  17  18
ENDBRANCH   1  17
TORSDOF 5
