REMARK  Name = ZINC63832331
REMARK  2 active torsions:
REMARK  status: ('A' for Active; 'I' for Inactive)
REMARK    1  A    between atoms: N_17  and  C_18
REMARK    2  A    between atoms: C_21  and  C_25
REMARK                            x       y       z     vdW  Elec       q    Type
REMARK                         _______ _______ _______ _____ _____    ______ ____
ROOT
ATOM      1  C   UNL     1      -0.019   1.345   0.015  0.00  0.00    +0.001 A 
ATOM      2  C   UNL     1       1.162   2.099   0.011  0.00  0.00    +0.002 A 
ATOM      3  C   UNL     1       2.387   1.532   0.000  0.00  0.00    +0.026 A 
ATOM      4  C   UNL     1       2.527   0.118  -0.008  0.00  0.00    +0.043 A 
ATOM      5  N   UNL     1       3.589  -0.655  -0.039  0.00  0.00    -0.376 N 
ATOM      6  C   UNL     1       3.153  -2.047   0.045  0.00  0.00    +0.124 C 
ATOM      7  C   UNL     1       3.651  -2.874  -1.145  0.00  0.00    +0.138 C 
ATOM      8  N   UNL     1       2.856  -4.111  -1.199  0.00  0.00    -0.283 N 
ATOM      9  C   UNL     1       1.399  -4.056  -1.362  0.00  0.00    +0.114 C 
ATOM     10  C   UNL     1       0.789  -3.239  -0.209  0.00  0.00    +0.052 C 
ATOM     11  C   UNL     1       1.636  -2.000  -0.029  0.00  0.00    -0.036 C 
ATOM     12  C   UNL     1       1.291  -0.704  -0.011  0.00  0.00    -0.001 A 
ATOM     13  C   UNL     1      -0.001  -0.007   0.005  0.00  0.00    +0.010 A 
ATOM     14  C   UNL     1       3.472  -5.306  -1.099  0.00  0.00    +0.302 C 
ATOM     15  O   UNL     1       4.686  -5.362  -1.058  0.00  0.00    -0.253 OA
ATOM     16  N   UNL     1       2.743  -6.438  -1.042  0.00  0.00    -0.291 N 
ATOM     17  H   UNL     1       1.779  -6.399  -1.148  0.00  0.00    +0.150 HD
ATOM     18  H   UNL     1       4.508  -0.352  -0.106  0.00  0.00    +0.160 HD
ENDROOT
BRANCH  16  19
ATOM     19  C   UNL     1       3.405  -7.726  -0.822  0.00  0.00    +0.163 C 
ATOM     20  N   UNL     1       2.472  -8.843  -1.116  0.00  0.00    +0.421 N 
ATOM     21  C   UNL     1       2.851  -9.824  -0.068  0.00  0.00    +0.080 C 
ATOM     22  N   UNL     1       3.450  -9.016   1.002  0.00  0.00    -0.208 NA
ATOM     23  N   UNL     1       3.750  -7.887   0.596  0.00  0.00    -0.191 NA
ATOM     24  H   UNL     1       1.512  -8.552  -1.009  0.00  0.00    -0.077 HD
ATOM     25  H   UNL     1       2.636  -9.218  -2.039  0.00  0.00    -0.077 HD
BRANCH  21  26
ATOM     26  C   UNL     1       1.612 -10.559   0.447  0.00  0.00    -0.002 C 
ATOM     27  C   UNL     1       2.026 -11.564   1.524  0.00  0.00    +0.004 C 
ATOM     28  C   UNL     1       0.786 -12.299   2.039  0.00  0.00    +0.000 C 
ATOM     29  C   UNL     1       0.116 -13.041   0.881  0.00  0.00    +0.000 C 
ATOM     30  C   UNL     1      -0.298 -12.036  -0.197  0.00  0.00    +0.000 C 
ATOM     31  C   UNL     1       0.942 -11.301  -0.711  0.00  0.00    +0.004 C 
ENDBRANCH  21  26
ENDBRANCH  16  19
TORSDOF 2
