REMARK  Name = ZINC63193890
REMARK  5 active torsions:
REMARK  status: ('A' for Active; 'I' for Inactive)
REMARK    1  A    between atoms: C_1  and  C_2
REMARK    2  A    between atoms: C_2  and  C_4
REMARK    3  A    between atoms: C_2  and  N_23
REMARK    4  A    between atoms: N_10  and  S_11
REMARK    5  A    between atoms: S_11  and  C_14
REMARK                            x       y       z     vdW  Elec       q    Type
REMARK                         _______ _______ _______ _____ _____    ______ ____
ROOT
ATOM      1  C   UNL     1       0.322  -0.370   0.984  0.00  0.00    +0.065 C 
ATOM      2  C   UNL     1       1.743   0.170   1.179  0.00  0.00    +0.019 C 
ATOM      3  C   UNL     1       2.281  -0.300   2.532  0.00  0.00    +0.003 C 
ATOM      4  C   UNL     1       2.338  -1.829   2.557  0.00  0.00    +0.017 C 
ATOM      5  C   UNL     1       0.924  -2.392   2.378  0.00  0.00    +0.110 C 
ATOM      6  N   UNL     1       0.341  -1.830   1.152  0.00  0.00    -0.175 NA
ENDROOT
BRANCH   6   7
ATOM      7  S   UNL     1      -0.280  -2.822  -0.019  0.00  0.00    +0.064 S 
ATOM      8  O   UNL     1      -1.017  -1.991  -0.906  0.00  0.00    -0.153 OA
ATOM      9  O   UNL     1       0.788  -3.648  -0.460  0.00  0.00    -0.153 OA
BRANCH   7  10
ATOM     10  C   UNL     1      -1.449  -3.884   0.763  0.00  0.00    +0.142 A 
ATOM     11  C   UNL     1      -1.069  -5.151   1.168  0.00  0.00    +0.070 A 
ATOM     12  C   UNL     1      -1.986  -5.984   1.783  0.00  0.00    +0.037 A 
ATOM     13  C   UNL     1      -3.283  -5.551   1.992  0.00  0.00    +0.021 A 
ATOM     14  C   UNL     1      -3.662  -4.284   1.588  0.00  0.00    +0.037 A 
ATOM     15  C   UNL     1      -2.744  -3.449   0.978  0.00  0.00    +0.070 A 
ATOM     16 CL   UNL     1      -3.219  -1.856   0.476  0.00  0.00    -0.081 Cl
ATOM     17 BR   UNL     1      -4.536  -6.691   2.832  0.00  0.00    -0.050 Br
ATOM     18 CL   UNL     1       0.558  -5.695   0.905  0.00  0.00    -0.081 Cl
ENDBRANCH   7  10
ENDBRANCH   6   7
BRANCH   1  20
ATOM     19  C   UNL     1       0.765  -0.647  -1.460  0.00  0.00    -0.013 C 
ATOM     20  C   UNL     1      -0.170  -0.022  -0.422  0.00  0.00    -0.059 C 
BRANCH  20  21
ATOM     21  N   UNL     1      -0.182   1.437  -0.590  0.00  0.00    +0.381 N 
ATOM     22  H   UNL     1      -0.590   1.670  -1.483  0.00  0.00    -0.090 HD
ATOM     23  H   UNL     1      -0.727   1.856   0.149  0.00  0.00    -0.090 HD
ATOM     24  H   UNL     1       0.763   1.788  -0.551  0.00  0.00    -0.090 HD
ENDBRANCH  20  21
ENDBRANCH   1  20
TORSDOF 4
