REMARK  Name = ZINC11898429
REMARK  8 active torsions:
REMARK  status: ('A' for Active; 'I' for Inactive)
REMARK    1  A    between atoms: C_1  and  N_2
REMARK    2  A    between atoms: C_6  and  C_7
REMARK    3  A    between atoms: C_7  and  C_9
REMARK    4  A    between atoms: C_7  and  N_57
REMARK    5  A    between atoms: C_9  and  N_10
REMARK    6  A    between atoms: C_11  and  C_13
REMARK    7  A    between atoms: N_15  and  C_16
REMARK    8  A    between atoms: C_21  and  C_22
REMARK                            x       y       z     vdW  Elec       q    Type
REMARK                         _______ _______ _______ _____ _____    ______ ____
ROOT
ATOM      1  C   UNL     1       4.167   9.565   0.162  0.00  0.00    -0.003 C 
ENDROOT
BRANCH   1  11
ATOM      2  C   UNL     1       2.538   8.903   1.830  0.00  0.00    -0.073 C 
ATOM      3  C   UNL     1       1.957   9.346   3.173  0.00  0.00    +0.017 C 
ATOM      4  C   UNL     1       1.245  10.665   3.014  0.00  0.00    -0.048 A 
ATOM      5  C   UNL     1       0.361  11.063   4.006  0.00  0.00    +0.004 A 
ATOM      6  C   UNL     1      -0.305  12.268   3.905  0.00  0.00    +0.000 A 
ATOM      7  C   UNL     1      -0.091  13.082   2.808  0.00  0.00    +0.000 A 
ATOM      8  C   UNL     1       0.787  12.686   1.819  0.00  0.00    +0.002 A 
ATOM      9  C   UNL     1       1.456  11.475   1.919  0.00  0.00    -0.061 A 
ATOM     10  C   UNL     1       2.400  11.084   0.813  0.00  0.00    -0.042 C 
ATOM     11  N   UNL     1       3.317  10.031   1.281  0.00  0.00    +0.389 N 
ATOM     12  H   UNL     1       3.918  10.415   2.020  0.00  0.00    -0.080 HD
ENDBRANCH   1  11
BRANCH   1  18
ATOM     13  C   UNL     1       6.188   9.517  -2.189  0.00  0.00    +0.148 C 
ATOM     14  N   UNL     1       6.000  10.636  -1.262  0.00  0.00    -0.355 N 
ATOM     15  C   UNL     1       6.679  11.819  -1.297  0.00  0.00    +0.085 A 
ATOM     16  C   UNL     1       6.234  12.590  -0.284  0.00  0.00    +0.019 A 
ATOM     17  C   UNL     1       5.240  11.860   0.397  0.00  0.00    +0.021 A 
ATOM     18  C   UNL     1       5.116  10.670  -0.226  0.00  0.00    +0.006 A 
ENDBRANCH   1  18
BRANCH   1  19
ATOM     19  C   UNL     1       4.967   8.342   0.616  0.00  0.00    +0.095 C 
BRANCH  19  20
ATOM     20  N   UNL     1       5.675   8.655   1.859  0.00  0.00    -0.309 N 
ATOM     21  C   UNL     1       6.527   7.757   2.394  0.00  0.00    +0.299 C 
ATOM     22  O   UNL     1       6.706   6.690   1.845  0.00  0.00    -0.265 OA
ATOM     23  H   UNL     1       5.532   9.508   2.297  0.00  0.00    +0.149 HD
BRANCH  21  24
ATOM     24  C   UNL     1       7.249   8.077   3.661  0.00  0.00    +0.303 C 
ATOM     25  O   UNL     1       7.070   9.144   4.210  0.00  0.00    -0.265 OA
ATOM     26  N   UNL     1       8.100   7.179   4.196  0.00  0.00    -0.277 N 
ATOM     27  H   UNL     1       8.302   6.358   3.720  0.00  0.00    +0.155 HD
BRANCH  26  28
ATOM     28  C   UNL     1       8.690   7.430   5.432  0.00  0.00    +0.053 A 
ATOM     29  C   UNL     1       8.092   8.308   6.325  0.00  0.00    +0.044 A 
ATOM     30  C   UNL     1       8.680   8.555   7.551  0.00  0.00    +0.043 A 
ATOM     31  C   UNL     1       9.865   7.926   7.901  0.00  0.00    +0.021 A 
ATOM     32  C   UNL     1      10.476   7.056   7.024  0.00  0.00    +0.022 A 
ATOM     33  C   UNL     1       9.893   6.796   5.781  0.00  0.00    +0.073 A 
ATOM     34 CL   UNL     1       7.926   9.655   8.663  0.00  0.00    -0.083 Cl
BRANCH  33  35
ATOM     35  C   UNL     1      10.520   5.888   4.868  0.00  0.00    +0.101 C 
ATOM     36  N   UNL     1      11.017   5.167   4.144  0.00  0.00    -0.191 NA
ENDBRANCH  33  35
ENDBRANCH  26  28
ENDBRANCH  21  24
ENDBRANCH  19  20
ENDBRANCH   1  19
TORSDOF 7
