REMARK  Name = ZINC51852425
REMARK  4 active torsions:
REMARK  status: ('A' for Active; 'I' for Inactive)
REMARK    1  A    between atoms: C_5  and  C_11
REMARK    2  A    between atoms: C_11  and  O_13
REMARK    3  A    between atoms: O_13  and  C_14
REMARK    4  A    between atoms: C_18  and  C_20
REMARK                            x       y       z     vdW  Elec       q    Type
REMARK                         _______ _______ _______ _____ _____    ______ ____
ROOT
ATOM      1  C   UNL     1       5.973   0.634  -0.091  0.00  0.00    +0.380 C 
ATOM      2  O   UNL     1       6.620   1.664  -0.129  0.00  0.00    -0.241 OA
ENDROOT
BRANCH   1   7
ATOM      3  C   UNL     1      -0.022   1.366  -0.047  0.00  0.00    +0.002 A 
ATOM      4  C   UNL     1       1.144   2.077  -0.080  0.00  0.00    +0.012 A 
ATOM      5  C   UNL     1       2.367   1.402  -0.074  0.00  0.00    +0.022 A 
ATOM      6  C   UNL     1       3.766   1.828  -0.102  0.00  0.00    +0.065 A 
ATOM      7  C   UNL     1       4.506   0.689  -0.076  0.00  0.00    +0.213 A 
ATOM      8  O   UNL     1       3.690  -0.385  -0.036  0.00  0.00    -0.447 OA
ATOM      9  C   UNL     1       2.397  -0.004  -0.034  0.00  0.00    +0.150 A 
ATOM     10  C   UNL     1       1.197  -0.707  -0.001  0.00  0.00    +0.061 A 
ATOM     11  C   UNL     1       0.001  -0.021  -0.007  0.00  0.00    +0.019 A 
ATOM     12 BR   UNL     1       1.207  -2.597   0.054  0.00  0.00    -0.046 Br
ENDBRANCH   1   7
BRANCH   1  13
ATOM     13  O   UNL     1       6.604  -0.557  -0.064  0.00  0.00    -0.420 OA
BRANCH  13  14
ATOM     14  C   UNL     1       7.958  -0.566  -0.181  0.00  0.00    +0.133 A 
ATOM     15  C   UNL     1       8.548  -0.917  -1.389  0.00  0.00    +0.046 A 
ATOM     16  C   UNL     1       9.924  -0.927  -1.514  0.00  0.00    +0.004 A 
ATOM     17  C   UNL     1      10.722  -0.588  -0.440  0.00  0.00    +0.013 A 
ATOM     18  C   UNL     1      10.139  -0.234   0.777  0.00  0.00    +0.040 A 
ATOM     19  C   UNL     1       8.749  -0.218   0.901  0.00  0.00    +0.059 A 
BRANCH  18  20
ATOM     20  C   UNL     1      10.990   0.129   1.930  0.00  0.00    +0.242 C 
ATOM     21  O   UNL     1      10.480   0.437   2.989  0.00  0.00    -0.270 OA
ATOM     22  N   UNL     1      12.332   0.118   1.806  0.00  0.00    -0.325 N 
ATOM     23  H   UNL     1      12.739  -0.128   0.961  0.00  0.00    +0.145 HD
ATOM     24  H   UNL     1      12.891   0.356   2.563  0.00  0.00    +0.145 HD
ENDBRANCH  18  20
ENDBRANCH  13  14
ENDBRANCH   1  13
TORSDOF 4
