REMARK  Name = ZINC04299888
REMARK  5 active torsions:
REMARK  status: ('A' for Active; 'I' for Inactive)
REMARK    1  A    between atoms: C_8  and  C_10
REMARK    2  A    between atoms: C_10  and  O_12
REMARK    3  A    between atoms: O_12  and  N_13
REMARK    4  A    between atoms: C_14  and  C_15
REMARK    5  A    between atoms: C_19  and  N_21
REMARK                            x       y       z     vdW  Elec       q    Type
REMARK                         _______ _______ _______ _____ _____    ______ ____
ROOT
ATOM      1  N   UNL     1       4.706  -5.706  -0.074  0.00  0.00    -0.059 NA
ATOM      2  C   UNL     1       5.936  -6.131  -0.088  0.00  0.00    +0.163 C 
ATOM      3  N   UNL     1       6.981  -5.225  -0.093  0.00  0.00    -0.340 N 
ATOM      4  H   UNL     1       6.797  -4.273  -0.085  0.00  0.00    +0.144 HD
ATOM      5  H   UNL     1       7.898  -5.542  -0.103  0.00  0.00    +0.144 HD
ENDROOT
BRANCH   2   6
ATOM      6  C   UNL     1       6.217  -7.585  -0.099  0.00  0.00    +0.020 A 
ATOM      7  C   UNL     1       5.165  -8.501  -0.100  0.00  0.00    +0.011 A 
ATOM      8  C   UNL     1       5.433  -9.854  -0.110  0.00  0.00    +0.003 A 
ATOM      9  C   UNL     1       6.742 -10.303  -0.119  0.00  0.00    +0.033 A 
ATOM     10  C   UNL     1       7.789  -9.400  -0.117  0.00  0.00    +0.127 A 
ATOM     11  C   UNL     1       7.534  -8.043  -0.114  0.00  0.00    +0.044 A 
BRANCH  10  12
ATOM     12  N   UNL     1       9.186  -9.889  -0.126  0.00  0.00    +0.056 N 
ATOM     13  O   UNL     1       9.411 -11.076  -0.134  0.00  0.00    -0.126 OA
ATOM     14  O   UNL     1      10.102  -9.100  -0.125  0.00  0.00    -0.126 OA
ENDBRANCH  10  12
ENDBRANCH   2   6
BRANCH   1  15
ATOM     15  O   UNL     1       4.438  -4.316  -0.064  0.00  0.00    -0.310 OA
BRANCH  15  16
ATOM     16  C   UNL     1       3.125  -4.011  -0.050  0.00  0.00    +0.374 C 
ATOM     17  O   UNL     1       2.295  -4.899  -0.047  0.00  0.00    -0.242 OA
BRANCH  16  25
ATOM     18  C   UNL     1      -0.016   1.354   0.009  0.00  0.00    +0.001 A 
ATOM     19  C   UNL     1       1.157   2.098   0.002  0.00  0.00    +0.001 A 
ATOM     20  C   UNL     1       2.374   1.449  -0.013  0.00  0.00    +0.016 A 
ATOM     21  C   UNL     1       2.409   0.070  -0.021  0.00  0.00    +0.022 A 
ATOM     22  C   UNL     1       1.231  -0.713  -0.013  0.00  0.00    +0.008 A 
ATOM     23  C   UNL     1       0.002  -0.004   0.002  0.00  0.00    +0.010 A 
ATOM     24  C   UNL     1       1.432  -2.106  -0.023  0.00  0.00    +0.070 A 
ATOM     25  C   UNL     1       2.698  -2.608  -0.037  0.00  0.00    +0.118 A 
ATOM     26  S   UNL     1       3.710  -1.138  -0.039  0.00  0.00    -0.080 S 
ATOM     27 CL   UNL     1       0.070  -3.182  -0.015  0.00  0.00    -0.082 Cl
ENDBRANCH  16  25
ENDBRANCH  15  16
ENDBRANCH   1  15
TORSDOF 5
