REMARK  Name = ZINC02618700
REMARK  11 active torsions:
REMARK  status: ('A' for Active; 'I' for Inactive)
REMARK    1  A    between atoms: C_1  and  C_2
REMARK    2  A    between atoms: C_2  and  C_3
REMARK    3  A    between atoms: C_2  and  C_4
REMARK    4  A    between atoms: C_4  and  C_5
REMARK    5  A    between atoms: C_4  and  C_6
REMARK    6  A    between atoms: C_4  and  N_8
REMARK    7  A    between atoms: C_9  and  C_11
REMARK    8  A    between atoms: C_11  and  S_12
REMARK    9  A    between atoms: S_12  and  C_13
REMARK   10  A    between atoms: C_17  and  C_20
REMARK   11  A    between atoms: N_27  and  C_28
REMARK                            x       y       z     vdW  Elec       q    Type
REMARK                         _______ _______ _______ _____ _____    ______ ____
ROOT
ATOM      1  C   UNL     1       4.769   1.447   0.068  0.00  0.00    +0.178 A 
ATOM      2  N   UNL     1       5.918   2.092   0.064  0.00  0.00    -0.215 NA
ATOM      3  C   UNL     1       5.956   3.417  -0.028  0.00  0.00    +0.117 A 
ATOM      4  C   UNL     1       4.787   4.191  -0.124  0.00  0.00    +0.083 A 
ATOM      5  C   UNL     1       5.007   5.632  -0.218  0.00  0.00    +0.039 A 
ATOM      6  C   UNL     1       6.280   6.098  -0.206  0.00  0.00    +0.059 A 
ATOM      7  S   UNL     1       7.262   4.617  -0.067  0.00  0.00    -0.076 S 
ATOM      8  C   UNL     1       3.556   3.466  -0.122  0.00  0.00    +0.268 A 
ATOM      9  O   UNL     1       2.493   4.056  -0.206  0.00  0.00    -0.267 OA
ATOM     10  N   UNL     1       3.585   2.124  -0.021  0.00  0.00    -0.255 N 
ENDROOT
BRANCH  10  11
ATOM     11  C   UNL     1       2.381   1.409  -0.013  0.00  0.00    +0.052 A 
ATOM     12  C   UNL     1       1.826   0.968  -1.208  0.00  0.00    +0.026 A 
ATOM     13  C   UNL     1       0.638   0.263  -1.197  0.00  0.00    +0.002 A 
ATOM     14  C   UNL     1       0.002  -0.004   0.002  0.00  0.00    +0.000 A 
ATOM     15  C   UNL     1       0.551   0.435   1.192  0.00  0.00    +0.002 A 
ATOM     16  C   UNL     1       1.739   1.140   1.188  0.00  0.00    +0.026 A 
ENDBRANCH  10  11
BRANCH   5  17
ATOM     17  C   UNL     1       3.865   6.563  -0.323  0.00  0.00    +0.136 A 
ATOM     18  C   UNL     1       3.664   7.670   0.442  0.00  0.00    +0.050 A 
ATOM     19  C   UNL     1       2.461   8.257  -0.001  0.00  0.00    +0.042 A 
ATOM     20  C   UNL     1       1.988   7.483  -0.996  0.00  0.00    +0.196 A 
ATOM     21  O   UNL     1       2.839   6.460  -1.189  0.00  0.00    -0.463 OA
ENDBRANCH   5  17
BRANCH   1  22
ATOM     22  S   UNL     1       4.759  -0.311   0.192  0.00  0.00    -0.078 S 
BRANCH  22  23
ATOM     23  C   UNL     1       6.538  -0.630   0.277  0.00  0.00    +0.173 C 
BRANCH  23  25
ATOM     24  N   UNL     1       8.036  -2.590   0.467  0.00  0.00    -0.297 N 
ATOM     25  C   UNL     1       6.777  -2.114   0.390  0.00  0.00    +0.224 C 
ATOM     26  O   UNL     1       5.837  -2.880   0.410  0.00  0.00    -0.275 OA
ATOM     27  H   UNL     1       8.788  -1.977   0.451  0.00  0.00    +0.150 HD
BRANCH  24  28
ATOM     28  C   UNL     1       8.268  -4.032   0.577  0.00  0.00    +0.121 C 
ATOM     29  C   UNL     1       7.681  -4.738  -0.647  0.00  0.00    +0.048 C 
BRANCH  28  31
ATOM     30  C   UNL     1      10.012  -5.794   0.889  0.00  0.00    +0.010 C 
ATOM     31  C   UNL     1       9.773  -4.302   0.649  0.00  0.00    +0.020 C 
ATOM     32  C   UNL     1      10.429  -3.885  -0.669  0.00  0.00    +0.010 C 
ENDBRANCH  28  31
BRANCH  28  33
ATOM     33  C   UNL     1       7.619  -4.542   1.796  0.00  0.00    +0.088 C 
ATOM     34  N   UNL     1       7.119  -4.936   2.736  0.00  0.00    -0.194 NA
ENDBRANCH  28  33
ENDBRANCH  24  28
ENDBRANCH  23  25
ENDBRANCH  22  23
ENDBRANCH   1  22
TORSDOF 8
