REMARK  Name = ZINC02196984
REMARK  7 active torsions:
REMARK  status: ('A' for Active; 'I' for Inactive)
REMARK    1  A    between atoms: C_1  and  C_2
REMARK    2  A    between atoms: C_8  and  C_12
REMARK    3  A    between atoms: C_12  and  C_13
REMARK    4  A    between atoms: C_13  and  N_14
REMARK    5  A    between atoms: C_15  and  C_17
REMARK    6  A    between atoms: C_17  and  O_18
REMARK    7  A    between atoms: O_18  and  C_19
REMARK                            x       y       z     vdW  Elec       q    Type
REMARK                         _______ _______ _______ _____ _____    ______ ____
ROOT
ATOM      1  C   UNL     1       3.058   7.885   0.014  0.00  0.00    +0.109 C 
ENDROOT
BRANCH   1   2
ATOM      2  N   UNL     1       3.268   6.435   0.004  0.00  0.00    -0.312 N 
ATOM      3  C   UNL     1       2.209   5.601   0.010  0.00  0.00    +0.251 C 
ATOM      4  O   UNL     1       1.083   6.051   0.023  0.00  0.00    -0.272 OA
ATOM      5  H   UNL     1       4.169   6.075  -0.006  0.00  0.00    +0.149 HD
BRANCH   3   6
ATOM      6  C   UNL     1       2.425   4.109   0.001  0.00  0.00    +0.324 C 
BRANCH   6   7
ATOM      7  O   UNL     1       1.159   3.445   0.009  0.00  0.00    -0.483 OA
BRANCH   7   8
ATOM      8  C   UNL     1       1.176   2.086   0.002  0.00  0.00    +0.121 A 
ATOM      9  C   UNL     1      -0.017   1.377   0.010  0.00  0.00    +0.047 A 
ATOM     10  C   UNL     1       0.002  -0.004   0.002  0.00  0.00    +0.023 A 
ATOM     11  C   UNL     1       1.209  -0.680  -0.013  0.00  0.00    +0.041 A 
ATOM     12  C   UNL     1       2.399   0.025  -0.020  0.00  0.00    +0.023 A 
ATOM     13  C   UNL     1       2.385   1.406  -0.012  0.00  0.00    +0.047 A 
ATOM     14 CL   UNL     1       1.230  -2.416  -0.023  0.00  0.00    -0.084 Cl
ENDBRANCH   7   8
ENDBRANCH   6   7
ENDBRANCH   3   6
ENDBRANCH   1   2
BRANCH   1  15
ATOM     15  C   UNL     1       4.413   8.596   0.005  0.00  0.00    +0.056 C 
BRANCH  15  23
ATOM     16  C   UNL     1       3.614  11.438   4.913  0.00  0.00    +0.044 C 
ATOM     17  C   UNL     1       3.692  11.710   3.433  0.00  0.00    -0.050 A 
ATOM     18  C   UNL     1       3.543  13.008   2.962  0.00  0.00    +0.005 A 
ATOM     19  C   UNL     1       3.611  13.278   1.614  0.00  0.00    +0.026 A 
ATOM     20  C   UNL     1       3.832  12.242   0.712  0.00  0.00    +0.047 A 
ATOM     21  C   UNL     1       3.977  10.928   1.193  0.00  0.00    +0.003 A 
ATOM     22  C   UNL     1       3.910  10.678   2.565  0.00  0.00    +0.013 A 
ATOM     23  C   UNL     1       4.198  10.087   0.014  0.00  0.00    -0.021 A 
ATOM     24  C   UNL     1       4.166  10.896  -1.057  0.00  0.00    +0.087 A 
ATOM     25  N   UNL     1       3.949  12.188  -0.659  0.00  0.00    -0.360 N 
ATOM     26  H   UNL     1       3.885  12.951  -1.255  0.00  0.00    +0.165 HD
ENDBRANCH  15  23
ENDBRANCH   1  15
TORSDOF 6
