REMARK  Name = ZINC04514945
REMARK  4 active torsions:
REMARK  status: ('A' for Active; 'I' for Inactive)
REMARK    1  A    between atoms: C_1  and  C_2
REMARK    2  A    between atoms: N_11  and  C_15
REMARK    3  A    between atoms: C_15  and  C_16
REMARK    4  A    between atoms: C_16  and  C_18
REMARK                            x       y       z     vdW  Elec       q    Type
REMARK                         _______ _______ _______ _____ _____    ______ ____
ROOT
ATOM      1  C   UNL     1      -0.001   1.056   2.507  0.00  0.00    +0.010 C 
ATOM      2  C   UNL     1      -0.730   1.580   1.267  0.00  0.00    +0.018 C 
ATOM      3  C   UNL     1      -0.013   1.086   0.008  0.00  0.00    +0.006 C 
ATOM      4  C   UNL     1      -0.753   1.593  -1.231  0.00  0.00    +0.000 C 
ATOM      5  C   UNL     1      -2.185   1.054  -1.227  0.00  0.00    +0.003 C 
ATOM      6  C   UNL     1      -2.911   1.548   0.027  0.00  0.00    +0.035 C 
ATOM      7  C   UNL     1      -2.167   1.071   1.270  0.00  0.00    +0.115 C 
ATOM      8  C   UNL     1      -2.193  -0.438   1.354  0.00  0.00    +0.247 C 
ATOM      9  O   UNL     1      -1.729  -1.226   0.558  0.00  0.00    -0.273 OA
ATOM     10  N   UNL     1      -2.842  -0.724   2.502  0.00  0.00    -0.217 N 
ATOM     11  C   UNL     1      -3.222   0.388   3.143  0.00  0.00    +0.310 C 
ATOM     12  O   UNL     1      -3.823   0.387   4.199  0.00  0.00    -0.252 OA
ATOM     13  N   UNL     1      -2.865   1.508   2.486  0.00  0.00    -0.285 N 
ATOM     14  H   UNL     1      -3.035   2.422   2.761  0.00  0.00    +0.151 HD
ENDROOT
BRANCH  10  15
ATOM     15  C   UNL     1      -3.098  -2.082   2.987  0.00  0.00    +0.197 C 
BRANCH  15  16
ATOM     16  C   UNL     1      -4.421  -2.566   2.451  0.00  0.00    +0.181 C 
ATOM     17  O   UNL     1      -5.084  -1.846   1.735  0.00  0.00    -0.290 OA
BRANCH  16  18
ATOM     18  C   UNL     1      -4.908  -3.911   2.797  0.00  0.00    +0.019 A 
ATOM     19  C   UNL     1      -4.145  -4.748   3.618  0.00  0.00    +0.012 A 
ATOM     20  C   UNL     1      -4.615  -6.001   3.934  0.00  0.00    +0.004 A 
ATOM     21  C   UNL     1      -5.835  -6.450   3.438  0.00  0.00    -0.044 A 
ATOM     22  C   UNL     1      -6.592  -5.631   2.626  0.00  0.00    -0.044 A 
ATOM     23  C   UNL     1      -6.132  -4.364   2.304  0.00  0.00    +0.015 A 
ATOM     24  C   UNL     1      -7.925  -6.054   2.066  0.00  0.00    +0.035 C 
ATOM     25  C   UNL     1      -8.084  -7.571   2.142  0.00  0.00    +0.005 C 
ATOM     26  C   UNL     1      -7.771  -8.018   3.575  0.00  0.00    +0.005 C 
ATOM     27  C   UNL     1      -6.274  -7.841   3.818  0.00  0.00    +0.035 C 
ENDBRANCH  16  18
ENDBRANCH  15  16
ENDBRANCH  10  15
TORSDOF 3
