REMARK  Name = ZINC36485117
REMARK  15 active torsions:
REMARK  status: ('A' for Active; 'I' for Inactive)
REMARK    1  A    between atoms: C_1  and  C_2
REMARK    2  A    between atoms: C_2  and  C_3
REMARK    3  A    between atoms: C_3  and  C_4
REMARK    4  A    between atoms: C_4  and  N_5
REMARK    5  A    between atoms: C_6  and  C_8
REMARK    6  A    between atoms: C_8  and  C_10
REMARK    7  A    between atoms: C_8  and  N_15
REMARK    8  A    between atoms: C_10  and  C_11
REMARK    9  A    between atoms: C_10  and  C_13
REMARK   10  A    between atoms: C_11  and  C_12
REMARK   11  A    between atoms: C_13  and  C_14
REMARK   12  A    between atoms: N_15  and  C_16
REMARK   13  A    between atoms: C_23  and  C_25
REMARK   14  A    between atoms: C_29  and  O_32
REMARK   15  A    between atoms: C_30  and  O_31
REMARK                            x       y       z     vdW  Elec       q    Type
REMARK                         _______ _______ _______ _____ _____    ______ ____
ROOT
ATOM      1  N   UNL     1       2.666  -5.820  -5.543  0.00  0.00    -0.255 N 
ATOM      2  C   UNL     1       3.524  -6.071  -4.535  0.00  0.00    +0.255 C 
ATOM      3  O   UNL     1       4.190  -5.169  -4.063  0.00  0.00    -0.269 OA
ENDROOT
BRANCH   1   4
ATOM      4  C   UNL     1       1.780  -6.813  -5.972  0.00  0.00    +0.039 A 
ATOM      5  C   UNL     1       2.200  -7.775  -6.882  0.00  0.00    +0.023 A 
ATOM      6  C   UNL     1       1.323  -8.755  -7.304  0.00  0.00    +0.003 A 
ATOM      7  C   UNL     1       0.028  -8.780  -6.821  0.00  0.00    +0.020 A 
ATOM      8  C   UNL     1      -0.394  -7.824  -5.914  0.00  0.00    +0.043 A 
ATOM      9  C   UNL     1       0.481  -6.844  -5.484  0.00  0.00    +0.043 A 
ATOM     10 CL   UNL     1      -2.022  -7.860  -5.311  0.00  0.00    -0.083 Cl
ENDBRANCH   1   4
BRANCH   2  11
ATOM     11  C   UNL     1       3.656  -7.441  -4.003  0.00  0.00    +0.082 A 
ATOM     12  C   UNL     1       2.539  -8.278  -3.934  0.00  0.00    +0.017 A 
ATOM     13  C   UNL     1       2.666  -9.557  -3.437  0.00  0.00    +0.005 A 
ATOM     14  C   UNL     1       3.898 -10.020  -3.003  0.00  0.00    +0.049 A 
ATOM     15  C   UNL     1       5.013  -9.203  -3.065  0.00  0.00    +0.159 A 
ATOM     16  C   UNL     1       4.902  -7.911  -3.571  0.00  0.00    +0.171 A 
BRANCH  16  17
ATOM     17  O   UNL     1       5.995  -7.109  -3.639  0.00  0.00    -0.503 OA
ATOM     18  H   UNL     1       6.143  -6.576  -2.845  0.00  0.00    +0.292 HD
ENDBRANCH  16  17
BRANCH  15  19
ATOM     19  O   UNL     1       6.219  -9.664  -2.638  0.00  0.00    -0.503 OA
ATOM     20  H   UNL     1       6.742 -10.097  -3.327  0.00  0.00    +0.292 HD
ENDBRANCH  15  19
ENDBRANCH   2  11
BRANCH   1  21
ATOM     21  C   UNL     1       2.662  -4.505  -6.190  0.00  0.00    +0.170 C 
BRANCH  21  23
ATOM     22  N   UNL     1       1.073  -2.635  -6.499  0.00  0.00    -0.314 N 
ATOM     23  C   UNL     1       1.361  -3.804  -5.893  0.00  0.00    +0.234 C 
ATOM     24  O   UNL     1       0.575  -4.290  -5.108  0.00  0.00    -0.274 OA
ATOM     25  H   UNL     1       1.729  -2.212  -7.075  0.00  0.00    +0.149 HD
BRANCH  22  26
ATOM     26  C   UNL     1      -0.233  -2.004  -6.288  0.00  0.00    +0.104 C 
BRANCH  26  27
ATOM     27  C   UNL     1      -0.302  -0.699  -7.084  0.00  0.00    +0.018 C 
BRANCH  27  29
ATOM     28  C   UNL     1      -1.735   1.266  -7.660  0.00  0.00    +0.004 C 
ATOM     29  C   UNL     1      -1.665  -0.039  -6.864  0.00  0.00    -0.002 C 
ENDBRANCH  27  29
ENDBRANCH  26  27
ENDBRANCH  22  26
ENDBRANCH  21  23
BRANCH  21  30
ATOM     30  C   UNL     1       2.812  -4.681  -7.703  0.00  0.00    +0.018 C 
BRANCH  30  31
ATOM     31  C   UNL     1       4.062  -5.512  -7.998  0.00  0.00    +0.002 C 
ATOM     32  C   UNL     1       5.308  -4.717  -7.601  0.00  0.00    +0.004 C 
ENDBRANCH  30  31
BRANCH  30  33
ATOM     33  C   UNL     1       1.580  -5.399  -8.258  0.00  0.00    +0.002 C 
ATOM     34  C   UNL     1       0.447  -4.390  -8.453  0.00  0.00    +0.004 C 
ENDBRANCH  30  33
ENDBRANCH  21  30
ENDBRANCH   1  21
TORSDOF 12
