REMARK  Name = ZINC42925311
REMARK  4 active torsions:
REMARK  status: ('A' for Active; 'I' for Inactive)
REMARK    1  A    between atoms: C_2  and  C_3
REMARK    2  A    between atoms: C_3  and  N_4
REMARK    3  A    between atoms: N_7  and  C_8
REMARK    4  A    between atoms: C_13  and  N_14
REMARK                            x       y       z     vdW  Elec       q    Type
REMARK                         _______ _______ _______ _____ _____    ______ ____
ROOT
ATOM      1  C   UNL     1       3.617  -4.153   2.434  0.00  0.00    +0.056 A 
ATOM      2  C   UNL     1       4.673  -4.019   1.545  0.00  0.00    +0.025 A 
ATOM      3  C   UNL     1       5.771  -4.853   1.645  0.00  0.00    +0.002 A 
ATOM      4  C   UNL     1       5.820  -5.823   2.630  0.00  0.00    +0.002 A 
ATOM      5  C   UNL     1       4.772  -5.963   3.520  0.00  0.00    +0.025 A 
ATOM      6  C   UNL     1       3.670  -5.126   3.431  0.00  0.00    +0.052 A 
ENDROOT
BRANCH   6   7
ATOM      7  N   UNL     1       2.610  -5.263   4.335  0.00  0.00    -0.324 N 
ATOM      8  C   UNL     1       1.490  -6.168   4.040  0.00  0.00    +0.110 C 
ATOM      9  C   UNL     1       1.494  -7.297   5.082  0.00  0.00    +0.061 C 
ATOM     10  C   UNL     1       1.748  -6.703   6.430  0.00  0.00    -0.004 A 
ATOM     11  C   UNL     1       2.245  -5.470   6.720  0.00  0.00    -0.020 A 
ATOM     12  C   UNL     1       2.396  -5.158   8.070  0.00  0.00    +0.013 A 
ATOM     13  C   UNL     1       2.050  -6.061   9.016  0.00  0.00    +0.046 A 
ATOM     14  S   UNL     1       1.479  -7.433   8.024  0.00  0.00    -0.101 S 
ATOM     15  C   UNL     1       2.605  -4.508   5.595  0.00  0.00    +0.141 C 
ENDBRANCH   6   7
BRANCH   1  19
ATOM     16  N   UNL     1       1.535  -1.329   1.562  0.00  0.00    -0.296 N 
ATOM     17  C   UNL     1       2.626  -2.095   1.761  0.00  0.00    +0.304 C 
ATOM     18  O   UNL     1       3.722  -1.691   1.422  0.00  0.00    -0.252 OA
ATOM     19  N   UNL     1       2.503  -3.308   2.335  0.00  0.00    -0.268 N 
ATOM     20  H   UNL     1       0.661  -1.651   1.832  0.00  0.00    +0.151 HD
ATOM     21  H   UNL     1       1.643  -3.596   2.679  0.00  0.00    +0.156 HD
BRANCH  16  22
ATOM     22  C   UNL     1       1.669  -0.010   0.938  0.00  0.00    +0.132 C 
BRANCH  22  24
ATOM     23  C   UNL     1       0.109   1.823   1.345  0.00  0.00    +0.005 C 
ATOM     24  C   UNL     1       0.312   0.635   0.831  0.00  0.00    -0.016 C 
ENDBRANCH  22  24
ENDBRANCH  16  22
ENDBRANCH   1  19
TORSDOF 4
