REMARK  Name = ZINC20762525
REMARK  12 active torsions:
REMARK  status: ('A' for Active; 'I' for Inactive)
REMARK    1  A    between atoms: C_1  and  O_2
REMARK    2  A    between atoms: O_2  and  C_3
REMARK    3  A    between atoms: C_7  and  C_9
REMARK    4  A    between atoms: N_22  and  C_23
REMARK    5  A    between atoms: C_23  and  C_25
REMARK    6  A    between atoms: C_23  and  C_31
REMARK    7  A    between atoms: C_25  and  C_26
REMARK    8  A    between atoms: C_26  and  C_27
REMARK    9  A    between atoms: C_27  and  O_29
REMARK   10  A    between atoms: O_29  and  C_30
REMARK   11  A    between atoms: C_31  and  O_33
REMARK   12  A    between atoms: O_33  and  C_34
REMARK                            x       y       z     vdW  Elec       q    Type
REMARK                         _______ _______ _______ _____ _____    ______ ____
ROOT
ATOM      1  C   UNL     1       1.326  -4.104  -2.288  0.00  0.00    +0.156 C 
ATOM      2  C   UNL     1       0.190  -4.612  -3.143  0.00  0.00    +0.062 A 
ATOM      3  C   UNL     1       0.355  -5.124  -4.382  0.00  0.00    +0.040 A 
ATOM      4  N   UNL     1      -0.882  -5.468  -4.837  0.00  0.00    -0.349 N 
ATOM      5  H   UNL     1      -1.090  -5.861  -5.699  0.00  0.00    +0.166 HD
ATOM      6  C   UNL     1      -1.765  -5.160  -3.859  0.00  0.00    +0.171 A 
ATOM      7  N   UNL     1      -1.111  -4.648  -2.849  0.00  0.00    -0.348 N 
ATOM      8  C   UNL     1       1.680  -5.271  -5.083  0.00  0.00    +0.074 C 
ATOM      9  C   UNL     1       2.709  -4.369  -4.389  0.00  0.00    +0.116 C 
ATOM     10  N   UNL     1       2.583  -4.527  -2.931  0.00  0.00    -0.273 N 
ATOM     11  C   UNL     1       3.591  -5.046  -2.202  0.00  0.00    +0.304 C 
ATOM     12  O   UNL     1       4.654  -5.305  -2.732  0.00  0.00    -0.253 OA
ATOM     13  N   UNL     1       3.420  -5.278  -0.885  0.00  0.00    -0.286 N 
ATOM     14  H   UNL     1       2.551  -5.140  -0.477  0.00  0.00    +0.151 HD
ATOM     15  H   UNL     1      -1.509  -4.343  -2.018  0.00  0.00    +0.167 HD
ENDROOT
BRANCH   1  20
ATOM     16  C   UNL     1       1.204  -0.462  -3.289  0.00  0.00    +0.120 A 
ATOM     17  C   UNL     1       1.176   0.162  -2.050  0.00  0.00    +0.045 A 
ATOM     18  C   UNL     1       1.196  -0.596  -0.895  0.00  0.00    +0.004 A 
ATOM     19  C   UNL     1       1.244  -1.975  -0.974  0.00  0.00    +0.006 A 
ATOM     20  C   UNL     1       1.273  -2.600  -2.207  0.00  0.00    -0.018 A 
ATOM     21  C   UNL     1       1.247  -1.846  -3.365  0.00  0.00    +0.051 A 
BRANCH  16  23
ATOM     22  C   UNL     1       1.139   1.702  -4.272  0.00  0.00    +0.277 C 
ATOM     23  O   UNL     1       1.184   0.282  -4.426  0.00  0.00    -0.495 OA
ENDBRANCH  16  23
ENDBRANCH   1  20
BRANCH  13  24
ATOM     24  C   UNL     1       4.547  -5.737  -0.070  0.00  0.00    +0.184 C 
BRANCH  24  25
ATOM     25  C   UNL     1       4.662  -7.237  -0.171  0.00  0.00    +0.327 C 
ATOM     26  O   UNL     1       3.882  -7.857  -0.855  0.00  0.00    -0.249 OA
BRANCH  25  27
ATOM     27  O   UNL     1       5.630  -7.882   0.497  0.00  0.00    -0.467 OA
ATOM     28  C   UNL     1       5.680  -9.303   0.355  0.00  0.00    +0.280 C 
ENDBRANCH  25  27
ENDBRANCH  24  25
BRANCH  24  29
ATOM     29  C   UNL     1       4.315  -5.341   1.390  0.00  0.00    +0.045 C 
BRANCH  29  30
ATOM     30  C   UNL     1       4.323  -3.816   1.512  0.00  0.00    +0.123 C 
BRANCH  30  31
ATOM     31  C   UNL     1       4.095  -3.426   2.950  0.00  0.00    +0.307 C 
ATOM     32  O   UNL     1       3.942  -4.280   3.790  0.00  0.00    -0.251 OA
BRANCH  31  33
ATOM     33  O   UNL     1       4.062  -2.130   3.296  0.00  0.00    -0.468 OA
ATOM     34  C   UNL     1       3.842  -1.833   4.676  0.00  0.00    +0.280 C 
ENDBRANCH  31  33
ENDBRANCH  30  31
ENDBRANCH  29  30
ENDBRANCH  24  29
ENDBRANCH  13  24
TORSDOF 9
