REMARK  Name = ZINC13971763
REMARK  6 active torsions:
REMARK  status: ('A' for Active; 'I' for Inactive)
REMARK    1  A    between atoms: C_1  and  C_2
REMARK    2  A    between atoms: C_4  and  C_10
REMARK    3  A    between atoms: C_7  and  O_8
REMARK    4  A    between atoms: O_8  and  C_9
REMARK    5  A    between atoms: C_10  and  C_11
REMARK    6  A    between atoms: C_16  and  C_19
REMARK                            x       y       z     vdW  Elec       q    Type
REMARK                         _______ _______ _______ _____ _____    ______ ____
ROOT
ATOM      1  C   UNL     1      -3.005   4.119  -1.370  0.00  0.00    +0.223 C 
ATOM      2  O   UNL     1      -2.325   3.740  -2.300  0.00  0.00    -0.275 OA
ATOM      3  N   UNL     1      -4.165   4.765  -1.602  0.00  0.00    -0.264 N 
ATOM      4  C   UNL     1      -4.582   4.997  -2.907  0.00  0.00    +0.165 A 
ATOM      5  N   UNL     1      -5.671   5.604  -3.341  0.00  0.00    -0.225 NA
ATOM      6  C   UNL     1      -5.913   5.739  -4.636  0.00  0.00    +0.082 A 
ATOM      7  C   UNL     1      -5.019   5.241  -5.541  0.00  0.00    +0.077 A 
ATOM      8  S   UNL     1      -3.782   4.560  -4.444  0.00  0.00    -0.060 S 
ATOM      9  H   UNL     1      -4.708   5.068  -0.858  0.00  0.00    +0.157 HD
ENDROOT
BRANCH   6  10
ATOM     10  C   UNL     1      -7.144   6.426  -5.099  0.00  0.00    +0.019 A 
ATOM     11  C   UNL     1      -7.392   6.571  -6.463  0.00  0.00    +0.013 A 
ATOM     12  C   UNL     1      -8.540   7.207  -6.889  0.00  0.00    +0.021 A 
ATOM     13  C   UNL     1      -9.441   7.709  -5.964  0.00  0.00    +0.042 A 
ATOM     14  C   UNL     1      -9.198   7.572  -4.609  0.00  0.00    +0.040 A 
ATOM     15  C   UNL     1      -8.054   6.933  -4.171  0.00  0.00    +0.052 A 
ATOM     16 CL   UNL     1      -7.749   6.763  -2.471  0.00  0.00    -0.083 Cl
ATOM     17 CL   UNL     1     -10.881   8.513  -6.508  0.00  0.00    -0.083 Cl
ENDBRANCH   6  10
BRANCH   1  18
ATOM     18  C   UNL     1      -2.553   3.867   0.046  0.00  0.00    +0.131 C 
BRANCH  18  22
ATOM     19  C   UNL     1       2.449   3.948  -0.000  0.00  0.00    +0.047 C 
ATOM     20  C   UNL     1       1.157   3.173   0.008  0.00  0.00    -0.009 A 
ATOM     21  C   UNL     1      -0.051   3.844   0.022  0.00  0.00    +0.011 A 
ATOM     22  C   UNL     1      -1.237   3.133   0.030  0.00  0.00    -0.038 A 
ATOM     23  C   UNL     1      -1.218   1.751   0.017  0.00  0.00    +0.008 A 
ATOM     24  C   UNL     1      -0.013   1.076   0.008  0.00  0.00    +0.046 A 
ATOM     25  C   UNL     1       1.179   1.786   0.000  0.00  0.00    +0.123 A 
BRANCH  25  26
ATOM     26  O   UNL     1       2.366   1.125  -0.015  0.00  0.00    -0.495 OA
ATOM     27  C   UNL     1       2.313  -0.303  -0.022  0.00  0.00    +0.277 C 
ENDBRANCH  25  26
ENDBRANCH  18  22
ENDBRANCH   1  18
TORSDOF 4
