REMARK  Name = ZINC36876113
REMARK  9 active torsions:
REMARK  status: ('A' for Active; 'I' for Inactive)
REMARK    1  A    between atoms: C_1  and  C_2
REMARK    2  A    between atoms: C_2  and  C_3
REMARK    3  A    between atoms: C_3  and  C_23
REMARK    4  A    between atoms: N_6  and  C_10
REMARK    5  A    between atoms: C_10  and  C_11
REMARK    6  A    between atoms: N_13  and  C_14
REMARK    7  A    between atoms: C_15  and  C_22
REMARK    8  A    between atoms: C_17  and  C_21
REMARK    9  A    between atoms: C_19  and  C_20
REMARK                            x       y       z     vdW  Elec       q    Type
REMARK                         _______ _______ _______ _____ _____    ______ ____
ROOT
ATOM      1  C   UNL     1       3.055   0.060  -2.312  0.00  0.00    +0.138 C 
ATOM      2  C   UNL     1       1.662   0.478  -2.737  0.00  0.00    +0.251 C 
ATOM      3  O   UNL     1       0.638   0.375  -2.095  0.00  0.00    -0.272 OA
ATOM      4  N   UNL     1       1.797   0.989  -3.977  0.00  0.00    -0.215 N 
ATOM      5  C   UNL     1       3.069   0.952  -4.389  0.00  0.00    +0.310 C 
ATOM      6  O   UNL     1       3.439   1.356  -5.474  0.00  0.00    -0.252 OA
ATOM      7  N   UNL     1       3.893   0.417  -3.470  0.00  0.00    -0.281 N 
ATOM      8  H   UNL     1       4.851   0.292  -3.553  0.00  0.00    +0.152 HD
ENDROOT
BRANCH   1   9
ATOM      9  C   UNL     1       3.112  -1.424  -2.054  0.00  0.00    -0.015 A 
ATOM     10  C   UNL     1       2.898  -1.913  -0.779  0.00  0.00    +0.007 A 
ATOM     11  C   UNL     1       2.950  -3.273  -0.542  0.00  0.00    +0.020 A 
ATOM     12  C   UNL     1       3.216  -4.146  -1.582  0.00  0.00    +0.041 A 
ATOM     13  C   UNL     1       3.429  -3.657  -2.858  0.00  0.00    +0.020 A 
ATOM     14  C   UNL     1       3.372  -2.296  -3.095  0.00  0.00    +0.007 A 
ATOM     15 CL   UNL     1       3.282  -5.856  -1.286  0.00  0.00    -0.084 Cl
ENDBRANCH   1   9
BRANCH   1  17
ATOM     16  C   UNL     1       3.378   2.339  -1.339  0.00  0.00    +0.007 C 
ATOM     17  C   UNL     1       3.495   0.837  -1.069  0.00  0.00    +0.037 C 
ENDBRANCH   1  17
BRANCH   4  18
ATOM     18  C   UNL     1       0.688   1.518  -4.774  0.00  0.00    +0.214 C 
BRANCH  18  19
ATOM     19  C   UNL     1       0.524   2.990  -4.493  0.00  0.00    +0.235 C 
ATOM     20  O   UNL     1       1.261   3.542  -3.703  0.00  0.00    -0.274 OA
ATOM     21  N   UNL     1      -0.441   3.692  -5.118  0.00  0.00    -0.284 N 
ATOM     22  H   UNL     1      -0.983   3.269  -5.802  0.00  0.00    +0.155 HD
BRANCH  21  23
ATOM     23  C   UNL     1      -0.662   5.032  -4.779  0.00  0.00    +0.039 A 
ATOM     24  C   UNL     1      -0.650   6.010  -5.765  0.00  0.00    -0.029 A 
ATOM     25  C   UNL     1      -0.869   7.331  -5.428  0.00  0.00    +0.008 A 
ATOM     26  C   UNL     1      -1.100   7.680  -4.110  0.00  0.00    -0.050 A 
ATOM     27  C   UNL     1      -1.112   6.709  -3.126  0.00  0.00    +0.008 A 
ATOM     28  C   UNL     1      -0.900   5.385  -3.458  0.00  0.00    -0.029 A 
ATOM     29  C   UNL     1      -0.921   4.326  -2.385  0.00  0.00    +0.045 C 
ATOM     30  C   UNL     1      -1.338   9.123  -3.745  0.00  0.00    +0.044 C 
ATOM     31  C   UNL     1      -0.398   5.630  -7.201  0.00  0.00    +0.045 C 
ENDBRANCH  21  23
ENDBRANCH  18  19
ENDBRANCH   4  18
TORSDOF 5
