REMARK  Name = ZINC66572323
REMARK  10 active torsions:
REMARK  status: ('A' for Active; 'I' for Inactive)
REMARK    1  A    between atoms: C_1  and  C_2
REMARK    2  A    between atoms: C_2  and  C_3
REMARK    3  A    between atoms: C_2  and  C_4
REMARK    4  A    between atoms: C_4  and  C_5
REMARK    5  A    between atoms: C_5  and  C_6
REMARK    6  A    between atoms: N_8  and  N_9
REMARK    7  A    between atoms: C_10  and  C_12
REMARK    8  A    between atoms: C_12  and  C_13
REMARK    9  A    between atoms: C_12  and  C_14
REMARK   10  A    between atoms: C_12  and  C_15
REMARK                            x       y       z     vdW  Elec       q    Type
REMARK                         _______ _______ _______ _____ _____    ______ ____
ROOT
ATOM      1  N   UNL     1       4.953  -0.999  -3.634  0.00  0.00    -0.234 N 
ATOM      2  C   UNL     1       6.254  -0.717  -3.842  0.00  0.00    +0.239 C 
ATOM      3  O   UNL     1       6.925  -0.254  -2.944  0.00  0.00    -0.273 OA
ATOM      4  H   UNL     1       4.416  -1.369  -4.352  0.00  0.00    +0.173 HD
ENDROOT
BRANCH   1   7
ATOM      5  C   UNL     1       3.073  -1.037  -2.173  0.00  0.00    +0.229 C 
ATOM      6  O   UNL     1       2.402  -1.500  -3.071  0.00  0.00    -0.274 OA
ATOM      7  N   UNL     1       4.375  -0.756  -2.381  0.00  0.00    -0.234 N 
ATOM      8  H   UNL     1       4.912  -0.385  -1.663  0.00  0.00    +0.173 HD
BRANCH   5   9
ATOM      9  C   UNL     1       2.451  -0.776  -0.825  0.00  0.00    +0.097 C 
BRANCH   9  10
ATOM     10  C   UNL     1       0.976  -1.179  -0.858  0.00  0.00    +0.012 C 
BRANCH  10  12
ATOM     11  C   UNL     1       0.347   0.590   0.791  0.00  0.00    +0.007 C 
ATOM     12  C   UNL     1       0.345  -0.914   0.511  0.00  0.00    -0.017 C 
ATOM     13  C   UNL     1      -1.095  -1.432   0.517  0.00  0.00    +0.007 C 
ENDBRANCH  10  12
ENDBRANCH   9  10
ENDBRANCH   5   9
ENDBRANCH   1   7
BRANCH   2  14
ATOM     14  C   UNL     1       6.876  -0.978  -5.189  0.00  0.00    +0.068 C 
ATOM     15  C   UNL     1       6.886  -2.484  -5.463  0.00  0.00    +0.025 C 
ATOM     16  C   UNL     1       6.062  -0.268  -6.273  0.00  0.00    +0.025 C 
BRANCH  14  17
ATOM     17  C   UNL     1       8.290  -0.457  -5.200  0.00  0.00    -0.032 A 
ATOM     18  C   UNL     1       9.350  -1.336  -5.325  0.00  0.00    +0.005 A 
ATOM     19  C   UNL     1      10.647  -0.858  -5.335  0.00  0.00    +0.001 A 
ATOM     20  C   UNL     1      10.884   0.499  -5.220  0.00  0.00    +0.015 A 
ATOM     21  C   UNL     1       9.824   1.379  -5.095  0.00  0.00    +0.018 A 
ATOM     22  C   UNL     1       8.526   0.900  -5.091  0.00  0.00    +0.020 A 
ATOM     23 BR   UNL     1      10.149   3.235  -4.937  0.00  0.00    -0.050 Br
ENDBRANCH  14  17
ENDBRANCH   2  14
TORSDOF 6
