REMARK  Name = ZINC62959429
REMARK  1 active torsions:
REMARK  status: ('A' for Active; 'I' for Inactive)
REMARK    1  A    between atoms: C_6  and  C_7
REMARK                            x       y       z     vdW  Elec       q    Type
REMARK                         _______ _______ _______ _____ _____    ______ ____
ROOT
ATOM      1  C   UNL     1       1.065   1.440  -1.185  0.00  0.00    +0.027 A 
ATOM      2  C   UNL     1       1.155   2.072   0.044  0.00  0.00    -0.025 A 
ATOM      3  C   UNL     1       1.286   1.315   1.195  0.00  0.00    +0.047 A 
ATOM      4  N   UNL     1       1.327  -0.007   1.132  0.00  0.00    -0.235 NA
ATOM      5  C   UNL     1       1.246  -0.660  -0.014  0.00  0.00    +0.139 A 
ATOM      6  C   UNL     1       1.110   0.043  -1.224  0.00  0.00    +0.092 A 
ATOM      7  N   UNL     1       1.294  -2.043  -0.022  0.00  0.00    -0.314 N 
ATOM      8  C   UNL     1       0.062  -2.835   0.089  0.00  0.00    +0.107 C 
ATOM      9  C   UNL     1       0.213  -3.819   1.254  0.00  0.00    +0.026 C 
ATOM     10  C   UNL     1       1.487  -4.634   1.068  0.00  0.00    -0.026 C 
ATOM     11  C   UNL     1       1.629  -5.663   2.210  0.00  0.00    +0.007 C 
ATOM     12  C   UNL     1       2.533  -6.752   1.578  0.00  0.00    +0.001 C 
ATOM     13  C   UNL     1       2.060  -6.833   0.111  0.00  0.00    +0.001 C 
ATOM     14  C   UNL     1       1.400  -5.480  -0.213  0.00  0.00    +0.007 C 
ATOM     15  C   UNL     1       2.713  -3.730   1.024  0.00  0.00    +0.026 C 
ATOM     16  C   UNL     1       2.579  -2.745  -0.149  0.00  0.00    +0.107 C 
ATOM     17  C   UNL     1       1.363   2.233   2.399  0.00  0.00    +0.056 C 
ATOM     18  C   UNL     1       1.705   3.624   1.826  0.00  0.00    +0.011 C 
ATOM     19  C   UNL     1       1.135   3.543   0.394  0.00  0.00    +0.037 C 
ENDROOT
BRANCH   6  20
ATOM     20  C   UNL     1       1.020  -0.658  -2.470  0.00  0.00    +0.103 C 
ATOM     21  N   UNL     1       0.949  -1.214  -3.458  0.00  0.00    -0.191 NA
ENDBRANCH   6  20
TORSDOF 1
