REMARK  Name = ZINC05489597
REMARK  8 active torsions:
REMARK  status: ('A' for Active; 'I' for Inactive)
REMARK    1  A    between atoms: C_1  and  O_2
REMARK    2  A    between atoms: O_2  and  C_3
REMARK    3  A    between atoms: C_3  and  C_5
REMARK    4  A    between atoms: C_9  and  N_11
REMARK    5  A    between atoms: N_11  and  C_12
REMARK    6  A    between atoms: N_19  and  C_22
REMARK    7  A    between atoms: C_22  and  C_23
REMARK    8  A    between atoms: C_23  and  C_24
REMARK                            x       y       z     vdW  Elec       q    Type
REMARK                         _______ _______ _______ _____ _____    ______ ____
ROOT
ATOM      1  C   UNL     1       2.417  -0.249  -0.021  0.00  0.00    +0.090 C 
ATOM      2  C   UNL     1       3.617  -0.926  -0.140  0.00  0.00    +0.113 C 
ATOM      3  C   UNL     1       4.906  -0.211  -0.152  0.00  0.00    +0.256 C 
ATOM      4  O   UNL     1       4.949   1.001  -0.057  0.00  0.00    -0.270 OA
ATOM      5  N   UNL     1       6.037  -0.937  -0.271  0.00  0.00    -0.263 N 
ATOM      6  C   UNL     1       6.004  -2.273  -0.377  0.00  0.00    +0.146 C 
ATOM      7  S   UNL     1       7.489  -3.111  -0.524  0.00  0.00    -0.018 S 
ATOM      8  N   UNL     1       4.870  -2.987  -0.373  0.00  0.00    -0.249 N 
ATOM      9  C   UNL     1       3.663  -2.395  -0.255  0.00  0.00    +0.258 C 
ATOM     10  O   UNL     1       2.641  -3.055  -0.248  0.00  0.00    -0.269 OA
ATOM     11  H   UNL     1       6.893  -0.482  -0.281  0.00  0.00    +0.157 HD
ENDROOT
BRANCH   1  12
ATOM     12  N   UNL     1       2.399   1.100  -0.039  0.00  0.00    -0.320 N 
ATOM     13  H   UNL     1       3.232   1.596  -0.058  0.00  0.00    +0.152 HD
BRANCH  12  18
ATOM     14  C   UNL     1      -0.059   3.845  -0.040  0.00  0.00    +0.061 A 
ATOM     15  C   UNL     1      -1.254   3.122  -0.013  0.00  0.00    +0.015 A 
ATOM     16  C   UNL     1      -1.224   1.742  -0.001  0.00  0.00    +0.003 A 
ATOM     17  C   UNL     1      -0.015   1.072  -0.004  0.00  0.00    +0.023 A 
ATOM     18  C   UNL     1       1.179   1.782  -0.031  0.00  0.00    +0.032 A 
ATOM     19  C   UNL     1       1.161   3.169  -0.049  0.00  0.00    +0.038 A 
BRANCH  14  20
ATOM     20  C   UNL     1      -0.088   5.322  -0.059  0.00  0.00    +0.339 C 
ATOM     21  O   UNL     1       0.952   5.950  -0.083  0.00  0.00    -0.245 OA
BRANCH  20  23
ATOM     22  C   UNL     1      -1.220   7.424  -0.070  0.00  0.00    +0.280 C 
ATOM     23  O   UNL     1      -1.268   5.973  -0.050  0.00  0.00    -0.464 OA
ENDBRANCH  20  23
ENDBRANCH  14  20
ENDBRANCH  12  18
ENDBRANCH   1  12
BRANCH   8  24
ATOM     24  C   UNL     1       4.942  -4.446  -0.494  0.00  0.00    +0.120 C 
BRANCH  24  25
ATOM     25  C   UNL     1       5.044  -5.069   0.899  0.00  0.00    +0.050 C 
BRANCH  25  26
ATOM     26  C   UNL     1       5.119  -6.569   0.775  0.00  0.00    -0.072 C 
ATOM     27  C   UNL     1       6.290  -7.120   0.768  0.00  0.00    -0.028 C 
ATOM     28  C   UNL     1       6.524  -8.596   0.641  0.00  0.00    +0.027 C 
ATOM     29  C   UNL     1       5.235  -9.362   0.948  0.00  0.00    +0.004 C 
ATOM     30  C   UNL     1       4.095  -8.740   0.132  0.00  0.00    +0.005 C 
ATOM     31  C   UNL     1       3.830  -7.331   0.672  0.00  0.00    +0.030 C 
ENDBRANCH  25  26
ENDBRANCH  24  25
ENDBRANCH   8  24
TORSDOF 7
