REMARK  Name = ZINC43404732
REMARK  2 active torsions:
REMARK  status: ('A' for Active; 'I' for Inactive)
REMARK    1  A    between atoms: C_8  and  C_10
REMARK    2  A    between atoms: C_13  and  C_17
REMARK                            x       y       z     vdW  Elec       q    Type
REMARK                         _______ _______ _______ _____ _____    ______ ____
ROOT
ATOM      1  C   UNL     1      -0.016   1.355   0.009  0.00  0.00    +0.002 A 
ATOM      2  C   UNL     1       1.155   2.101   0.002  0.00  0.00    +0.001 A 
ATOM      3  C   UNL     1       2.373   1.449  -0.013  0.00  0.00    +0.017 A 
ATOM      4  C   UNL     1       2.404   0.076  -0.021  0.00  0.00    +0.040 A 
ATOM      5  C   UNL     1       1.228  -0.713  -0.013  0.00  0.00    +0.079 A 
ATOM      6  C   UNL     1       0.002  -0.004   0.002  0.00  0.00    +0.029 A 
ATOM      7  N   UNL     1       1.417  -2.040  -0.023  0.00  0.00    -0.237 NA
ATOM      8  C   UNL     1       2.612  -2.588  -0.038  0.00  0.00    +0.128 A 
ATOM      9  S   UNL     1       3.684  -1.157  -0.040  0.00  0.00    -0.066 S 
ENDROOT
BRANCH   8  10
ATOM     10  C   UNL     1       2.977  -4.021  -0.049  0.00  0.00    +0.098 A 
ATOM     11  C   UNL     1       4.324  -4.388  -0.059  0.00  0.00    +0.032 A 
ATOM     12  C   UNL     1       4.657  -5.729  -0.070  0.00  0.00    +0.024 A 
ATOM     13  C   UNL     1       3.621  -6.673  -0.070  0.00  0.00    +0.089 A 
ATOM     14  C   UNL     1       2.295  -6.227  -0.059  0.00  0.00    +0.147 A 
ATOM     15  N   UNL     1       2.019  -4.941  -0.044  0.00  0.00    -0.232 NA
ATOM     16 CL   UNL     1       1.000  -7.384  -0.060  0.00  0.00    -0.061 Cl
BRANCH  13  17
ATOM     17  C   UNL     1       3.916  -8.074  -0.081  0.00  0.00    +0.102 C 
ATOM     18  N   UNL     1       4.151  -9.186  -0.089  0.00  0.00    -0.191 NA
ENDBRANCH  13  17
ENDBRANCH   8  10
TORSDOF 2
