REMARK  Name = ZINC54622176
REMARK  13 active torsions:
REMARK  status: ('A' for Active; 'I' for Inactive)
REMARK    1  A    between atoms: C_1  and  C_2
REMARK    2  A    between atoms: C_2  and  C_3
REMARK    3  A    between atoms: C_8  and  N_9
REMARK    4  A    between atoms: N_9  and  C_10
REMARK    5  A    between atoms: C_13  and  C_34
REMARK    6  A    between atoms: C_15  and  C_23
REMARK    7  A    between atoms: C_17  and  C_21
REMARK    8  A    between atoms: C_17  and  O_22
REMARK    9  A    between atoms: N_25  and  C_26
REMARK   10  A    between atoms: C_31  and  C_32
REMARK   11  A    between atoms: C_32  and  C_33
REMARK   12  A    between atoms: C_38  and  O_40
REMARK   13  A    between atoms: O_40  and  C_41
REMARK                            x       y       z     vdW  Elec       q    Type
REMARK                         _______ _______ _______ _____ _____    ______ ____
ROOT
ATOM      1  C   UNL     1      -0.168  -0.423  -4.187  0.00  0.00    +0.248 C 
ATOM      2  O   UNL     1      -1.233  -1.003  -3.597  0.00  0.00    -0.270 OA
ATOM      3  C   UNL     1      -0.273   0.062  -5.474  0.00  0.00    +0.065 C 
ATOM      4  C   UNL     1      -1.606  -0.010  -6.162  0.00  0.00    +0.072 C 
ATOM      5  C   UNL     1      -1.428   0.162  -7.671  0.00  0.00    +0.119 C 
ATOM      6  C   UNL     1      -0.581   1.414  -7.928  0.00  0.00    +0.082 C 
ATOM      7  C   UNL     1       0.853   1.139  -7.471  0.00  0.00    +0.114 C 
ATOM      8  C   UNL     1       0.852   0.598  -6.070  0.00  0.00    +0.168 C 
ATOM      9  O   UNL     1       1.888   0.629  -5.434  0.00  0.00    -0.292 OA
ATOM     10  C   UNL     1      -0.591   1.742  -9.422  0.00  0.00    +0.042 C 
ENDROOT
BRANCH   4  11
ATOM     11  C   UNL     1      -2.240  -1.349  -5.885  0.00  0.00    -0.035 A 
ATOM     12  C   UNL     1      -1.475  -2.500  -5.941  0.00  0.00    +0.004 A 
ATOM     13  C   UNL     1      -2.054  -3.730  -5.687  0.00  0.00    +0.004 A 
ATOM     14  C   UNL     1      -3.398  -3.812  -5.378  0.00  0.00    +0.045 A 
ATOM     15  C   UNL     1      -4.167  -2.659  -5.321  0.00  0.00    +0.120 A 
ATOM     16  C   UNL     1      -3.583  -1.425  -5.570  0.00  0.00    +0.050 A 
BRANCH  15  17
ATOM     17  O   UNL     1      -5.489  -2.737  -5.017  0.00  0.00    -0.495 OA
ATOM     18  C   UNL     1      -6.021  -4.039  -4.767  0.00  0.00    +0.277 C 
ENDBRANCH  15  17
ENDBRANCH   4  11
BRANCH   5  19
ATOM     19  C   UNL     1      -0.731  -1.048  -8.239  0.00  0.00    +0.224 C 
ATOM     20  O   UNL     1       0.315  -1.427  -7.756  0.00  0.00    -0.275 OA
ATOM     21  N   UNL     1      -1.271  -1.709  -9.282  0.00  0.00    -0.285 N 
ATOM     22  H   UNL     1      -2.063  -1.360  -9.720  0.00  0.00    +0.155 HD
BRANCH  21  23
ATOM     23  C   UNL     1      -0.689  -2.898  -9.733  0.00  0.00    +0.037 A 
ATOM     24  C   UNL     1       0.175  -3.607  -8.908  0.00  0.00    +0.023 A 
ATOM     25  C   UNL     1       0.748  -4.781  -9.357  0.00  0.00    +0.002 A 
ATOM     26  C   UNL     1       0.463  -5.250 -10.626  0.00  0.00    +0.000 A 
ATOM     27  C   UNL     1      -0.396  -4.547 -11.450  0.00  0.00    +0.005 A 
ATOM     28  C   UNL     1      -0.977  -3.375 -11.005  0.00  0.00    -0.026 A 
BRANCH  28  29
ATOM     29  C   UNL     1      -1.919  -2.613 -11.901  0.00  0.00    +0.033 C 
ATOM     30  C   UNL     1      -1.144  -1.523 -12.645  0.00  0.00    +0.009 C 
ENDBRANCH  28  29
ENDBRANCH  21  23
ENDBRANCH   5  19
BRANCH   1  31
ATOM     31  N   UNL     1       1.015  -0.316  -3.510  0.00  0.00    -0.281 N 
ATOM     32  H   UNL     1       1.409   0.557  -3.357  0.00  0.00    +0.155 HD
BRANCH  31  38
ATOM     33  C   UNL     1       2.876  -1.361  -2.382  0.00  0.00    -0.026 A 
ATOM     34  C   UNL     1       3.505  -2.498  -1.913  0.00  0.00    +0.005 A 
ATOM     35  C   UNL     1       2.925  -3.739  -2.102  0.00  0.00    +0.000 A 
ATOM     36  C   UNL     1       1.714  -3.847  -2.762  0.00  0.00    +0.002 A 
ATOM     37  C   UNL     1       1.080  -2.714  -3.233  0.00  0.00    +0.023 A 
ATOM     38  C   UNL     1       1.657  -1.465  -3.039  0.00  0.00    +0.037 A 
BRANCH  33  40
ATOM     39  C   UNL     1       2.937   0.632  -0.908  0.00  0.00    +0.009 C 
ATOM     40  C   UNL     1       3.508  -0.009  -2.174  0.00  0.00    +0.033 C 
ENDBRANCH  33  40
ENDBRANCH  31  38
ENDBRANCH   1  31
BRANCH   6  41
ATOM     41  O   UNL     1      -1.117   2.514  -7.189  0.00  0.00    -0.388 OA
ATOM     42  H   UNL     1      -0.628   3.340  -7.305  0.00  0.00    +0.210 HD
ENDBRANCH   6  41
TORSDOF 9
