REMARK  Name = ZINC04660177
REMARK  9 active torsions:
REMARK  status: ('A' for Active; 'I' for Inactive)
REMARK    1  A    between atoms: C_1  and  C_2
REMARK    2  A    between atoms: C_2  and  C_3
REMARK    3  A    between atoms: C_3  and  O_4
REMARK    4  A    between atoms: O_4  and  C_5
REMARK    5  A    between atoms: C_10  and  C_11
REMARK    6  A    between atoms: C_11  and  C_12
REMARK    7  A    between atoms: C_11  and  C_23
REMARK    8  A    between atoms: C_13  and  C_22
REMARK    9  A    between atoms: C_24  and  C_33
REMARK                            x       y       z     vdW  Elec       q    Type
REMARK                         _______ _______ _______ _____ _____    ______ ____
ROOT
ATOM      1  C   UNL     1      -0.070  -0.093   2.464  0.00  0.00    +0.087 C 
ENDROOT
BRANCH   1   2
ATOM      2  C   UNL     1       0.045  -1.568   2.177  0.00  0.00    -0.007 A 
ATOM      3  C   UNL     1      -0.653  -2.552   2.765  0.00  0.00    +0.018 A 
ATOM      4  N   UNL     1      -0.275  -3.763   2.252  0.00  0.00    -0.358 N 
ATOM      5  H   UNL     1      -0.638  -4.621   2.523  0.00  0.00    +0.166 HD
ATOM      6  C   UNL     1       0.694  -3.582   1.291  0.00  0.00    +0.047 A 
ATOM      7  C   UNL     1       0.939  -2.200   1.204  0.00  0.00    +0.004 A 
ATOM      8  C   UNL     1       1.891  -1.716   0.304  0.00  0.00    +0.010 A 
ATOM      9  C   UNL     1       2.579  -2.590  -0.489  0.00  0.00    +0.001 A 
ATOM     10  C   UNL     1       2.341  -3.955  -0.407  0.00  0.00    +0.002 A 
ATOM     11  C   UNL     1       1.407  -4.453   0.474  0.00  0.00    +0.026 A 
ATOM     12  C   UNL     1      -1.695  -2.354   3.837  0.00  0.00    +0.063 C 
ENDBRANCH   1   2
BRANCH   1  13
ATOM     13  C   UNL     1      -1.512   0.330   2.353  0.00  0.00    -0.007 A 
ATOM     14  C   UNL     1      -2.201   1.061   3.244  0.00  0.00    +0.018 A 
ATOM     15  N   UNL     1      -3.483   1.246   2.804  0.00  0.00    -0.358 N 
ATOM     16  H   UNL     1      -4.169   1.742   3.278  0.00  0.00    +0.166 HD
ATOM     17  C   UNL     1      -3.655   0.622   1.588  0.00  0.00    +0.047 A 
ATOM     18  C   UNL     1      -2.426   0.026   1.250  0.00  0.00    +0.004 A 
ATOM     19  C   UNL     1      -2.305  -0.690   0.058  0.00  0.00    +0.010 A 
ATOM     20  C   UNL     1      -3.378  -0.798  -0.781  0.00  0.00    +0.001 A 
ATOM     21  C   UNL     1      -4.591  -0.207  -0.455  0.00  0.00    +0.002 A 
ATOM     22  C   UNL     1      -4.735   0.499   0.720  0.00  0.00    +0.026 A 
ATOM     23  C   UNL     1      -1.644   1.598   4.537  0.00  0.00    +0.063 C 
ENDBRANCH   1  13
BRANCH   1  29
ATOM     24  C   UNL     1       1.942   1.280   1.869  0.00  0.00    +0.125 A 
ATOM     25  C   UNL     1       2.704   1.986   0.948  0.00  0.00    +0.046 A 
ATOM     26  C   UNL     1       2.277   2.095  -0.361  0.00  0.00    +0.004 A 
ATOM     27  C   UNL     1       1.094   1.498  -0.756  0.00  0.00    +0.001 A 
ATOM     28  C   UNL     1       0.335   0.791   0.158  0.00  0.00    +0.008 A 
ATOM     29  C   UNL     1       0.758   0.678   1.469  0.00  0.00    +0.006 A 
BRANCH  24  30
ATOM     30  O   UNL     1       2.357   1.175   3.158  0.00  0.00    -0.492 OA
BRANCH  30  31
ATOM     31  C   UNL     1       3.586   1.821   3.499  0.00  0.00    +0.229 C 
BRANCH  31  33
ATOM     32  C   UNL     1       5.202   2.285   5.346  0.00  0.00    +0.007 C 
ATOM     33  C   UNL     1       3.887   1.594   4.982  0.00  0.00    +0.038 C 
ENDBRANCH  31  33
ENDBRANCH  30  31
ENDBRANCH  24  30
ENDBRANCH   1  29
TORSDOF 6
