REMARK  Name = ZINC63270662
REMARK  8 active torsions:
REMARK  status: ('A' for Active; 'I' for Inactive)
REMARK    1  A    between atoms: C_1  and  C_2
REMARK    2  A    between atoms: C_2  and  O_3
REMARK    3  A    between atoms: O_3  and  C_4
REMARK    4  A    between atoms: C_7  and  N_10
REMARK    5  A    between atoms: C_11  and  C_13
REMARK    6  A    between atoms: C_13  and  C_14
REMARK    7  A    between atoms: C_14  and  C_15
REMARK    8  A    between atoms: C_15  and  N_16
REMARK                            x       y       z     vdW  Elec       q    Type
REMARK                         _______ _______ _______ _____ _____    ______ ____
ROOT
ATOM      1  N   UNL     1       2.955 -10.033  -6.065  0.00  0.00    -0.299 N 
ATOM      2  C   UNL     1       3.075 -11.307  -6.486  0.00  0.00    +0.302 C 
ATOM      3  O   UNL     1       2.582 -12.211  -5.839  0.00  0.00    -0.253 OA
ATOM      4  N   UNL     1       3.742 -11.581  -7.625  0.00  0.00    -0.283 N 
ATOM      5  C   UNL     1       4.239 -10.480  -8.457  0.00  0.00    +0.114 C 
ATOM      6  C   UNL     1       3.648 -10.600  -9.874  0.00  0.00    +0.052 C 
ATOM      7  C   UNL     1       3.786 -12.047 -10.278  0.00  0.00    -0.036 C 
ATOM      8  C   UNL     1       4.309 -12.611 -11.360  0.00  0.00    -0.001 A 
ATOM      9  C   UNL     1       4.843 -12.033 -12.604  0.00  0.00    +0.010 A 
ATOM     10  C   UNL     1       5.327 -12.917 -13.516  0.00  0.00    +0.001 A 
ATOM     11  C   UNL     1       5.334 -14.302 -13.317  0.00  0.00    +0.002 A 
ATOM     12  C   UNL     1       4.856 -14.919 -12.207  0.00  0.00    +0.026 A 
ATOM     13  C   UNL     1       4.312 -14.094 -11.180  0.00  0.00    +0.043 A 
ATOM     14  N   UNL     1       3.773 -14.415 -10.041  0.00  0.00    -0.376 N 
ATOM     15  C   UNL     1       3.308 -13.190  -9.389  0.00  0.00    +0.124 C 
ATOM     16  C   UNL     1       3.969 -12.980  -8.018  0.00  0.00    +0.138 C 
ATOM     17  H   UNL     1       3.285  -9.306  -6.617  0.00  0.00    +0.150 HD
ATOM     18  H   UNL     1       3.693 -15.313  -9.684  0.00  0.00    +0.160 HD
ENDROOT
BRANCH   1  19
ATOM     19  C   UNL     1       2.327  -9.744  -4.774  0.00  0.00    +0.106 C 
BRANCH  19  20
ATOM     20  C   UNL     1       2.317  -8.233  -4.537  0.00  0.00    +0.028 C 
BRANCH  20  21
ATOM     21  C   UNL     1       1.661  -7.931  -3.188  0.00  0.00    +0.097 C 
BRANCH  21  23
ATOM     22  N   UNL     1       1.118  -5.941  -1.824  0.00  0.00    -0.285 N 
ATOM     23  C   UNL     1       1.651  -6.443  -2.956  0.00  0.00    +0.217 C 
ATOM     24  O   UNL     1       2.123  -5.696  -3.787  0.00  0.00    -0.275 OA
ATOM     25  H   UNL     1       0.808  -6.540  -1.127  0.00  0.00    +0.155 HD
BRANCH  22  29
ATOM     26  C   UNL     1       0.802  -1.814  -1.320  0.00  0.00    +0.121 A 
ATOM     27  C   UNL     1       0.670  -2.370  -2.584  0.00  0.00    +0.047 A 
ATOM     28  C   UNL     1       0.774  -3.736  -2.751  0.00  0.00    +0.027 A 
ATOM     29  C   UNL     1       1.012  -4.554  -1.655  0.00  0.00    +0.034 A 
ATOM     30  C   UNL     1       1.144  -3.997  -0.390  0.00  0.00    +0.027 A 
ATOM     31  C   UNL     1       1.045  -2.630  -0.224  0.00  0.00    +0.047 A 
BRANCH  26  32
ATOM     32  O   UNL     1       0.698  -0.468  -1.155  0.00  0.00    -0.492 OA
BRANCH  32  34
ATOM     33  C   UNL     1       0.363   1.791  -1.946  0.00  0.00    +0.048 C 
ATOM     34  C   UNL     1       0.447   0.311  -2.326  0.00  0.00    +0.225 C 
ENDBRANCH  32  34
ENDBRANCH  26  32
ENDBRANCH  22  29
ENDBRANCH  21  23
ENDBRANCH  20  21
ENDBRANCH  19  20
ENDBRANCH   1  19
TORSDOF 7
