REMARK  Name = ZINC42554530
REMARK  7 active torsions:
REMARK  status: ('A' for Active; 'I' for Inactive)
REMARK    1  A    between atoms: C_1  and  C_2
REMARK    2  A    between atoms: C_2  and  C_3
REMARK    3  A    between atoms: C_3  and  C_5
REMARK    4  A    between atoms: C_3  and  C_6
REMARK    5  A    between atoms: C_6  and  C_8
REMARK    6  A    between atoms: C_6  and  N_9
REMARK    7  A    between atoms: N_9  and  C_10
REMARK                            x       y       z     vdW  Elec       q    Type
REMARK                         _______ _______ _______ _____ _____    ______ ____
ROOT
ATOM      1  C   UNL     1       1.132  -3.948  -2.670  0.00  0.00    +0.049 C 
ATOM      2  C   UNL     1       1.893  -4.473  -3.865  0.00  0.00    -0.030 A 
ATOM      3  C   UNL     1       3.231  -4.488  -4.190  0.00  0.00    +0.004 A 
ATOM      4  C   UNL     1       3.646  -5.050  -5.384  0.00  0.00    +0.001 A 
ATOM      5  C   UNL     1       2.713  -5.596  -6.248  0.00  0.00    +0.017 A 
ATOM      6  C   UNL     1       1.372  -5.582  -5.925  0.00  0.00    +0.039 A 
ATOM      7  C   UNL     1       0.947  -5.018  -4.723  0.00  0.00    +0.049 A 
ATOM      8  N   UNL     1      -0.332  -4.884  -4.179  0.00  0.00    -0.285 N 
ATOM      9  C   UNL     1      -0.315  -4.271  -2.980  0.00  0.00    +0.208 C 
ATOM     10  O   UNL     1      -1.274  -4.024  -2.280  0.00  0.00    -0.277 OA
ATOM     11 BR   UNL     1       0.107  -6.331  -7.115  0.00  0.00    -0.048 Br
ATOM     12  H   UNL     1      -1.140  -5.196  -4.615  0.00  0.00    +0.155 HD
ENDROOT
BRANCH   1  13
ATOM     13  N   UNL     1       1.318  -2.497  -2.537  0.00  0.00    +0.391 N 
ATOM     14  H   UNL     1       0.933  -2.033  -3.347  0.00  0.00    -0.084 HD
ATOM     15  H   UNL     1       2.303  -2.289  -2.467  0.00  0.00    -0.084 HD
BRANCH  13  16
ATOM     16  C   UNL     1       0.630  -2.023  -1.329  0.00  0.00    -0.071 C 
ATOM     17  C   UNL     1       1.295  -2.631  -0.092  0.00  0.00    -0.013 C 
BRANCH  16  18
ATOM     18  C   UNL     1       0.718  -0.497  -1.257  0.00  0.00    -0.029 C 
ATOM     19  C   UNL     1       2.187  -0.073  -1.207  0.00  0.00    +0.006 C 
BRANCH  18  21
ATOM     20  C   UNL     1      -0.019   1.526   0.010  0.00  0.00    +0.004 C 
ATOM     21  C   UNL     1       0.002  -0.004   0.002  0.00  0.00    -0.002 C 
ENDBRANCH  18  21
ENDBRANCH  16  18
ENDBRANCH  13  16
ENDBRANCH   1  13
TORSDOF 4
