REMARK  Name = ZINC21247784
REMARK  8 active torsions:
REMARK  status: ('A' for Active; 'I' for Inactive)
REMARK    1  A    between atoms: C_1  and  C_2
REMARK    2  A    between atoms: C_2  and  C_3
REMARK    3  A    between atoms: C_2  and  O_4
REMARK    4  A    between atoms: O_4  and  C_5
REMARK    5  A    between atoms: C_8  and  C_13
REMARK    6  A    between atoms: C_10  and  O_11
REMARK    7  A    between atoms: O_11  and  C_12
REMARK    8  A    between atoms: C_18  and  C_28
REMARK                            x       y       z     vdW  Elec       q    Type
REMARK                         _______ _______ _______ _____ _____    ______ ____
ROOT
ATOM      1  C   UNL     1      -2.691  -1.861  -4.058  0.00  0.00    +0.032 C 
ATOM      2  C   UNL     1      -2.553  -0.509  -3.359  0.00  0.00    +0.059 C 
ATOM      3  C   UNL     1      -1.931  -0.700  -1.985  0.00  0.00    +0.017 C 
ATOM      4  C   UNL     1      -1.026  -1.670  -1.778  0.00  0.00    +0.036 C 
ATOM      5  C   UNL     1      -0.303  -1.946  -0.480  0.00  0.00    +0.136 C 
ATOM      6  N   UNL     1      -0.839  -1.241   0.665  0.00  0.00    -0.331 N 
ATOM      7  C   UNL     1      -0.794   0.150   0.740  0.00  0.00    +0.049 A 
ATOM      8  C   UNL     1       0.007   0.798   1.668  0.00  0.00    +0.025 A 
ATOM      9  C   UNL     1       0.104   2.178   1.635  0.00  0.00    +0.002 A 
ATOM     10  C   UNL     1      -0.591   2.907   0.687  0.00  0.00    +0.002 A 
ATOM     11  C   UNL     1      -1.408   2.264  -0.227  0.00  0.00    +0.025 A 
ATOM     12  C   UNL     1      -1.520   0.885  -0.185  0.00  0.00    +0.052 A 
ATOM     13  N   UNL     1      -2.355   0.181  -1.044  0.00  0.00    -0.316 N 
ATOM     14  C   UNL     1      -0.674  -2.552  -2.826  0.00  0.00    +0.163 C 
ATOM     15  O   UNL     1       0.158  -3.413  -2.613  0.00  0.00    -0.292 OA
ATOM     16  C   UNL     1      -1.288  -2.463  -4.191  0.00  0.00    +0.088 C 
ATOM     17  H   UNL     1      -1.292  -1.803   1.495  0.00  0.00    +0.147 HD
ATOM     18  H   UNL     1      -3.430   0.380  -0.922  0.00  0.00    +0.152 HD
ENDROOT
BRANCH   5  19
ATOM     19  C   UNL     1       1.143  -1.558  -0.647  0.00  0.00    -0.022 A 
ATOM     20  C   UNL     1       1.474  -0.224  -0.880  0.00  0.00    +0.006 A 
ATOM     21  C   UNL     1       2.770   0.160  -1.035  0.00  0.00    +0.009 A 
ATOM     22  C   UNL     1       3.793  -0.800  -0.960  0.00  0.00    -0.018 A 
ATOM     23  C   UNL     1       5.144  -0.442  -1.115  0.00  0.00    +0.008 A 
ATOM     24  C   UNL     1       6.108  -1.399  -1.037  0.00  0.00    +0.001 A 
ATOM     25  C   UNL     1       5.777  -2.733  -0.804  0.00  0.00    +0.001 A 
ATOM     26  C   UNL     1       4.481  -3.117  -0.650  0.00  0.00    +0.008 A 
ATOM     27  C   UNL     1       3.457  -2.157  -0.724  0.00  0.00    -0.018 A 
ATOM     28  C   UNL     1       2.107  -2.515  -0.569  0.00  0.00    +0.014 A 
ENDBRANCH   5  19
BRANCH   1  32
ATOM     29  C   UNL     1      -4.403  -1.312  -7.939  0.00  0.00    +0.162 A 
ATOM     30  C   UNL     1      -3.203  -0.699  -7.615  0.00  0.00    +0.050 A 
ATOM     31  C   UNL     1      -2.655  -0.874  -6.357  0.00  0.00    +0.008 A 
ATOM     32  C   UNL     1      -3.296  -1.669  -5.425  0.00  0.00    -0.040 A 
ATOM     33  C   UNL     1      -4.493  -2.283  -5.742  0.00  0.00    +0.053 A 
ATOM     34  C   UNL     1      -5.050  -2.108  -6.999  0.00  0.00    +0.162 A 
BRANCH  34  35
ATOM     35  O   UNL     1      -6.228  -2.711  -7.312  0.00  0.00    -0.491 OA
ATOM     36  C   UNL     1      -6.836  -3.513  -6.298  0.00  0.00    +0.277 C 
ENDBRANCH  34  35
BRANCH  29  37
ATOM     37  O   UNL     1      -4.946  -1.136  -9.173  0.00  0.00    -0.486 OA
BRANCH  37  39
ATOM     38  C   UNL     1      -3.166  -0.924 -10.794  0.00  0.00    +0.051 C 
ATOM     39  C   UNL     1      -4.293  -0.210 -10.044  0.00  0.00    +0.167 C 
ATOM     40  C   UNL     1      -5.303   0.345 -11.049  0.00  0.00    +0.051 C 
ENDBRANCH  37  39
ENDBRANCH  29  37
ENDBRANCH   1  32
TORSDOF 5
