REMARK  Name = ZINC25579000
REMARK  9 active torsions:
REMARK  status: ('A' for Active; 'I' for Inactive)
REMARK    1  A    between atoms: C_1  and  C_2
REMARK    2  A    between atoms: C_5  and  C_8
REMARK    3  A    between atoms: C_10  and  C_13
REMARK    4  A    between atoms: C_13  and  N_14
REMARK    5  A    between atoms: C_17  and  C_21
REMARK    6  A    between atoms: C_17  and  C_22
REMARK    7  A    between atoms: C_25  and  C_28
REMARK    8  A    between atoms: C_28  and  C_29
REMARK    9  A    between atoms: C_28  and  C_30
REMARK                            x       y       z     vdW  Elec       q    Type
REMARK                         _______ _______ _______ _____ _____    ______ ____
ROOT
ATOM      1  N   UNL     1      -0.929   0.314   3.158  0.00  0.00    -0.216 N 
ATOM      2  C   UNL     1      -0.026   1.077   2.512  0.00  0.00    +0.251 C 
ATOM      3  O   UNL     1       1.113   1.313   2.856  0.00  0.00    -0.272 OA
ATOM      4  C   UNL     1      -0.729   1.579   1.267  0.00  0.00    +0.135 C 
ATOM      5  N   UNL     1      -2.073   0.985   1.365  0.00  0.00    -0.281 N 
ATOM      6  C   UNL     1      -2.094   0.265   2.501  0.00  0.00    +0.310 C 
ATOM      7  O   UNL     1      -3.062  -0.361   2.887  0.00  0.00    -0.252 OA
ATOM      8  C   UNL     1      -0.013   1.086   0.008  0.00  0.00    +0.047 C 
ATOM      9  H   UNL     1      -2.820   1.181   0.581  0.00  0.00    +0.152 HD
ENDROOT
BRANCH   4  10
ATOM     10  C   UNL     1      -0.809   3.084   1.274  0.00  0.00    -0.015 A 
ATOM     11  C   UNL     1       0.193   3.827   1.871  0.00  0.00    +0.006 A 
ATOM     12  C   UNL     1       0.122   5.207   1.873  0.00  0.00    +0.004 A 
ATOM     13  C   UNL     1      -0.956   5.845   1.288  0.00  0.00    -0.045 A 
ATOM     14  C   UNL     1      -1.960   5.102   0.695  0.00  0.00    +0.004 A 
ATOM     15  C   UNL     1      -1.887   3.722   0.689  0.00  0.00    +0.006 A 
BRANCH  13  16
ATOM     16  C   UNL     1      -1.036   7.350   1.295  0.00  0.00    +0.013 C 
ATOM     17  C   UNL     1      -1.050   7.853   2.740  0.00  0.00    +0.012 C 
ATOM     18  C   UNL     1       0.178   7.928   0.565  0.00  0.00    +0.012 C 
ENDBRANCH  13  16
ENDBRANCH   4  10
BRANCH   1  19
ATOM     19  C   UNL     1      -0.669  -0.378   4.423  0.00  0.00    +0.197 C 
BRANCH  19  22
ATOM     20  C   UNL     1      -0.943   1.967   7.127  0.00  0.00    +0.259 A 
ATOM     21  N   UNL     1      -0.211   1.392   6.189  0.00  0.00    -0.190 NA
ATOM     22  C   UNL     1      -1.031   0.526   5.573  0.00  0.00    +0.190 A 
ATOM     23  N   UNL     1      -2.193   0.604   6.152  0.00  0.00    -0.059 NA
ATOM     24  O   UNL     1      -2.167   1.423   7.046  0.00  0.00    -0.333 OA
BRANCH  20  29
ATOM     25  C   UNL     1       0.787   6.002  10.846  0.00  0.00    +0.044 C 
ATOM     26  C   UNL     1       0.334   4.945   9.872  0.00  0.00    -0.050 A 
ATOM     27  C   UNL     1      -0.969   4.483   9.915  0.00  0.00    +0.004 A 
ATOM     28  C   UNL     1      -1.391   3.516   9.026  0.00  0.00    +0.013 A 
ATOM     29  C   UNL     1      -0.498   3.003   8.082  0.00  0.00    +0.039 A 
ATOM     30  C   UNL     1       0.817   3.469   8.049  0.00  0.00    +0.013 A 
ATOM     31  C   UNL     1       1.224   4.441   8.940  0.00  0.00    +0.004 A 
ENDBRANCH  20  29
ENDBRANCH  19  22
ENDBRANCH   1  19
TORSDOF 5
