REMARK  Name = ZINC08722746
REMARK  6 active torsions:
REMARK  status: ('A' for Active; 'I' for Inactive)
REMARK    1  A    between atoms: C_1  and  C_2
REMARK    2  A    between atoms: C_2  and  C_3
REMARK    3  A    between atoms: C_8  and  N_9
REMARK    4  A    between atoms: C_13  and  C_14
REMARK    5  A    between atoms: N_16  and  C_23
REMARK    6  A    between atoms: C_23  and  C_24
REMARK                            x       y       z     vdW  Elec       q    Type
REMARK                         _______ _______ _______ _____ _____    ______ ____
ROOT
ATOM      1  N   UNL     1      -0.211   1.850   2.862  0.00  0.00    -0.217 N 
ATOM      2  C   UNL     1      -0.979   1.167   1.989  0.00  0.00    +0.262 C 
ATOM      3  O   UNL     1      -1.064  -0.046   2.048  0.00  0.00    -0.269 OA
ATOM      4  C   UNL     1      -1.706   1.927   0.957  0.00  0.00    +0.100 C 
ATOM      5  C   UNL     1      -2.510   1.291   0.021  0.00  0.00    +0.028 C 
ATOM      6  C   UNL     1      -1.546   3.392   0.965  0.00  0.00    +0.255 C 
ATOM      7  O   UNL     1      -2.117   4.087   0.147  0.00  0.00    -0.270 OA
ATOM      8  N   UNL     1      -0.744   3.940   1.901  0.00  0.00    -0.263 N 
ATOM      9  C   UNL     1      -0.108   3.186   2.808  0.00  0.00    +0.150 C 
ATOM     10  S   UNL     1       0.888   3.969   3.959  0.00  0.00    -0.018 S 
ATOM     11  H   UNL     1      -0.626   4.903   1.919  0.00  0.00    +0.157 HD
ENDROOT
BRANCH   5  12
ATOM     12  C   UNL     1      -2.497  -0.115  -0.080  0.00  0.00    +0.001 A 
ATOM     13  C   UNL     1      -1.385  -0.939  -0.095  0.00  0.00    +0.095 A 
ATOM     14  N   UNL     1      -1.776  -2.222  -0.203  0.00  0.00    -0.337 N 
ATOM     15  C   UNL     1      -3.153  -2.311  -0.265  0.00  0.00    +0.050 A 
ATOM     16  C   UNL     1      -3.669  -1.008  -0.185  0.00  0.00    +0.007 A 
ATOM     17  C   UNL     1      -5.043  -0.797  -0.231  0.00  0.00    +0.010 A 
ATOM     18  C   UNL     1      -5.896  -1.875  -0.342  0.00  0.00    +0.001 A 
ATOM     19  C   UNL     1      -5.389  -3.163  -0.415  0.00  0.00    +0.002 A 
ATOM     20  C   UNL     1      -4.029  -3.385  -0.377  0.00  0.00    +0.026 A 
BRANCH  14  21
ATOM     21  C   UNL     1      -0.865  -3.368  -0.249  0.00  0.00    +0.217 C 
BRANCH  21  22
ATOM     22  C   UNL     1      -0.593  -3.737  -1.685  0.00  0.00    +0.235 C 
ATOM     23  O   UNL     1      -1.109  -3.104  -2.581  0.00  0.00    -0.274 OA
ATOM     24  N   UNL     1       0.224  -4.769  -1.972  0.00  0.00    -0.296 N 
ATOM     25  C   UNL     1       0.867  -5.548  -0.901  0.00  0.00    +0.136 C 
ATOM     26  C   UNL     1       0.606  -7.038  -1.170  0.00  0.00    +0.179 C 
ATOM     27  O   UNL     1       1.005  -7.350  -2.508  0.00  0.00    -0.377 OA
ATOM     28  C   UNL     1       0.267  -6.655  -3.515  0.00  0.00    +0.179 C 
ATOM     29  C   UNL     1       0.505  -5.148  -3.366  0.00  0.00    +0.136 C 
ENDBRANCH  21  22
ENDBRANCH  14  21
ENDBRANCH   5  12
BRANCH   1  35
ATOM     30  C   UNL     1      -0.092   0.908   5.084  0.00  0.00    -0.026 A 
ATOM     31  C   UNL     1       0.603   0.211   6.053  0.00  0.00    +0.005 A 
ATOM     32  C   UNL     1       1.886  -0.236   5.798  0.00  0.00    +0.000 A 
ATOM     33  C   UNL     1       2.475   0.006   4.570  0.00  0.00    +0.002 A 
ATOM     34  C   UNL     1       1.782   0.698   3.595  0.00  0.00    +0.024 A 
ATOM     35  C   UNL     1       0.494   1.149   3.849  0.00  0.00    +0.046 A 
BRANCH  30  37
ATOM     36  C   UNL     1      -2.504   0.381   4.850  0.00  0.00    +0.009 C 
ATOM     37  C   UNL     1      -1.488   1.402   5.366  0.00  0.00    +0.033 C 
ENDBRANCH  30  37
ENDBRANCH   1  35
TORSDOF 5
