REMARK  Name = ZINC25000770
REMARK  5 active torsions:
REMARK  status: ('A' for Active; 'I' for Inactive)
REMARK    1  A    between atoms: C_6  and  N_7
REMARK    2  A    between atoms: C_10  and  C_15
REMARK    3  A    between atoms: C_15  and  S_16
REMARK    4  A    between atoms: S_16  and  C_17
REMARK    5  A    between atoms: C_20  and  C_23
REMARK                            x       y       z     vdW  Elec       q    Type
REMARK                         _______ _______ _______ _____ _____    ______ ____
ROOT
ATOM      1  N   UNL     1      -2.029  10.104   2.419  0.00  0.00    -0.284 N 
ATOM      2  C   UNL     1      -1.917   9.425   1.221  0.00  0.00    +0.224 A 
ATOM      3  N   UNL     1      -1.364   8.215   1.190  0.00  0.00    -0.198 NA
ATOM      4  C   UNL     1      -1.256   7.564   0.045  0.00  0.00    +0.146 A 
ATOM      5  N   UNL     1      -1.693   8.114  -1.075  0.00  0.00    -0.199 NA
ATOM      6  C   UNL     1      -2.252   9.322  -1.051  0.00  0.00    +0.217 A 
ATOM      7  N   UNL     1      -2.362   9.979   0.099  0.00  0.00    -0.181 NA
ATOM      8  N   UNL     1      -2.712   9.893  -2.220  0.00  0.00    -0.327 N 
ATOM      9  H   UNL     1      -1.745   9.610   3.360  0.00  0.00    +0.155 HD
ATOM     10  H   UNL     1      -3.174  10.891  -2.200  0.00  0.00    +0.145 HD
ATOM     11  H   UNL     1      -2.617   9.350  -3.172  0.00  0.00    +0.145 HD
ENDROOT
BRANCH   1  17
ATOM     12  C   UNL     1      -2.224  12.274   1.377  0.00  0.00    +0.025 A 
ATOM     13  C   UNL     1      -2.699  13.570   1.393  0.00  0.00    +0.022 A 
ATOM     14  C   UNL     1      -3.444  14.022   2.468  0.00  0.00    +0.041 A 
ATOM     15  C   UNL     1      -3.720  13.175   3.527  0.00  0.00    +0.022 A 
ATOM     16  C   UNL     1      -3.252  11.876   3.513  0.00  0.00    +0.025 A 
ATOM     17  C   UNL     1      -2.504  11.420   2.435  0.00  0.00    +0.034 A 
ATOM     18 CL   UNL     1      -4.035  15.655   2.488  0.00  0.00    -0.084 Cl
ENDBRANCH   1  17
BRANCH   4  19
ATOM     19  C   UNL     1      -0.629   6.195   0.015  0.00  0.00    +0.153 C 
BRANCH  19  20
ATOM     20  S   UNL     1      -1.909   4.939   0.261  0.00  0.00    -0.079 S 
BRANCH  20  21
ATOM     21  C   UNL     1      -0.925   3.479   0.182  0.00  0.00    +0.185 A 
ATOM     22  N   UNL     1      -1.369   2.194   0.301  0.00  0.00    -0.205 NA
ATOM     23  H   UNL     1       1.106   4.231  -0.146  0.00  0.00    +0.191 HD
ATOM     24  C   UNL     1      -0.258   1.405   0.178  0.00  0.00    +0.155 A 
ATOM     25  N   UNL     1       0.762   2.197  -0.001  0.00  0.00    -0.157 NA
ATOM     26  N   UNL     1       0.374   3.422  -0.003  0.00  0.00    -0.254 N 
BRANCH  24  27
ATOM     27  C   UNL     1      -0.220  -0.100   0.238  0.00  0.00    +0.059 C 
ATOM     28  C   UNL     1      -1.525  -0.685  -0.339  0.00  0.00    +0.011 C 
ATOM     29  C   UNL     1      -1.819  -1.913   0.559  0.00  0.00    +0.001 C 
ATOM     30  C   UNL     1      -1.395  -1.420   1.964  0.00  0.00    +0.001 C 
ATOM     31  C   UNL     1      -0.136  -0.567   1.701  0.00  0.00    +0.011 C 
ENDBRANCH  24  27
ENDBRANCH  20  21
ENDBRANCH  19  20
ENDBRANCH   4  19
TORSDOF 5
