REMARK  Name = ZINC64410680
REMARK  5 active torsions:
REMARK  status: ('A' for Active; 'I' for Inactive)
REMARK    1  A    between atoms: C_8  and  S_11
REMARK    2  A    between atoms: S_11  and  C_12
REMARK    3  A    between atoms: C_12  and  C_13
REMARK    4  A    between atoms: N_18  and  C_21
REMARK    5  A    between atoms: C_21  and  C_22
REMARK                            x       y       z     vdW  Elec       q    Type
REMARK                         _______ _______ _______ _____ _____    ______ ____
ROOT
ATOM      1  C   UNL     1       3.120  -3.292   4.220  0.00  0.00    +0.226 C 
ATOM      2  O   UNL     1       3.451  -4.457   4.284  0.00  0.00    -0.275 OA
ATOM      3  N   UNL     1       2.984  -2.567   5.349  0.00  0.00    -0.298 N 
ATOM      4  C   UNL     1       2.578  -1.155   5.295  0.00  0.00    +0.123 C 
ATOM      5  C   UNL     1       1.401  -0.950   6.254  0.00  0.00    +0.103 C 
ATOM      6  N   UNL     1       1.770  -1.439   7.589  0.00  0.00    -0.296 NA
ATOM      7  C   UNL     1       2.036  -2.884   7.572  0.00  0.00    +0.103 C 
ATOM      8  C   UNL     1       3.233  -3.170   6.667  0.00  0.00    +0.123 C 
ENDROOT
BRANCH   1   9
ATOM      9  C   UNL     1       2.860  -2.655   2.880  0.00  0.00    +0.167 C 
BRANCH   9  10
ATOM     10  S   UNL     1       3.124  -3.878   1.567  0.00  0.00    -0.118 S 
BRANCH  10  18
ATOM     11  C   UNL     1      -0.088   0.964  -0.091  0.00  0.00    +0.002 A 
ATOM     12  C   UNL     1       1.058   1.737  -0.130  0.00  0.00    +0.001 A 
ATOM     13  C   UNL     1       2.292   1.107  -0.115  0.00  0.00    +0.016 A 
ATOM     14  C   UNL     1       2.360  -0.267  -0.062  0.00  0.00    +0.031 A 
ATOM     15  C   UNL     1       1.219  -1.075  -0.022  0.00  0.00    +0.042 A 
ATOM     16  C   UNL     1      -0.019  -0.408  -0.038  0.00  0.00    +0.024 A 
ATOM     17  N   UNL     1       1.396  -2.457   0.030  0.00  0.00    -0.323 N 
ATOM     18  C   UNL     1       2.775  -2.965   0.039  0.00  0.00    +0.193 C 
ATOM     19  S   UNL     1       3.732  -1.397  -0.028  0.00  0.00    -0.090 S 
ATOM     20  H   UNL     1       0.638  -3.060   0.059  0.00  0.00    +0.148 HD
ENDBRANCH  10  18
ENDBRANCH   9  10
ENDBRANCH   1   9
BRANCH   6  21
ATOM     21  C   UNL     1       0.735  -1.106   8.577  0.00  0.00    +0.131 C 
BRANCH  21  22
ATOM     22  C   UNL     1       0.872   0.363   8.982  0.00  0.00    +0.188 C 
ATOM     23  N   UNL     1       0.645   1.230   7.819  0.00  0.00    -0.362 N 
ATOM     24  C   UNL     1       1.735   1.915   7.625  0.00  0.00    +0.060 A 
ATOM     25  C   UNL     1       2.112   2.930   6.631  0.00  0.00    +0.027 A 
ATOM     26  C   UNL     1       3.342   3.480   6.677  0.00  0.00    +0.002 A 
ATOM     27  C   UNL     1       4.297   3.124   7.647  0.00  0.00    +0.002 A 
ATOM     28  C   UNL     1       4.053   2.204   8.602  0.00  0.00    +0.027 A 
ATOM     29  C   UNL     1       2.745   1.538   8.651  0.00  0.00    +0.060 A 
ATOM     30  N   UNL     1       2.240   0.634   9.440  0.00  0.00    -0.362 N 
ATOM     31  H   UNL     1      -0.168   1.283   7.293  0.00  0.00    +0.162 HD
ATOM     32  H   UNL     1       2.687   0.216  10.193  0.00  0.00    +0.162 HD
ENDBRANCH  21  22
ENDBRANCH   6  21
TORSDOF 5
