REMARK  Name = ZINC20988281
REMARK  8 active torsions:
REMARK  status: ('A' for Active; 'I' for Inactive)
REMARK    1  A    between atoms: C_1  and  S_2
REMARK    2  A    between atoms: S_2  and  C_3
REMARK    3  A    between atoms: C_6  and  C_9
REMARK    4  A    between atoms: C_9  and  C_10
REMARK    5  A    between atoms: C_10  and  N_11
REMARK    6  A    between atoms: C_12  and  C_14
REMARK    7  A    between atoms: C_14  and  C_15
REMARK    8  A    between atoms: C_18  and  N_21
REMARK                            x       y       z     vdW  Elec       q    Type
REMARK                         _______ _______ _______ _____ _____    ______ ____
ROOT
ATOM      1  C   UNL     1      -0.736   1.574   1.237  0.00  0.00    -0.039 A 
ATOM      2  C   UNL     1      -0.261   2.687   1.906  0.00  0.00    +0.006 A 
ATOM      3  C   UNL     1      -0.902   3.137   3.043  0.00  0.00    +0.023 A 
ATOM      4  C   UNL     1      -2.020   2.465   3.520  0.00  0.00    +0.035 A 
ATOM      5  C   UNL     1      -2.491   1.344   2.850  0.00  0.00    +0.023 A 
ATOM      6  C   UNL     1      -1.848   0.902   1.710  0.00  0.00    +0.006 A 
ENDROOT
BRANCH   4   7
ATOM      7  N   UNL     1      -2.669   2.916   4.675  0.00  0.00    -0.269 N 
ATOM      8  C   UNL     1      -3.250   2.032   5.511  0.00  0.00    +0.311 C 
ATOM      9  O   UNL     1      -3.127   0.839   5.314  0.00  0.00    -0.252 OA
ATOM     10  N   UNL     1      -3.967   2.471   6.564  0.00  0.00    -0.255 N 
ATOM     11  C   UNL     1      -4.610   1.526   7.491  0.00  0.00    +0.115 C 
ATOM     12  C   UNL     1      -3.736   1.301   8.701  0.00  0.00    +0.020 C 
ATOM     13  C   UNL     1      -3.530   2.550   9.546  0.00  0.00    +0.006 C 
ATOM     14  C   UNL     1      -2.655   3.569   8.822  0.00  0.00    +0.037 C 
ATOM     15  C   UNL     1      -3.528   4.421   7.917  0.00  0.00    -0.026 A 
ATOM     16  C   UNL     1      -4.117   3.839   6.813  0.00  0.00    +0.041 A 
ATOM     17  C   UNL     1      -4.883   4.621   5.949  0.00  0.00    +0.024 A 
ATOM     18  C   UNL     1      -5.061   5.964   6.220  0.00  0.00    +0.002 A 
ATOM     19  C   UNL     1      -4.487   6.531   7.342  0.00  0.00    +0.000 A 
ATOM     20  C   UNL     1      -3.716   5.757   8.193  0.00  0.00    +0.005 A 
ATOM     21  H   UNL     1      -2.706   3.992   4.900  0.00  0.00    +0.156 HD
ENDBRANCH   4   7
BRANCH   1  22
ATOM     22  C   UNL     1      -0.037   1.088  -0.007  0.00  0.00    +0.130 C 
BRANCH  22  24
ATOM     23  N   UNL     1      -0.174   1.471  -2.447  0.00  0.00    -0.315 N 
ATOM     24  C   UNL     1      -0.643   1.755  -1.216  0.00  0.00    +0.217 C 
ATOM     25  O   UNL     1      -1.552   2.546  -1.080  0.00  0.00    -0.275 OA
ATOM     26  H   UNL     1       0.651   0.754  -2.570  0.00  0.00    +0.149 HD
BRANCH  23  27
ATOM     27  C   UNL     1      -0.762   2.119  -3.622  0.00  0.00    +0.109 C 
BRANCH  27  28
ATOM     28  C   UNL     1      -0.053   1.626  -4.885  0.00  0.00    +0.054 C 
BRANCH  28  32
ATOM     29  C   UNL     1      -1.769   3.516  -8.313  0.00  0.00    +0.008 A 
ATOM     30  C   UNL     1      -0.695   4.105  -7.657  0.00  0.00    +0.015 A 
ATOM     31  C   UNL     1      -0.143   3.492  -6.550  0.00  0.00    +0.005 A 
ATOM     32  C   UNL     1      -0.658   2.293  -6.093  0.00  0.00    -0.046 A 
ATOM     33  C   UNL     1      -1.724   1.700  -6.746  0.00  0.00    +0.005 A 
ATOM     34  C   UNL     1      -2.284   2.310  -7.851  0.00  0.00    +0.015 A 
BRANCH  29  36
ATOM     35  C   UNL     1      -3.816   3.175 -10.219  0.00  0.00    +0.090 C 
ATOM     36  S   UNL     1      -2.477   4.295  -9.726  0.00  0.00    -0.129 S 
ENDBRANCH  29  36
ENDBRANCH  28  32
ENDBRANCH  27  28
ENDBRANCH  23  27
ENDBRANCH  22  24
ENDBRANCH   1  22
TORSDOF 7
