REMARK  Name = ZINC66876658
REMARK  7 active torsions:
REMARK  status: ('A' for Active; 'I' for Inactive)
REMARK    1  A    between atoms: C_4  and  N_8
REMARK    2  A    between atoms: C_5  and  C_6
REMARK    3  A    between atoms: C_9  and  C_11
REMARK    4  A    between atoms: C_11  and  N_12
REMARK    5  A    between atoms: C_15  and  N_18
REMARK    6  A    between atoms: C_19  and  C_21
REMARK    7  A    between atoms: C_21  and  C_22
REMARK                            x       y       z     vdW  Elec       q    Type
REMARK                         _______ _______ _______ _____ _____    ______ ____
ROOT
ATOM      1  N   UNL     1       4.596  -4.041  -0.065  0.00  0.00    +0.386 N 
ATOM      2  C   UNL     1       5.144  -3.507  -1.318  0.00  0.00    -0.076 C 
ATOM      3  C   UNL     1       6.670  -3.627  -1.304  0.00  0.00    +0.003 C 
ATOM      4  C   UNL     1       7.059  -5.102  -1.162  0.00  0.00    +0.069 C 
ATOM      5  C   UNL     1       6.421  -5.667   0.110  0.00  0.00    +0.003 C 
ATOM      6  C   UNL     1       4.904  -5.472   0.044  0.00  0.00    -0.076 C 
ATOM      7  H   UNL     1       5.006  -3.549   0.715  0.00  0.00    -0.081 HD
ENDROOT
BRANCH   4   8
ATOM      8  N   UNL     1       8.517  -5.217  -1.071  0.00  0.00    -0.313 N 
ATOM      9  C   UNL     1       9.126  -6.361  -1.439  0.00  0.00    +0.213 C 
ATOM     10  O   UNL     1       8.468  -7.295  -1.845  0.00  0.00    -0.276 OA
ATOM     11  H   UNL     1       9.043  -4.469  -0.747  0.00  0.00    +0.149 HD
BRANCH   9  12
ATOM     12  C   UNL     1      10.626  -6.479  -1.346  0.00  0.00    +0.099 C 
BRANCH  12  13
ATOM     13  C   UNL     1      11.058  -7.868  -1.821  0.00  0.00    -0.002 C 
ATOM     14  C   UNL     1      10.570  -8.942  -0.826  0.00  0.00    +0.004 C 
ATOM     15  C   UNL     1      11.721  -9.978  -0.791  0.00  0.00    +0.000 C 
ATOM     16  C   UNL     1      12.986  -9.088  -0.872  0.00  0.00    +0.000 C 
ATOM     17  C   UNL     1      12.594  -7.961  -1.849  0.00  0.00    +0.004 C 
ENDBRANCH  12  13
ENDBRANCH   9  12
ENDBRANCH   4   8
BRANCH   1  18
ATOM     18  C   UNL     1       3.140  -3.852  -0.050  0.00  0.00    +0.019 C 
BRANCH  18  20
ATOM     19  N   UNL     1       1.541  -1.965  -0.024  0.00  0.00    -0.281 N 
ATOM     20  C   UNL     1       2.824  -2.379  -0.039  0.00  0.00    +0.201 C 
ATOM     21  O   UNL     1       3.723  -1.566  -0.043  0.00  0.00    -0.278 OA
ATOM     22  H   UNL     1       0.821  -2.615  -0.021  0.00  0.00    +0.155 HD
BRANCH  19  26
ATOM     23  C   UNL     1      -0.018   1.440   0.010  0.00  0.00    +0.028 A 
ATOM     24  C   UNL     1       1.187   2.043   0.002  0.00  0.00    +0.048 A 
ATOM     25  S   UNL     1       2.328   0.678  -0.017  0.00  0.00    -0.081 S 
ATOM     26  C   UNL     1       1.250  -0.608  -0.013  0.00  0.00    +0.089 A 
ATOM     27  C   UNL     1       0.002  -0.004   0.002  0.00  0.00    +0.080 A 
BRANCH  27  28
ATOM     28  C   UNL     1      -1.206  -0.773   0.010  0.00  0.00    +0.102 C 
ATOM     29  N   UNL     1      -2.164  -1.383   0.016  0.00  0.00    -0.191 NA
ENDBRANCH  27  28
ENDBRANCH  19  26
ENDBRANCH  18  20
ENDBRANCH   1  18
TORSDOF 7
