REMARK  Name = ZINC02638880
REMARK  7 active torsions:
REMARK  status: ('A' for Active; 'I' for Inactive)
REMARK    1  A    between atoms: C_1  and  C_2
REMARK    2  A    between atoms: C_9  and  N_14
REMARK    3  A    between atoms: C_10  and  C_11
REMARK    4  A    between atoms: C_15  and  C_17
REMARK    5  A    between atoms: C_17  and  O_18
REMARK    6  A    between atoms: O_18  and  C_19
REMARK    7  A    between atoms: C_22  and  C_25
REMARK                            x       y       z     vdW  Elec       q    Type
REMARK                         _______ _______ _______ _____ _____    ______ ____
ROOT
ATOM      1  C   UNL     1      -0.758   1.595  -1.227  0.00  0.00    +0.008 C 
ATOM      2  C   UNL     1      -0.013   1.086   0.008  0.00  0.00    -0.009 C 
ATOM      3  C   UNL     1      -0.714   1.583   1.276  0.00  0.00    +0.008 C 
ATOM      4  C   UNL     1      -0.129   0.881   2.503  0.00  0.00    +0.037 C 
ATOM      5  C   UNL     1       1.387   1.034   2.479  0.00  0.00    -0.023 A 
ATOM      6  C   UNL     1       2.035   1.365   1.342  0.00  0.00    -0.004 A 
ATOM      7  S   UNL     1       3.745   1.426   1.797  0.00  0.00    -0.077 S 
ATOM      8  C   UNL     1       3.602   1.017   3.475  0.00  0.00    +0.084 A 
ATOM      9  C   UNL     1       2.236   0.844   3.643  0.00  0.00    +0.068 A 
ATOM     10  C   UNL     1       1.427   1.620  -0.003  0.00  0.00    +0.046 C 
ENDROOT
BRANCH   9  11
ATOM     11  C   UNL     1       1.670   0.482   4.946  0.00  0.00    +0.244 C 
ATOM     12  O   UNL     1       1.336   1.354   5.727  0.00  0.00    -0.270 OA
ATOM     13  N   UNL     1       1.521  -0.815   5.280  0.00  0.00    -0.325 N 
ATOM     14  H   UNL     1       1.787  -1.509   4.657  0.00  0.00    +0.145 HD
ATOM     15  H   UNL     1       1.147  -1.054   6.142  0.00  0.00    +0.145 HD
ENDBRANCH   9  11
BRANCH   8  16
ATOM     16  N   UNL     1       4.609   0.894   4.420  0.00  0.00    -0.277 N 
ATOM     17  C   UNL     1       5.894   1.103   4.068  0.00  0.00    +0.255 C 
ATOM     18  O   UNL     1       6.168   1.399   2.924  0.00  0.00    -0.272 OA
ATOM     19  H   UNL     1       4.390   0.657   5.334  0.00  0.00    +0.155 HD
BRANCH  17  20
ATOM     20  C   UNL     1       6.988   0.969   5.095  0.00  0.00    +0.324 C 
BRANCH  20  21
ATOM     21  O   UNL     1       8.251   1.237   4.483  0.00  0.00    -0.483 OA
BRANCH  21  22
ATOM     22  C   UNL     1       9.350   1.159   5.277  0.00  0.00    +0.121 A 
ATOM     23  C   UNL     1       9.211   0.835   6.621  0.00  0.00    +0.047 A 
ATOM     24  C   UNL     1      10.324   0.748   7.428  0.00  0.00    +0.022 A 
ATOM     25  C   UNL     1      11.592   0.998   6.896  0.00  0.00    +0.052 A 
ATOM     26  C   UNL     1      11.726   1.329   5.545  0.00  0.00    +0.022 A 
ATOM     27  C   UNL     1      10.609   1.408   4.744  0.00  0.00    +0.047 A 
BRANCH  25  28
ATOM     28  C   UNL     1      12.751   0.913   7.734  0.00  0.00    +0.099 C 
ATOM     29  N   UNL     1      13.670   0.847   8.398  0.00  0.00    -0.191 NA
ENDBRANCH  25  28
ENDBRANCH  21  22
ENDBRANCH  20  21
ENDBRANCH  17  20
ENDBRANCH   8  16
TORSDOF 6
