REMARK  Name = ZINC57584971
REMARK  3 active torsions:
REMARK  status: ('A' for Active; 'I' for Inactive)
REMARK    1  A    between atoms: C_3  and  C_6
REMARK    2  A    between atoms: C_12  and  C_14
REMARK    3  A    between atoms: C_19  and  C_22
REMARK                            x       y       z     vdW  Elec       q    Type
REMARK                         _______ _______ _______ _____ _____    ______ ____
ROOT
ATOM      1  C   UNL     1       6.269  -0.146   1.188  0.00  0.00    +0.239 C 
ATOM      2  O   UNL     1       5.570   0.075   2.155  0.00  0.00    -0.273 OA
ATOM      3  N   UNL     1       7.584   0.144   1.227  0.00  0.00    -0.263 N 
ATOM      4  C   UNL     1       8.140   0.695   2.375  0.00  0.00    +0.165 A 
ATOM      5  N   UNL     1       9.390   1.051   2.609  0.00  0.00    -0.225 NA
ATOM      6  C   UNL     1       9.750   1.568   3.775  0.00  0.00    +0.082 A 
ATOM      7  C   UNL     1       8.811   1.736   4.753  0.00  0.00    +0.077 A 
ATOM      8  S   UNL     1       7.353   1.118   3.922  0.00  0.00    -0.060 S 
ATOM      9  H   UNL     1       8.143  -0.033   0.454  0.00  0.00    +0.157 HD
ENDROOT
BRANCH   6  10
ATOM     10  C   UNL     1      11.160   1.960   4.015  0.00  0.00    +0.021 A 
ATOM     11  C   UNL     1      11.537   2.497   5.245  0.00  0.00    +0.031 A 
ATOM     12  C   UNL     1      12.851   2.860   5.463  0.00  0.00    +0.042 A 
ATOM     13  C   UNL     1      13.794   2.692   4.463  0.00  0.00    +0.021 A 
ATOM     14  C   UNL     1      13.426   2.159   3.241  0.00  0.00    +0.022 A 
ATOM     15  C   UNL     1      12.116   1.787   3.014  0.00  0.00    +0.050 A 
ATOM     16 CL   UNL     1      11.657   1.112   1.482  0.00  0.00    -0.083 Cl
ATOM     17 CL   UNL     1      13.322   3.530   6.994  0.00  0.00    -0.084 Cl
ENDBRANCH   6  10
BRANCH   1  24
ATOM     18  C   UNL     1       3.561   0.619  -0.029  0.00  0.00    +0.283 C 
ATOM     19  O   UNL     1       4.195   1.658  -0.030  0.00  0.00    -0.267 OA
ATOM     20  N   UNL     1       4.206  -0.564  -0.042  0.00  0.00    -0.283 N 
ATOM     21  C   UNL     1       3.566  -1.892  -0.049  0.00  0.00    +0.109 C 
ATOM     22  C   UNL     1       4.621  -2.838  -0.674  0.00  0.00    +0.021 C 
ATOM     23  C   UNL     1       5.939  -2.262  -0.092  0.00  0.00    +0.033 C 
ATOM     24  C   UNL     1       5.665  -0.744  -0.057  0.00  0.00    +0.163 C 
BRANCH  18  27
ATOM     25  C   UNL     1      -0.016   1.347   0.009  0.00  0.00    +0.042 A 
ATOM     26  C   UNL     1       1.319   1.778  -0.001  0.00  0.00    +0.054 A 
ATOM     27  C   UNL     1       2.095   0.654  -0.014  0.00  0.00    +0.189 A 
ATOM     28  O   UNL     1       1.276  -0.418  -0.012  0.00  0.00    -0.458 OA
ATOM     29  C   UNL     1       0.002  -0.004   0.002  0.00  0.00    +0.196 A 
ENDBRANCH  18  27
ENDBRANCH   1  24
TORSDOF 3
