REMARK  Name = ZINC67221401
REMARK  7 active torsions:
REMARK  status: ('A' for Active; 'I' for Inactive)
REMARK    1  A    between atoms: C_8  and  C_10
REMARK    2  A    between atoms: C_11  and  C_16
REMARK    3  A    between atoms: C_16  and  N_17
REMARK    4  A    between atoms: N_17  and  C_18
REMARK    5  A    between atoms: C_18  and  C_19
REMARK    6  A    between atoms: C_19  and  C_20
REMARK    7  A    between atoms: N_22  and  C_23
REMARK                            x       y       z     vdW  Elec       q    Type
REMARK                         _______ _______ _______ _____ _____    ______ ____
ROOT
ATOM      1  C   UNL     1       3.796  -3.333  -0.053  0.00  0.00    +0.129 A 
ATOM      2  C   UNL     1       5.032  -3.488  -0.715  0.00  0.00    -0.016 A 
ATOM      3  C   UNL     1       5.470  -4.744  -0.485  0.00  0.00    +0.107 A 
ATOM      4  N   UNL     1       4.557  -5.370   0.291  0.00  0.00    -0.284 N 
ATOM      5  H   UNL     1       4.614  -6.283   0.612  0.00  0.00    +0.188 HD
ATOM      6  N   UNL     1       3.518  -4.469   0.556  0.00  0.00    -0.171 NA
ENDROOT
BRANCH   1  14
ATOM      7  C   UNL     1      -0.017   1.363   0.009  0.00  0.00    +0.001 A 
ATOM      8  C   UNL     1       1.170   2.082   0.002  0.00  0.00    +0.004 A 
ATOM      9  C   UNL     1       2.387   1.432  -0.013  0.00  0.00    +0.047 A 
ATOM     10  C   UNL     1       2.429   0.044  -0.021  0.00  0.00    +0.136 A 
ATOM     11  C   UNL     1       1.223  -0.679  -0.013  0.00  0.00    +0.021 A 
ATOM     12  C   UNL     1       0.002  -0.004   0.002  0.00  0.00    +0.011 A 
ATOM     13  C   UNL     1       1.610  -2.092  -0.025  0.00  0.00    +0.060 A 
ATOM     14  C   UNL     1       2.964  -2.111  -0.038  0.00  0.00    +0.156 A 
ATOM     15  O   UNL     1       3.439  -0.850  -0.036  0.00  0.00    -0.453 OA
ENDBRANCH   1  14
BRANCH   2  16
ATOM     16  C   UNL     1       5.737  -2.438  -1.534  0.00  0.00    -0.043 C 
BRANCH  16  17
ATOM     17  N   UNL     1       6.441  -1.510  -0.639  0.00  0.00    +0.382 N 
ATOM     18  H   UNL     1       5.776  -1.066  -0.024  0.00  0.00    -0.085 HD
ATOM     19  H   UNL     1       7.117  -2.020  -0.090  0.00  0.00    -0.085 HD
BRANCH  17  20
ATOM     20  C   UNL     1       7.129  -0.487  -1.437  0.00  0.00    -0.073 C 
BRANCH  20  21
ATOM     21  C   UNL     1       7.862   0.480  -0.505  0.00  0.00    +0.077 C 
BRANCH  21  22
ATOM     22  C   UNL     1       8.568   1.530  -1.324  0.00  0.00    +0.211 C 
ATOM     23  O   UNL     1       8.492   1.507  -2.534  0.00  0.00    -0.276 OA
ATOM     24  N   UNL     1       9.283   2.494  -0.712  0.00  0.00    -0.313 N 
ATOM     25  H   UNL     1       9.344   2.512   0.256  0.00  0.00    +0.149 HD
BRANCH  24  26
ATOM     26  C   UNL     1       9.969   3.514  -1.508  0.00  0.00    +0.073 C 
ATOM     27  C   UNL     1      11.378   3.021  -1.899  0.00  0.00    +0.022 C 
ATOM     28  C   UNL     1      12.261   4.291  -1.820  0.00  0.00    +0.002 C 
ATOM     29  C   UNL     1      11.689   5.028  -0.584  0.00  0.00    +0.002 C 
ATOM     30  C   UNL     1      10.167   4.791  -0.672  0.00  0.00    +0.022 C 
ENDBRANCH  24  26
ENDBRANCH  21  22
ENDBRANCH  20  21
ENDBRANCH  17  20
ENDBRANCH  16  17
ENDBRANCH   2  16
TORSDOF 7
