REMARK  Name = ZINC14747594
REMARK  6 active torsions:
REMARK  status: ('A' for Active; 'I' for Inactive)
REMARK    1  A    between atoms: C_2  and  C_3
REMARK    2  A    between atoms: C_3  and  N_4
REMARK    3  A    between atoms: C_7  and  C_9
REMARK    4  A    between atoms: C_18  and  N_63
REMARK    5  A    between atoms: C_22  and  C_23
REMARK    6  A    between atoms: C_22  and  N_63
REMARK                            x       y       z     vdW  Elec       q    Type
REMARK                         _______ _______ _______ _____ _____    ______ ____
ROOT
ATOM      1  N   UNL     1      -2.022   3.476  -1.194  0.00  0.00    -0.264 N 
ATOM      2  C   UNL     1      -1.499   4.010  -2.310  0.00  0.00    +0.043 A 
ATOM      3  C   UNL     1      -2.523   4.552  -3.014  0.00  0.00    +0.004 A 
ATOM      4  C   UNL     1      -3.680   4.321  -2.250  0.00  0.00    +0.151 A 
ATOM      5  N   UNL     1      -3.296   3.667  -1.168  0.00  0.00    -0.166 NA
ATOM      6  C   UNL     1      -2.376   5.248  -4.338  0.00  0.00    +0.023 C 
ATOM      7  C   UNL     1      -1.007   4.879  -4.926  0.00  0.00    -0.067 C 
ATOM      8  C   UNL     1       0.078   5.089  -3.867  0.00  0.00    -0.009 C 
ATOM      9  C   UNL     1      -0.063   4.029  -2.767  0.00  0.00    +0.054 C 
ENDROOT
BRANCH   4  10
ATOM     10  C   UNL     1      -5.058   4.730  -2.591  0.00  0.00    +0.267 C 
ATOM     11  O   UNL     1      -5.294   5.228  -3.675  0.00  0.00    -0.268 OA
ATOM     12  N   UNL     1      -6.054   4.552  -1.701  0.00  0.00    -0.296 N 
ATOM     13  C   UNL     1      -5.764   4.088  -0.337  0.00  0.00    +0.108 C 
ATOM     14  C   UNL     1      -6.394   5.075   0.658  0.00  0.00    +0.019 C 
ATOM     15  C   UNL     1      -7.885   5.221   0.348  0.00  0.00    +0.003 C 
ATOM     16  C   UNL     1      -8.061   5.784  -1.064  0.00  0.00    +0.019 C 
ATOM     17  C   UNL     1      -7.450   4.811  -2.077  0.00  0.00    +0.108 C 
ENDBRANCH   4  10
BRANCH   7  18
ATOM     18  N   UNL     1      -0.732   5.743  -6.091  0.00  0.00    +0.381 N 
ATOM     19  H   UNL     1      -0.323   6.627  -5.767  0.00  0.00    -0.086 HD
ATOM     20  H   UNL     1      -1.611   5.933  -6.586  0.00  0.00    -0.086 HD
BRANCH  18  21
ATOM     21  C   UNL     1       0.211   5.078  -7.010  0.00  0.00    -0.079 C 
BRANCH  21  22
ATOM     22  C   UNL     1       0.476   5.995  -8.205  0.00  0.00    -0.028 C 
ATOM     23  C   UNL     1      -0.815   6.177  -9.005  0.00  0.00    +0.002 C 
ATOM     24  C   UNL     1      -0.549   7.094 -10.201  0.00  0.00    +0.000 C 
ATOM     25  C   UNL     1       0.522   6.468 -11.096  0.00  0.00    +0.000 C 
ATOM     26  C   UNL     1       1.813   6.286 -10.296  0.00  0.00    +0.000 C 
ATOM     27  C   UNL     1       1.547   5.369  -9.101  0.00  0.00    +0.002 C 
ENDBRANCH  21  22
ENDBRANCH  18  21
ENDBRANCH   7  18
BRANCH   1  28
ATOM     28  C   UNL     1      -1.255   2.784  -0.155  0.00  0.00    +0.170 C 
BRANCH  28  30
ATOM     29  C   UNL     1      -0.030   0.711  -0.559  0.00  0.00    +0.006 C 
ATOM     30  C   UNL     1      -1.190   1.313  -0.475  0.00  0.00    -0.012 C 
ENDBRANCH  28  30
ENDBRANCH   1  28
TORSDOF 6
