REMARK  Name = ZINC38650785
REMARK  12 active torsions:
REMARK  status: ('A' for Active; 'I' for Inactive)
REMARK    1  A    between atoms: C_1  and  C_2
REMARK    2  A    between atoms: C_2  and  C_3
REMARK    3  A    between atoms: C_3  and  C_4
REMARK    4  A    between atoms: C_4  and  O_5
REMARK    5  A    between atoms: O_5  and  C_6
REMARK    6  A    between atoms: C_9  and  C_12
REMARK    7  A    between atoms: C_17  and  O_26
REMARK    8  A    between atoms: C_21  and  N_25
REMARK    9  A    between atoms: C_22  and  C_23
REMARK   10  A    between atoms: O_26  and  C_27
REMARK   11  A    between atoms: C_27  and  C_29
REMARK   12  A    between atoms: C_30  and  C_31
REMARK                            x       y       z     vdW  Elec       q    Type
REMARK                         _______ _______ _______ _____ _____    ______ ____
ROOT
ATOM      1  C   UNL     1      -3.374  -8.116  -0.045  0.00  0.00    +0.098 C 
ATOM      2  C   UNL     1      -4.148  -8.533  -1.268  0.00  0.00    +0.008 A 
ATOM      3  C   UNL     1      -3.540  -8.480  -2.510  0.00  0.00    +0.012 A 
ATOM      4  C   UNL     1      -4.234  -8.859  -3.641  0.00  0.00    +0.047 A 
ATOM      5  C   UNL     1      -5.548  -9.295  -3.536  0.00  0.00    +0.135 A 
ATOM      6  C   UNL     1      -6.160  -9.349  -2.295  0.00  0.00    +0.093 A 
ATOM      7  C   UNL     1      -5.460  -8.967  -1.157  0.00  0.00    +0.138 A 
ATOM      8  O   UNL     1      -6.073  -9.026   0.051  0.00  0.00    -0.441 OA
ATOM      9  C   UNL     1      -5.338  -9.043   1.175  0.00  0.00    +0.199 C 
ATOM     10  C   UNL     1      -4.054  -8.624   1.195  0.00  0.00    +0.098 C 
ENDROOT
BRANCH   1  14
ATOM     11  C   UNL     1      -3.159  -3.851   0.105  0.00  0.00    +0.121 A 
ATOM     12  C   UNL     1      -1.995  -4.603   0.034  0.00  0.00    +0.046 A 
ATOM     13  C   UNL     1      -2.068  -5.982  -0.015  0.00  0.00    +0.008 A 
ATOM     14  C   UNL     1      -3.298  -6.612   0.008  0.00  0.00    -0.034 A 
ATOM     15  C   UNL     1      -4.459  -5.864   0.079  0.00  0.00    +0.008 A 
ATOM     16  C   UNL     1      -4.392  -4.485   0.134  0.00  0.00    +0.046 A 
BRANCH  11  17
ATOM     17  O   UNL     1      -3.090  -2.494   0.154  0.00  0.00    -0.492 OA
BRANCH  17  18
ATOM     18  C   UNL     1      -1.786  -1.909   0.120  0.00  0.00    +0.229 C 
BRANCH  18  19
ATOM     19  C   UNL     1      -1.910  -0.385   0.183  0.00  0.00    +0.041 C 
BRANCH  19  21
ATOM     20  C   UNL     1      -0.638   1.765   0.210  0.00  0.00    +0.004 C 
ATOM     21  C   UNL     1      -0.514   0.241   0.147  0.00  0.00    -0.000 C 
ENDBRANCH  19  21
ENDBRANCH  18  19
ENDBRANCH  17  18
ENDBRANCH  11  17
ENDBRANCH   1  14
BRANCH   9  22
ATOM     22  N   UNL     1      -5.910  -9.498   2.337  0.00  0.00    -0.328 N 
ATOM     23  H   UNL     1      -6.831  -9.802   2.338  0.00  0.00    +0.145 HD
ATOM     24  H   UNL     1      -5.392  -9.517   3.158  0.00  0.00    +0.145 HD
ENDBRANCH   9  22
BRANCH  10  25
ATOM     25  C   UNL     1      -3.326  -8.667   2.427  0.00  0.00    +0.101 C 
ATOM     26  N   UNL     1      -2.748  -8.701   3.404  0.00  0.00    -0.191 NA
ENDBRANCH  10  25
BRANCH   5  27
ATOM     27  O   UNL     1      -6.232  -9.668  -4.649  0.00  0.00    -0.423 OA
BRANCH  27  28
ATOM     28  C   UNL     1      -5.856 -10.803  -5.274  0.00  0.00    +0.337 C 
ATOM     29  O   UNL     1      -4.999 -11.513  -4.781  0.00  0.00    -0.245 OA
BRANCH  28  30
ATOM     30  C   UNL     1      -6.476 -11.180  -6.542  0.00  0.00    +0.092 C 
ATOM     31  C   UNL     1      -6.100 -12.316  -7.167  0.00  0.00    +0.016 C 
BRANCH  31  32
ATOM     32  C   UNL     1      -6.724 -12.695  -8.444  0.00  0.00    -0.006 A 
ATOM     33  C   UNL     1      -7.705 -11.878  -9.017  0.00  0.00    +0.009 A 
ATOM     34  C   UNL     1      -8.286 -12.240 -10.213  0.00  0.00    +0.001 A 
ATOM     35  C   UNL     1      -7.902 -13.409 -10.848  0.00  0.00    +0.001 A 
ATOM     36  C   UNL     1      -6.933 -14.223 -10.290  0.00  0.00    +0.020 A 
ATOM     37  C   UNL     1      -6.337 -13.871  -9.095  0.00  0.00    +0.048 A 
ATOM     38 CL   UNL     1      -5.115 -14.890  -8.399  0.00  0.00    -0.083 Cl
ENDBRANCH  31  32
ENDBRANCH  28  30
ENDBRANCH  27  28
ENDBRANCH   5  27
TORSDOF 11
