REMARK  Name = ZINC39923342
REMARK  7 active torsions:
REMARK  status: ('A' for Active; 'I' for Inactive)
REMARK    1  A    between atoms: C_3  and  S_27
REMARK    2  A    between atoms: C_6  and  N_7
REMARK    3  A    between atoms: C_8  and  C_10
REMARK    4  A    between atoms: C_10  and  C_11
REMARK    5  A    between atoms: C_11  and  S_12
REMARK    6  A    between atoms: S_12  and  C_13
REMARK    7  A    between atoms: S_27  and  N_30
REMARK                            x       y       z     vdW  Elec       q    Type
REMARK                         _______ _______ _______ _____ _____    ______ ____
ROOT
ATOM      1  N   UNL     1      -1.199  -0.722   0.010  0.00  0.00    -0.285 N 
ATOM      2  C   UNL     1      -1.183  -2.065  -0.099  0.00  0.00    +0.218 C 
ATOM      3  O   UNL     1      -0.125  -2.659  -0.113  0.00  0.00    -0.275 OA
ATOM      4  H   UNL     1      -2.044  -0.253   0.098  0.00  0.00    +0.155 HD
ENDROOT
BRANCH   1  10
ATOM      5  C   UNL     1       1.072  -0.453  -0.766  0.00  0.00    +0.025 A 
ATOM      6  C   UNL     1       2.256   0.259  -0.778  0.00  0.00    +0.030 A 
ATOM      7  C   UNL     1       2.376   1.416  -0.032  0.00  0.00    +0.105 A 
ATOM      8  C   UNL     1       1.312   1.866   0.729  0.00  0.00    +0.030 A 
ATOM      9  C   UNL     1       0.126   1.160   0.744  0.00  0.00    +0.025 A 
ATOM     10  C   UNL     1       0.002  -0.004  -0.004  0.00  0.00    +0.033 A 
BRANCH   7  11
ATOM     11  S   UNL     1       3.889   2.320  -0.048  0.00  0.00    +0.056 S 
ATOM     12  O   UNL     1       3.928   3.069   1.159  0.00  0.00    -0.153 OA
ATOM     13  O   UNL     1       4.909   1.398  -0.406  0.00  0.00    -0.153 OA
BRANCH  11  14
ATOM     14  N   UNL     1       3.789   3.419  -1.284  0.00  0.00    -0.204 NA
ATOM     15  H   UNL     1       4.261   4.263  -1.221  0.00  0.00    +0.144 HD
ATOM     16  H   UNL     1       3.258   3.217  -2.070  0.00  0.00    +0.144 HD
ENDBRANCH  11  14
ENDBRANCH   7  11
ENDBRANCH   1  10
BRANCH   2  17
ATOM     17  C   UNL     1      -2.478  -2.828  -0.204  0.00  0.00    +0.107 C 
BRANCH  17  18
ATOM     18  C   UNL     1      -2.180  -4.325  -0.316  0.00  0.00    +0.086 C 
BRANCH  18  19
ATOM     19  S   UNL     1      -3.738  -5.244  -0.442  0.00  0.00    -0.088 S 
BRANCH  19  20
ATOM     20  C   UNL     1      -3.232  -6.927  -0.563  0.00  0.00    +0.182 C 
ATOM     21  N   UNL     1      -1.939  -7.199  -0.537  0.00  0.00    -0.151 NA
ATOM     22  C   UNL     1      -1.463  -8.441  -0.633  0.00  0.00    +0.272 C 
ATOM     23  O   UNL     1      -0.263  -8.656  -0.601  0.00  0.00    -0.268 OA
ATOM     24  C   UNL     1      -2.442  -9.564  -0.779  0.00  0.00    +0.071 C 
ATOM     25  C   UNL     1      -2.192 -10.862  -1.010  0.00  0.00    -0.042 C 
ATOM     26  C   UNL     1      -1.080 -11.792  -1.490  0.00  0.00    +0.033 C 
ATOM     27  C   UNL     1      -1.778 -12.884  -2.328  0.00  0.00    +0.006 C 
ATOM     28  C   UNL     1      -3.298 -12.605  -2.209  0.00  0.00    +0.019 C 
ATOM     29  C   UNL     1      -3.386 -11.810  -0.892  0.00  0.00    +0.079 C 
ATOM     30  S   UNL     1      -4.790 -10.639  -0.913  0.00  0.00    -0.097 S 
ATOM     31  C   UNL     1      -3.860  -9.133  -0.774  0.00  0.00    +0.112 C 
ATOM     32  N   UNL     1      -4.172  -7.867  -0.671  0.00  0.00    -0.217 NA
ENDBRANCH  19  20
ENDBRANCH  18  19
ENDBRANCH  17  18
ENDBRANCH   2  17
TORSDOF 7
