REMARK  Name = ZINC03581575
REMARK  6 active torsions:
REMARK  status: ('A' for Active; 'I' for Inactive)
REMARK    1  A    between atoms: C_1  and  C_2
REMARK    2  A    between atoms: C_4  and  S_9
REMARK    3  A    between atoms: S_9  and  N_12
REMARK    4  A    between atoms: N_12  and  C_13
REMARK    5  A    between atoms: C_18  and  O_19
REMARK    6  A    between atoms: O_19  and  C_20
REMARK                            x       y       z     vdW  Elec       q    Type
REMARK                         _______ _______ _______ _____ _____    ______ ____
ROOT
ATOM      1  N   UNL     1       0.033   7.974  -0.050  0.00  0.00    -0.213 N 
ATOM      2  H   UNL     1       0.747   7.618  -0.602  0.00  0.00    +0.174 HD
ENDROOT
BRANCH   1   3
ATOM      3  C   UNL     1      -1.201   7.317   0.008  0.00  0.00    +0.090 A 
ATOM      4  C   UNL     1      -2.375   8.049   0.117  0.00  0.00    +0.028 A 
ATOM      5  C   UNL     1      -3.592   7.398   0.173  0.00  0.00    +0.002 A 
ATOM      6  C   UNL     1      -3.645   6.017   0.122  0.00  0.00    +0.004 A 
ATOM      7  C   UNL     1      -2.480   5.281   0.009  0.00  0.00    +0.048 A 
ATOM      8  C   UNL     1      -1.255   5.926  -0.043  0.00  0.00    +0.151 A 
BRANCH   8   9
ATOM      9  O   UNL     1      -0.108   5.203  -0.149  0.00  0.00    -0.454 OA
BRANCH   9  10
ATOM     10  C   UNL     1       0.471   5.102  -1.374  0.00  0.00    +0.129 A 
ATOM     11  C   UNL     1       1.706   4.482  -1.510  0.00  0.00    +0.046 A 
ATOM     12  C   UNL     1       2.292   4.381  -2.756  0.00  0.00    +0.004 A 
ATOM     13  C   UNL     1       1.651   4.897  -3.867  0.00  0.00    +0.000 A 
ATOM     14  C   UNL     1       0.424   5.520  -3.734  0.00  0.00    +0.004 A 
ATOM     15  C   UNL     1      -0.170   5.619  -2.490  0.00  0.00    +0.046 A 
ENDBRANCH   9  10
ENDBRANCH   8   9
ENDBRANCH   1   3
BRANCH   1  16
ATOM     16  S   UNL     1       0.275   9.360   0.824  0.00  0.00    +0.072 S 
ATOM     17  O   UNL     1       1.640   9.716   0.652  0.00  0.00    -0.150 OA
ATOM     18  O   UNL     1      -0.789  10.241   0.492  0.00  0.00    -0.150 OA
BRANCH  16  22
ATOM     19  C   UNL     1       2.191   7.752   5.413  0.00  0.00    +0.045 C 
ATOM     20  C   UNL     1       1.004   8.205   4.603  0.00  0.00    -0.035 A 
ATOM     21  C   UNL     1       1.162   8.530   3.268  0.00  0.00    +0.033 A 
ATOM     22  C   UNL     1       0.073   8.945   2.525  0.00  0.00    +0.109 A 
ATOM     23  C   UNL     1      -1.173   9.041   3.116  0.00  0.00    +0.030 A 
ATOM     24  C   UNL     1      -1.332   8.711   4.449  0.00  0.00    +0.017 A 
ATOM     25  C   UNL     1      -0.243   8.296   5.194  0.00  0.00    +0.021 A 
ATOM     26 BR   UNL     1      -0.459   7.851   7.019  0.00  0.00    -0.050 Br
ENDBRANCH  16  22
ENDBRANCH   1  16
TORSDOF 5
