REMARK  Name = ZINC59466215
REMARK  5 active torsions:
REMARK  status: ('A' for Active; 'I' for Inactive)
REMARK    1  A    between atoms: C_3  and  C_9
REMARK    2  A    between atoms: C_4  and  O_8
REMARK    3  A    between atoms: C_6  and  O_7
REMARK    4  A    between atoms: N_10  and  C_11
REMARK    5  A    between atoms: C_12  and  C_20
REMARK                            x       y       z     vdW  Elec       q    Type
REMARK                         _______ _______ _______ _____ _____    ______ ____
ROOT
ATOM      1  C   UNL     1       5.948   2.221  -0.044  0.00  0.00    +0.114 A 
ATOM      2  C   UNL     1       7.263   1.741  -0.065  0.00  0.00    +0.072 A 
ATOM      3  C   UNL     1       8.318   2.672  -0.070  0.00  0.00    -0.023 A 
ATOM      4  C   UNL     1       7.979   3.984  -0.053  0.00  0.00    -0.004 A 
ATOM      5  S   UNL     1       6.206   3.988  -0.038  0.00  0.00    -0.073 S 
ATOM      6  C   UNL     1       8.902   5.162  -0.053  0.00  0.00    +0.043 C 
ATOM      7  C   UNL     1      10.314   4.671   0.298  0.00  0.00    +0.005 C 
ATOM      8  C   UNL     1      10.631   3.440  -0.556  0.00  0.00    +0.005 C 
ATOM      9  C   UNL     1       9.786   2.253  -0.093  0.00  0.00    +0.037 C 
ENDROOT
BRANCH   2  10
ATOM     10  C   UNL     1       7.534   0.300  -0.081  0.00  0.00    +0.244 C 
ATOM     11  O   UNL     1       7.634  -0.288  -1.141  0.00  0.00    -0.270 OA
ATOM     12  N   UNL     1       7.673  -0.372   1.079  0.00  0.00    -0.325 N 
ATOM     13  H   UNL     1       7.594   0.097   1.924  0.00  0.00    +0.145 HD
ATOM     14  H   UNL     1       7.853  -1.325   1.069  0.00  0.00    +0.145 HD
ENDBRANCH   2  10
BRANCH   1  16
ATOM     15  C   UNL     1       3.646   2.168  -0.021  0.00  0.00    +0.123 C 
ATOM     16  N   UNL     1       4.788   1.530  -0.036  0.00  0.00    -0.247 NA
BRANCH  15  19
ATOM     17  C   UNL     1      -0.017   1.387   0.010  0.00  0.00    +0.046 A 
ATOM     18  C   UNL     1       1.162   2.097   0.002  0.00  0.00    +0.016 A 
ATOM     19  C   UNL     1       2.386   1.417  -0.013  0.00  0.00    +0.035 A 
ATOM     20  C   UNL     1       2.402   0.011  -0.021  0.00  0.00    +0.129 A 
ATOM     21  C   UNL     1       1.209  -0.689  -0.013  0.00  0.00    +0.091 A 
ATOM     22  C   UNL     1       0.002  -0.004   0.002  0.00  0.00    +0.120 A 
BRANCH  22  23
ATOM     23  O   UNL     1      -1.166  -0.695   0.010  0.00  0.00    -0.507 OA
ATOM     24  H   UNL     1      -1.513  -0.891  -0.871  0.00  0.00    +0.292 HD
ENDBRANCH  22  23
BRANCH  20  25
ATOM     25  O   UNL     1       3.584  -0.657  -0.036  0.00  0.00    -0.506 OA
ATOM     26  H   UNL     1       3.935  -0.855   0.843  0.00  0.00    +0.292 HD
ENDBRANCH  20  25
ENDBRANCH  15  19
ENDBRANCH   1  16
TORSDOF 5
