REMARK  Name = ZINC59537029
REMARK  7 active torsions:
REMARK  status: ('A' for Active; 'I' for Inactive)
REMARK    1  A    between atoms: C_1  and  O_2
REMARK    2  A    between atoms: O_2  and  C_3
REMARK    3  A    between atoms: C_6  and  N_9
REMARK    4  A    between atoms: C_13  and  S_17
REMARK    5  A    between atoms: S_17  and  C_18
REMARK    6  A    between atoms: N_20  and  N_21
REMARK    7  A    between atoms: C_22  and  C_23
REMARK                            x       y       z     vdW  Elec       q    Type
REMARK                         _______ _______ _______ _____ _____    ______ ____
ROOT
ATOM      1  C   UNL     1       1.994  -6.620   6.110  0.00  0.00    +0.146 C 
ATOM      2  N   UNL     1       2.531  -6.910   4.956  0.00  0.00    -0.380 N 
ATOM      3  N   UNL     1       1.214  -7.550   6.759  0.00  0.00    -0.217 N 
ATOM      4  H   UNL     1       2.380  -7.781   4.556  0.00  0.00    +0.158 HD
ATOM      5  H   UNL     1       0.815  -7.335   7.616  0.00  0.00    +0.176 HD
ATOM      6  H   UNL     1       3.080  -6.255   4.498  0.00  0.00    +0.158 HD
ENDROOT
BRANCH   3   7
ATOM      7  N   UNL     1       0.998  -8.808   6.181  0.00  0.00    -0.188 NA
ATOM      8  C   UNL     1       0.262  -9.685   6.794  0.00  0.00    +0.140 C 
BRANCH   8   9
ATOM      9  C   UNL     1       0.034 -11.008   6.187  0.00  0.00    +0.020 A 
ATOM     10  C   UNL     1      -0.712 -12.021   6.703  0.00  0.00    +0.093 A 
ATOM     11  N   UNL     1      -0.688 -13.088   5.854  0.00  0.00    -0.360 N 
ATOM     12  H   UNL     1      -1.147 -13.929   6.007  0.00  0.00    +0.165 HD
ATOM     13  C   UNL     1       0.083 -12.800   4.748  0.00  0.00    +0.047 A 
ATOM     14  C   UNL     1       0.565 -11.489   4.900  0.00  0.00    +0.008 A 
ATOM     15  C   UNL     1       1.377 -10.926   3.918  0.00  0.00    +0.010 A 
ATOM     16  C   UNL     1       1.701 -11.659   2.798  0.00  0.00    +0.001 A 
ATOM     17  C   UNL     1       1.223 -12.953   2.645  0.00  0.00    +0.002 A 
ATOM     18  C   UNL     1       0.425 -13.525   3.611  0.00  0.00    +0.026 A 
ENDBRANCH   8   9
ENDBRANCH   3   7
BRANCH   1  19
ATOM     19  S   UNL     1       2.266  -5.038   6.836  0.00  0.00    -0.078 S 
BRANCH  19  24
ATOM     20  N   UNL     1       2.540  -2.504   4.233  0.00  0.00    -0.209 N 
ATOM     21  C   UNL     1       3.193  -1.830   5.187  0.00  0.00    +0.228 C 
ATOM     22  O   UNL     1       3.307  -0.624   5.242  0.00  0.00    -0.275 OA
ATOM     23  C   UNL     1       3.767  -2.810   6.186  0.00  0.00    +0.120 C 
ATOM     24  C   UNL     1       3.328  -4.183   5.639  0.00  0.00    +0.149 C 
ATOM     25  C   UNL     1       2.547  -3.834   4.391  0.00  0.00    +0.240 C 
ATOM     26  O   UNL     1       2.014  -4.631   3.649  0.00  0.00    -0.274 OA
BRANCH  20  30
ATOM     27  C   UNL     1       0.625  -0.618   1.043  0.00  0.00    +0.120 A 
ATOM     28  C   UNL     1      -0.122  -1.279   2.007  0.00  0.00    +0.047 A 
ATOM     29  C   UNL     1       0.512  -1.904   3.063  0.00  0.00    +0.027 A 
ATOM     30  C   UNL     1       1.896  -1.870   3.160  0.00  0.00    +0.044 A 
ATOM     31  C   UNL     1       2.643  -1.208   2.195  0.00  0.00    +0.027 A 
ATOM     32  C   UNL     1       2.009  -0.588   1.137  0.00  0.00    +0.047 A 
BRANCH  27  34
ATOM     33  C   UNL     1      -1.426  -0.074  -0.030  0.00  0.00    +0.277 C 
ATOM     34  O   UNL     1       0.001  -0.003   0.003  0.00  0.00    -0.495 OA
ENDBRANCH  27  34
ENDBRANCH  20  30
ENDBRANCH  19  24
ENDBRANCH   1  19
TORSDOF 6
