REMARK  Name = ZINC36554858
REMARK  11 active torsions:
REMARK  status: ('A' for Active; 'I' for Inactive)
REMARK    1  A    between atoms: C_1  and  C_2
REMARK    2  A    between atoms: C_2  and  C_3
REMARK    3  A    between atoms: N_5  and  C_6
REMARK    4  A    between atoms: N_5  and  C_13
REMARK    5  A    between atoms: C_13  and  C_15
REMARK    6  A    between atoms: C_13  and  C_22
REMARK    7  A    between atoms: C_20  and  O_21
REMARK    8  A    between atoms: N_24  and  C_25
REMARK    9  A    between atoms: C_25  and  S_26
REMARK   10  A    between atoms: S_26  and  C_29
REMARK   11  A    between atoms: C_32  and  C_35
REMARK                            x       y       z     vdW  Elec       q    Type
REMARK                         _______ _______ _______ _____ _____    ______ ____
ROOT
ATOM      1  C   UNL     1       0.453  -2.738   0.402  0.00  0.00    +0.201 C 
ENDROOT
BRANCH   1   2
ATOM      2  C   UNL     1      -1.015  -2.444   0.236  0.00  0.00    +0.024 A 
ATOM      3  C   UNL     1      -1.482  -1.152   0.381  0.00  0.00    +0.009 A 
ATOM      4  C   UNL     1      -2.830  -0.881   0.230  0.00  0.00    +0.001 A 
ATOM      5  C   UNL     1      -3.713  -1.903  -0.067  0.00  0.00    +0.004 A 
ATOM      6  C   UNL     1      -3.251  -3.196  -0.214  0.00  0.00    +0.046 A 
ATOM      7  C   UNL     1      -1.899  -3.470  -0.068  0.00  0.00    +0.122 A 
BRANCH   7   8
ATOM      8  O   UNL     1      -1.441  -4.740  -0.216  0.00  0.00    -0.506 OA
ATOM      9  H   UNL     1      -1.435  -5.255   0.603  0.00  0.00    +0.292 HD
ENDBRANCH   7   8
ENDBRANCH   1   2
BRANCH   1  10
ATOM     10  C   UNL     1       1.083  -2.929  -0.954  0.00  0.00    +0.240 C 
ATOM     11  O   UNL     1       2.061  -2.281  -1.265  0.00  0.00    -0.273 OA
ATOM     12  N   UNL     1       0.560  -3.818  -1.821  0.00  0.00    -0.294 N 
ATOM     13  H   UNL     1      -0.222  -4.335  -1.573  0.00  0.00    +0.150 HD
BRANCH  12  14
ATOM     14  C   UNL     1       1.173  -4.003  -3.139  0.00  0.00    +0.278 C 
BRANCH  14  15
ATOM     15  S   UNL     1       2.331  -5.398  -3.078  0.00  0.00    +0.013 S 
ATOM     16  O   UNL     1       2.886  -5.630  -4.365  0.00  0.00    -0.168 OA
ATOM     17  O   UNL     1       3.169  -5.288  -1.936  0.00  0.00    -0.168 OA
BRANCH  15  18
ATOM     18  C   UNL     1       1.323  -6.809  -2.761  0.00  0.00    +0.090 A 
ATOM     19  C   UNL     1       1.061  -7.192  -1.460  0.00  0.00    +0.027 A 
ATOM     20  C   UNL     1       0.271  -8.299  -1.211  0.00  0.00    +0.005 A 
ATOM     21  C   UNL     1      -0.257  -9.022  -2.265  0.00  0.00    -0.050 A 
ATOM     22  C   UNL     1       0.004  -8.637  -3.567  0.00  0.00    +0.005 A 
ATOM     23  C   UNL     1       0.791  -7.528  -3.815  0.00  0.00    +0.027 A 
ATOM     24  C   UNL     1      -1.118 -10.229  -1.994  0.00  0.00    +0.044 C 
ENDBRANCH  15  18
ENDBRANCH  14  15
ENDBRANCH  12  14
ENDBRANCH   1  10
BRANCH   1  27
ATOM     25  C   UNL     1       1.571  -1.777   2.341  0.00  0.00    +0.220 C 
ATOM     26  O   UNL     1       1.993  -0.821   2.957  0.00  0.00    -0.275 OA
ATOM     27  N   UNL     1       1.101  -1.618   1.088  0.00  0.00    -0.255 N 
BRANCH  27  28
ATOM     28  C   UNL     1       1.232  -0.383   0.443  0.00  0.00    +0.039 A 
ATOM     29  C   UNL     1       0.621  -0.172  -0.786  0.00  0.00    +0.023 A 
ATOM     30  C   UNL     1       0.751   1.048  -1.420  0.00  0.00    +0.003 A 
ATOM     31  C   UNL     1       1.490   2.059  -0.834  0.00  0.00    +0.020 A 
ATOM     32  C   UNL     1       2.100   1.852   0.391  0.00  0.00    +0.043 A 
ATOM     33  C   UNL     1       1.969   0.635   1.033  0.00  0.00    +0.043 A 
ATOM     34 CL   UNL     1       3.027   3.124   1.124  0.00  0.00    -0.083 Cl
ENDBRANCH  27  28
BRANCH  25  36
ATOM     35  C   UNL     1       2.265  -3.070   4.341  0.00  0.00    +0.013 C 
ATOM     36  C   UNL     1       1.572  -3.143   2.978  0.00  0.00    +0.093 C 
ENDBRANCH  25  36
ENDBRANCH   1  27
TORSDOF 9
