REMARK  Name = ZINC12564175
REMARK  3 active torsions:
REMARK  status: ('A' for Active; 'I' for Inactive)
REMARK    1  A    between atoms: C_8  and  C_12
REMARK    2  A    between atoms: C_8  and  O_24
REMARK    3  A    between atoms: C_13  and  C_18
REMARK                            x       y       z     vdW  Elec       q    Type
REMARK                         _______ _______ _______ _____ _____    ______ ____
ROOT
ATOM      1  C   UNL     1       3.370   1.111  -0.912  0.00  0.00    +0.017 A 
ATOM      2  C   UNL     1       4.111  -0.044  -0.768  0.00  0.00    +0.025 A 
ATOM      3  C   UNL     1       3.473  -1.260  -0.535  0.00  0.00    +0.040 A 
ATOM      4  C   UNL     1       2.086  -1.287  -0.451  0.00  0.00    +0.020 A 
ATOM      5  C   UNL     1       1.349  -0.134  -0.595  0.00  0.00    +0.024 A 
ATOM      6  C   UNL     1       1.990   1.072  -0.827  0.00  0.00    +0.018 A 
ATOM      7 BR   UNL     1       0.982   2.659  -1.033  0.00  0.00    -0.050 Br
ATOM      8  C   UNL     1       1.703  -2.727  -0.197  0.00  0.00    +0.202 C 
ATOM      9  C   UNL     1       3.028  -3.458  -0.155  0.00  0.00    +0.259 C 
ATOM     10  O   UNL     1       3.189  -4.646   0.027  0.00  0.00    -0.272 OA
ATOM     11  N   UNL     1       3.991  -2.544  -0.358  0.00  0.00    -0.282 N 
ATOM     12  H   UNL     1       4.939  -2.752  -0.378  0.00  0.00    +0.155 HD
ENDROOT
BRANCH   8  13
ATOM     13  C   UNL     1       0.986  -2.857   1.122  0.00  0.00    +0.064 A 
ATOM     14  C   UNL     1      -0.356  -2.907   1.384  0.00  0.00    +0.094 A 
ATOM     15  N   UNL     1      -0.768  -3.027   2.644  0.00  0.00    -0.224 NA
ATOM     16  C   UNL     1       0.095  -3.099   3.641  0.00  0.00    +0.156 A 
ATOM     17  S   UNL     1       1.654  -2.998   2.774  0.00  0.00    -0.053 S 
ATOM     18  N   UNL     1      -0.145  -3.225   5.000  0.00  0.00    -0.337 N 
ATOM     19  H   UNL     1      -1.056  -3.273   5.329  0.00  0.00    +0.144 HD
ATOM     20  H   UNL     1       0.598  -3.266   5.622  0.00  0.00    +0.144 HD
BRANCH  14  21
ATOM     21  C   UNL     1      -1.337  -2.829   0.280  0.00  0.00    +0.040 A 
ATOM     22  C   UNL     1      -2.465  -3.576   0.074  0.00  0.00    +0.019 A 
ATOM     23  C   UNL     1      -3.237  -3.317  -1.039  0.00  0.00    +0.028 A 
ATOM     24  C   UNL     1      -2.851  -2.339  -1.899  0.00  0.00    +0.079 A 
ATOM     25  S   UNL     1      -1.353  -1.740  -1.135  0.00  0.00    -0.075 S 
ATOM     26 CL   UNL     1      -3.618  -1.809  -3.363  0.00  0.00    -0.076 Cl
ENDBRANCH  14  21
ENDBRANCH   8  13
BRANCH   8  27
ATOM     27  O   UNL     1       0.890  -3.224  -1.262  0.00  0.00    -0.371 OA
ATOM     28  H   UNL     1       0.686  -4.166  -1.194  0.00  0.00    +0.212 HD
ENDBRANCH   8  27
TORSDOF 3
