REMARK  Name = ZINC36495465
REMARK  13 active torsions:
REMARK  status: ('A' for Active; 'I' for Inactive)
REMARK    1  A    between atoms: C_1  and  C_2
REMARK    2  A    between atoms: C_2  and  C_3
REMARK    3  A    between atoms: C_3  and  C_4
REMARK    4  A    between atoms: C_4  and  N_5
REMARK    5  A    between atoms: C_6  and  C_8
REMARK    6  A    between atoms: C_8  and  C_10
REMARK    7  A    between atoms: C_8  and  N_18
REMARK    8  A    between atoms: N_18  and  C_19
REMARK    9  A    between atoms: C_19  and  C_20
REMARK   10  A    between atoms: C_25  and  C_27
REMARK   11  A    between atoms: C_35  and  C_37
REMARK   12  A    between atoms: C_38  and  C_39
REMARK   13  A    between atoms: C_38  and  C_40
REMARK                            x       y       z     vdW  Elec       q    Type
REMARK                         _______ _______ _______ _____ _____    ______ ____
ROOT
ATOM      1  N   UNL     1       2.362  -6.068   3.699  0.00  0.00    -0.278 N 
ATOM      2  C   UNL     1       3.665  -6.372   3.860  0.00  0.00    +0.220 C 
ATOM      3  O   UNL     1       4.425  -5.552   4.328  0.00  0.00    -0.275 OA
ENDROOT
BRANCH   2   4
ATOM      4  C   UNL     1       4.180  -7.742   3.455  0.00  0.00    +0.079 C 
ATOM      5  C   UNL     1       3.691  -8.768   4.472  0.00  0.00    +0.017 C 
ATOM      6  C   UNL     1       4.723  -9.859   4.755  0.00  0.00    -0.004 C 
ATOM      7  C   UNL     1       6.037  -9.255   5.298  0.00  0.00    +0.008 C 
ATOM      8  C   UNL     1       6.354  -8.997   3.804  0.00  0.00    -0.001 C 
ATOM      9  C   UNL     1       5.700  -7.688   3.366  0.00  0.00    +0.001 C 
ATOM     10  C   UNL     1       6.145  -7.304   1.951  0.00  0.00    +0.008 C 
ATOM     11  C   UNL     1       5.550 -10.269   3.529  0.00  0.00    -0.029 C 
ATOM     12  C   UNL     1       4.787 -10.338   2.211  0.00  0.00    +0.011 C 
ATOM     13  C   UNL     1       6.363 -11.560   3.758  0.00  0.00    +0.011 C 
ENDBRANCH   2   4
BRANCH   1  14
ATOM     14  C   UNL     1       1.891  -4.705   3.955  0.00  0.00    +0.195 C 
BRANCH  14  15
ATOM     15  C   UNL     1       2.169  -4.339   5.390  0.00  0.00    +0.018 A 
ATOM     16  C   UNL     1       1.800  -5.201   6.408  0.00  0.00    +0.048 A 
ATOM     17  C   UNL     1       2.055  -4.864   7.725  0.00  0.00    +0.020 A 
ATOM     18  C   UNL     1       2.679  -3.667   8.025  0.00  0.00    +0.003 A 
ATOM     19  C   UNL     1       3.047  -2.806   7.009  0.00  0.00    +0.020 A 
ATOM     20  C   UNL     1       2.798  -3.144   5.690  0.00  0.00    +0.048 A 
ATOM     21 CL   UNL     1       3.268  -2.066   4.414  0.00  0.00    -0.083 Cl
ATOM     22 CL   UNL     1       1.016  -6.703   6.032  0.00  0.00    -0.083 Cl
ENDBRANCH  14  15
BRANCH  14  24
ATOM     23  N   UNL     1      -0.362  -3.796   4.424  0.00  0.00    -0.313 N 
ATOM     24  C   UNL     1       0.408  -4.628   3.695  0.00  0.00    +0.238 C 
ATOM     25  O   UNL     1      -0.092  -5.316   2.831  0.00  0.00    -0.273 OA
ATOM     26  H   UNL     1       0.039  -3.245   5.115  0.00  0.00    +0.149 HD
BRANCH  23  27
ATOM     27  C   UNL     1      -1.803  -3.721   4.171  0.00  0.00    +0.104 C 
BRANCH  27  28
ATOM     28  C   UNL     1      -2.437  -2.708   5.127  0.00  0.00    +0.018 C 
BRANCH  28  30
ATOM     29  C   UNL     1      -4.575  -1.618   5.819  0.00  0.00    +0.004 C 
ATOM     30  C   UNL     1      -3.942  -2.631   4.863  0.00  0.00    -0.002 C 
ENDBRANCH  28  30
ENDBRANCH  27  28
ENDBRANCH  23  27
ENDBRANCH  14  24
ENDBRANCH   1  14
BRANCH   1  31
ATOM     31  C   UNL     1       1.416  -7.101   3.266  0.00  0.00    +0.183 C 
BRANCH  31  32
ATOM     32  C   UNL     1       1.454  -7.219   1.764  0.00  0.00    +0.122 A 
ATOM     33  C   UNL     1       2.149  -8.134   1.065  0.00  0.00    +0.046 A 
ATOM     34  C   UNL     1       1.898  -7.880  -0.303  0.00  0.00    +0.041 A 
ATOM     35  C   UNL     1       1.064  -6.826  -0.358  0.00  0.00    +0.195 A 
ATOM     36  O   UNL     1       0.794  -6.433   0.898  0.00  0.00    -0.466 OA
ENDBRANCH  31  32
ENDBRANCH   1  31
TORSDOF 9
