REMARK  Name = ZINC35693320
REMARK  10 active torsions:
REMARK  status: ('A' for Active; 'I' for Inactive)
REMARK    1  A    between atoms: C_1  and  C_2
REMARK    2  A    between atoms: C_3  and  C_27
REMARK    3  A    between atoms: C_4  and  C_20
REMARK    4  A    between atoms: C_7  and  C_12
REMARK    5  A    between atoms: C_13  and  N_15
REMARK    6  A    between atoms: N_15  and  C_16
REMARK    7  A    between atoms: C_16  and  C_17
REMARK    8  A    between atoms: C_17  and  C_18
REMARK    9  A    between atoms: C_17  and  C_19
REMARK   10  A    between atoms: N_29  and  C_30
REMARK                            x       y       z     vdW  Elec       q    Type
REMARK                         _______ _______ _______ _____ _____    ______ ____
ROOT
ATOM      1  C   UNL     1      -1.037   1.386   0.448  0.00  0.00    +0.066 C 
ATOM      2  C   UNL     1      -0.605  -0.036   0.200  0.00  0.00    +0.051 C 
ATOM      3  C   UNL     1      -1.549  -0.998  -0.094  0.00  0.00    +0.060 C 
ATOM      4  C   UNL     1      -1.066  -2.411  -0.336  0.00  0.00    +0.149 C 
ATOM      5  N   UNL     1       0.398  -2.651  -0.237  0.00  0.00    -0.267 N 
ATOM      6  C   UNL     1       1.058  -3.851  -0.417  0.00  0.00    +0.048 C 
ATOM      7  C   UNL     1       2.402  -3.854  -0.283  0.00  0.00    +0.072 C 
ATOM      8  S   UNL     1       2.737  -2.147   0.103  0.00  0.00    -0.060 S 
ATOM      9  C   UNL     1       1.165  -1.561   0.065  0.00  0.00    +0.166 C 
ATOM     10  N   UNL     1       0.679  -0.352   0.259  0.00  0.00    -0.230 NA
ENDROOT
BRANCH   4  11
ATOM     11  C   UNL     1      -1.512  -2.824  -1.715  0.00  0.00    -0.004 A 
ATOM     12  C   UNL     1      -2.548  -3.726  -1.865  0.00  0.00    +0.007 A 
ATOM     13  C   UNL     1      -2.957  -4.105  -3.130  0.00  0.00    +0.000 A 
ATOM     14  C   UNL     1      -2.329  -3.582  -4.245  0.00  0.00    +0.001 A 
ATOM     15  C   UNL     1      -1.293  -2.680  -4.096  0.00  0.00    +0.020 A 
ATOM     16  C   UNL     1      -0.887  -2.296  -2.830  0.00  0.00    +0.046 A 
ATOM     17 CL   UNL     1       0.410  -1.158  -2.643  0.00  0.00    -0.083 Cl
ENDBRANCH   4  11
BRANCH   3  18
ATOM     18  C   UNL     1      -2.913  -0.677  -0.165  0.00  0.00    +0.244 C 
ATOM     19  O   UNL     1      -3.271   0.486  -0.082  0.00  0.00    -0.270 OA
ATOM     20  N   UNL     1      -3.828  -1.653  -0.325  0.00  0.00    -0.315 N 
ATOM     21  C   UNL     1      -5.234  -1.310  -0.554  0.00  0.00    +0.128 C 
ATOM     22  H   UNL     1      -3.556  -2.584  -0.288  0.00  0.00    +0.149 HD
ENDBRANCH   3  18
BRANCH   6  23
ATOM     23  C   UNL     1       0.323  -5.082  -0.744  0.00  0.00    +0.091 C 
ATOM     24  C   UNL     1       0.970  -6.263  -0.780  0.00  0.00    +0.239 C 
ATOM     25  O   UNL     1       2.317  -6.302  -0.637  0.00  0.00    -0.271 OA
BRANCH  24  26
ATOM     26  N   UNL     1       0.259  -7.436  -0.964  0.00  0.00    -0.312 N 
ATOM     27  H   UNL     1      -0.706  -7.408  -1.066  0.00  0.00    +0.149 HD
BRANCH  26  28
ATOM     28  C   UNL     1       0.962  -8.721  -1.003  0.00  0.00    +0.107 C 
BRANCH  28  29
ATOM     29  C   UNL     1      -0.049  -9.850  -1.214  0.00  0.00    -0.000 C 
ATOM     30  C   UNL     1       0.696 -11.176  -1.380  0.00  0.00    +0.009 C 
ATOM     31  C   UNL     1      -0.979  -9.935  -0.003  0.00  0.00    +0.009 C 
ENDBRANCH  28  29
ENDBRANCH  26  28
ENDBRANCH  24  26
ENDBRANCH   6  23
TORSDOF 6
