REMARK  Name = ZINC15743649
REMARK  5 active torsions:
REMARK  status: ('A' for Active; 'I' for Inactive)
REMARK    1  A    between atoms: C_4  and  C_16
REMARK    2  A    between atoms: C_6  and  S_7
REMARK    3  A    between atoms: S_7  and  N_10
REMARK    4  A    between atoms: N_18  and  N_19
REMARK    5  A    between atoms: C_20  and  C_22
REMARK                            x       y       z     vdW  Elec       q    Type
REMARK                         _______ _______ _______ _____ _____    ______ ____
ROOT
ATOM      1  C   UNL     1       6.266   0.210  -2.735  0.00  0.00    +0.262 C 
ATOM      2  O   UNL     1       6.652  -0.061  -3.856  0.00  0.00    -0.269 OA
ATOM      3  N   UNL     1       6.714   1.322  -2.119  0.00  0.00    -0.230 N 
ATOM      4  H   UNL     1       6.406   1.538  -1.225  0.00  0.00    +0.173 HD
ENDROOT
BRANCH   1   8
ATOM      5  C   UNL     1       3.511  -2.351  -0.760  0.00  0.00    +0.030 A 
ATOM      6  C   UNL     1       3.943  -2.660  -2.038  0.00  0.00    +0.022 A 
ATOM      7  C   UNL     1       4.841  -1.834  -2.685  0.00  0.00    +0.053 A 
ATOM      8  C   UNL     1       5.307  -0.680  -2.049  0.00  0.00    +0.058 A 
ATOM      9  C   UNL     1       4.861  -0.372  -0.763  0.00  0.00    +0.043 A 
ATOM     10  C   UNL     1       3.965  -1.207  -0.128  0.00  0.00    +0.106 A 
ATOM     11 CL   UNL     1       5.387  -2.227  -4.285  0.00  0.00    -0.083 Cl
BRANCH  10  12
ATOM     12  S   UNL     1       3.402  -0.819   1.496  0.00  0.00    +0.061 S 
ATOM     13  O   UNL     1       4.396   0.010   2.083  0.00  0.00    -0.153 OA
ATOM     14  O   UNL     1       2.987  -2.044   2.085  0.00  0.00    -0.153 OA
BRANCH  12  15
ATOM     15  N   UNL     1       2.043   0.113   1.334  0.00  0.00    -0.177 NA
ATOM     16  C   UNL     1       0.714  -0.508   1.262  0.00  0.00    +0.109 C 
ATOM     17  C   UNL     1       0.002  -0.004   0.002  0.00  0.00    +0.017 C 
ATOM     18  C   UNL     1      -0.019   1.526   0.010  0.00  0.00    +0.003 C 
ATOM     19  C   UNL     1       1.417   2.058  -0.000  0.00  0.00    +0.017 C 
ATOM     20  C   UNL     1       2.144   1.577   1.259  0.00  0.00    +0.109 C 
ENDBRANCH  12  15
ENDBRANCH  10  12
ENDBRANCH   1   8
BRANCH   3  21
ATOM     21  N   UNL     1       7.623   2.165  -2.770  0.00  0.00    -0.230 N 
ATOM     22  C   UNL     1       8.071   3.277  -2.154  0.00  0.00    +0.267 C 
ATOM     23  O   UNL     1       7.684   3.549  -1.032  0.00  0.00    -0.268 OA
ATOM     24  H   UNL     1       7.931   1.949  -3.664  0.00  0.00    +0.173 HD
BRANCH  22  25
ATOM     25  C   UNL     1       9.023   4.160  -2.834  0.00  0.00    +0.076 A 
ATOM     26  C   UNL     1       9.598   5.335  -2.385  0.00  0.00    +0.024 A 
ATOM     27  C   UNL     1      10.487   5.991  -3.228  0.00  0.00    -0.036 A 
ATOM     28  C   UNL     1      10.695   5.433  -4.442  0.00  0.00    -0.006 A 
ATOM     29  S   UNL     1       9.749   3.996  -4.457  0.00  0.00    -0.088 S 
ATOM     30  C   UNL     1      11.568   5.979  -5.550  0.00  0.00    +0.043 C 
ATOM     31  C   UNL     1      13.026   5.872  -5.073  0.00  0.00    +0.005 C 
ATOM     32  C   UNL     1      13.350   6.999  -4.121  0.00  0.00    +0.001 C 
ATOM     33  C   UNL     1      12.724   6.921  -2.752  0.00  0.00    +0.005 C 
ATOM     34  C   UNL     1      11.232   7.256  -2.783  0.00  0.00    +0.036 C 
ENDBRANCH  22  25
ENDBRANCH   3  21
TORSDOF 5
