REMARK  Name = ZINC32077955
REMARK  5 active torsions:
REMARK  status: ('A' for Active; 'I' for Inactive)
REMARK    1  A    between atoms: C_12  and  C_16
REMARK    2  A    between atoms: C_19  and  C_21
REMARK    3  A    between atoms: C_21  and  C_32
REMARK    4  A    between atoms: C_22  and  N_23
REMARK    5  A    between atoms: N_23  and  C_24
REMARK                            x       y       z     vdW  Elec       q    Type
REMARK                         _______ _______ _______ _____ _____    ______ ____
ROOT
ATOM      1  C   UNL     1       7.386  -0.008  -0.334  0.00  0.00    +0.086 A 
ATOM      2  C   UNL     1       8.509  -0.754  -0.579  0.00  0.00    +0.075 A 
ATOM      3  S   UNL     1       9.774   0.505  -0.477  0.00  0.00    -0.074 S 
ATOM      4  C   UNL     1       8.690   1.882  -0.123  0.00  0.00    +0.120 A 
ATOM      5  N   UNL     1       7.505   1.291  -0.118  0.00  0.00    -0.238 NA
ENDROOT
BRANCH   1  17
ATOM      6  C   UNL     1      -0.040   1.439   0.029  0.00  0.00    +0.001 A 
ATOM      7  C   UNL     1       1.150   2.160   0.021  0.00  0.00    +0.001 A 
ATOM      8  C   UNL     1       2.356   1.522  -0.003  0.00  0.00    +0.009 A 
ATOM      9  C   UNL     1       2.398   0.125  -0.018  0.00  0.00    -0.007 A 
ATOM     10  C   UNL     1       1.190  -0.613  -0.009  0.00  0.00    -0.017 A 
ATOM     11  C   UNL     1      -0.033   0.076   0.014  0.00  0.00    +0.008 A 
ATOM     12  C   UNL     1       1.235  -2.020  -0.020  0.00  0.00    +0.012 A 
ATOM     13  C   UNL     1       2.420  -2.683  -0.031  0.00  0.00    +0.047 A 
ATOM     14  C   UNL     1       3.642  -2.005  -0.040  0.00  0.00    +0.140 A 
ATOM     15  C   UNL     1       3.666  -0.604  -0.048  0.00  0.00    +0.026 A 
ATOM     16  C   UNL     1       4.899   0.084  -0.079  0.00  0.00    +0.029 A 
ATOM     17  C   UNL     1       6.051  -0.650  -0.319  0.00  0.00    +0.086 A 
ATOM     18  C   UNL     1       5.890  -2.093  -0.557  0.00  0.00    +0.347 A 
ATOM     19  O   UNL     1       6.706  -2.719  -1.210  0.00  0.00    -0.244 OA
ATOM     20  O   UNL     1       4.804  -2.700  -0.026  0.00  0.00    -0.422 OA
ENDBRANCH   1  17
BRANCH   4  21
ATOM     21  C   UNL     1       9.027   3.301   0.099  0.00  0.00    +0.098 C 
ATOM     22  C   UNL     1       8.611   3.931   1.234  0.00  0.00    +0.093 C 
BRANCH  22  23
ATOM     23  N   UNL     1       7.979   3.222   2.216  0.00  0.00    -0.318 N 
ATOM     24  H   UNL     1       7.894   2.259   2.140  0.00  0.00    +0.152 HD
BRANCH  23  25
ATOM     25  C   UNL     1       7.453   3.885   3.329  0.00  0.00    +0.051 A 
ATOM     26  C   UNL     1       7.569   5.265   3.435  0.00  0.00    +0.025 A 
ATOM     27  C   UNL     1       7.048   5.918   4.536  0.00  0.00    +0.003 A 
ATOM     28  C   UNL     1       6.413   5.199   5.532  0.00  0.00    +0.021 A 
ATOM     29  C   UNL     1       6.295   3.824   5.430  0.00  0.00    +0.061 A 
ATOM     30  C   UNL     1       6.809   3.165   4.328  0.00  0.00    +0.080 A 
ATOM     31 CL   UNL     1       6.656   1.441   4.197  0.00  0.00    -0.080 Cl
ATOM     32 CL   UNL     1       5.498   2.926   6.684  0.00  0.00    -0.082 Cl
ENDBRANCH  23  25
ENDBRANCH  22  23
BRANCH  21  33
ATOM     33  C   UNL     1       9.789   4.018  -0.879  0.00  0.00    +0.103 C 
ATOM     34  N   UNL     1      10.394   4.586  -1.654  0.00  0.00    -0.191 NA
ENDBRANCH  21  33
ENDBRANCH   4  21
TORSDOF 5
