REMARK  Name = ZINC08652842
REMARK  6 active torsions:
REMARK  status: ('A' for Active; 'I' for Inactive)
REMARK    1  A    between atoms: C_3  and  C_10
REMARK    2  A    between atoms: C_5  and  N_7
REMARK    3  A    between atoms: C_11  and  C_12
REMARK    4  A    between atoms: C_11  and  N_23
REMARK    5  A    between atoms: C_24  and  C_26
REMARK    6  A    between atoms: C_29  and  N_32
REMARK                            x       y       z     vdW  Elec       q    Type
REMARK                         _______ _______ _______ _____ _____    ______ ____
ROOT
ATOM      1  C   UNL     1       1.306   6.396   0.193  0.00  0.00    +0.035 C 
ATOM      2  C   UNL     1       2.302   5.626  -0.302  0.00  0.00    +0.077 C 
ENDROOT
BRANCH   2   3
ATOM      3  C   UNL     1       3.408   6.245  -1.050  0.00  0.00    +0.154 A 
ATOM      4  N   UNL     1       4.540   5.593  -1.470  0.00  0.00    -0.337 N 
ATOM      5  H   UNL     1       4.757   4.628  -1.326  0.00  0.00    +0.167 HD
ATOM      6  C   UNL     1       5.322   6.520  -2.131  0.00  0.00    +0.068 A 
ATOM      7  C   UNL     1       6.555   6.462  -2.764  0.00  0.00    +0.047 A 
ATOM      8  C   UNL     1       7.080   7.598  -3.345  0.00  0.00    +0.043 A 
ATOM      9  C   UNL     1       6.383   8.799  -3.300  0.00  0.00    +0.022 A 
ATOM     10  C   UNL     1       5.168   8.875  -2.682  0.00  0.00    +0.031 A 
ATOM     11  C   UNL     1       4.615   7.736  -2.085  0.00  0.00    +0.090 A 
ATOM     12  N   UNL     1       3.459   7.503  -1.421  0.00  0.00    -0.226 NA
ATOM     13 CL   UNL     1       8.623   7.527  -4.138  0.00  0.00    -0.083 Cl
ENDBRANCH   2   3
BRANCH   1  16
ATOM     14  C   UNL     1       2.744   9.843   0.532  0.00  0.00    +0.003 A 
ATOM     15  C   UNL     1       2.635   8.468   0.550  0.00  0.00    +0.008 A 
ATOM     16  C   UNL     1       1.431   7.861   0.176  0.00  0.00    -0.021 A 
ATOM     17  C   UNL     1       0.350   8.655  -0.220  0.00  0.00    +0.040 A 
ATOM     18  C   UNL     1       0.473  10.028  -0.228  0.00  0.00    +0.127 A 
ATOM     19  C   UNL     1       1.667  10.621   0.144  0.00  0.00    +0.033 A 
BRANCH  18  20
ATOM     20  N   UNL     1      -0.672  10.870  -0.641  0.00  0.00    +0.056 N 
ATOM     21  O   UNL     1      -0.563  12.083  -0.653  0.00  0.00    -0.126 OA
ATOM     22  O   UNL     1      -1.724  10.350  -0.968  0.00  0.00    -0.126 OA
ENDBRANCH  18  20
ENDBRANCH   1  16
BRANCH   2  23
ATOM     23  N   UNL     1       2.281   4.245  -0.104  0.00  0.00    -0.279 N 
ATOM     24  C   UNL     1       2.308   3.411  -1.163  0.00  0.00    +0.248 C 
ATOM     25  O   UNL     1       2.256   3.861  -2.292  0.00  0.00    -0.270 OA
ATOM     26  H   UNL     1       2.247   3.884   0.796  0.00  0.00    +0.155 HD
BRANCH  24  27
ATOM     27  C   UNL     1       2.403   1.955  -0.953  0.00  0.00    +0.037 A 
ATOM     28  C   UNL     1       2.431   1.089  -2.050  0.00  0.00    +0.015 A 
ATOM     29  C   UNL     1       2.520  -0.270  -1.851  0.00  0.00    +0.023 A 
ATOM     30  C   UNL     1       2.581  -0.783  -0.558  0.00  0.00    +0.025 A 
ATOM     31  C   UNL     1       2.552   0.077   0.537  0.00  0.00    +0.023 A 
ATOM     32  C   UNL     1       2.463   1.436   0.344  0.00  0.00    +0.015 A 
BRANCH  30  33
ATOM     33  N   UNL     1       2.671  -2.156  -0.360  0.00  0.00    -0.358 N 
ATOM     34  H   UNL     1       2.690  -2.756  -1.122  0.00  0.00    +0.142 HD
ATOM     35  H   UNL     1       2.713  -2.514   0.540  0.00  0.00    +0.142 HD
ENDBRANCH  30  33
ENDBRANCH  24  27
ENDBRANCH   2  23
TORSDOF 6
