REMARK  Name = ZINC36309555
REMARK  13 active torsions:
REMARK  status: ('A' for Active; 'I' for Inactive)
REMARK    1  A    between atoms: C_1  and  C_2
REMARK    2  A    between atoms: C_5  and  O_8
REMARK    3  A    between atoms: O_8  and  C_9
REMARK    4  A    between atoms: C_9  and  C_10
REMARK    5  A    between atoms: C_20  and  C_22
REMARK    6  A    between atoms: C_22  and  N_23
REMARK    7  A    between atoms: N_23  and  C_24
REMARK    8  A    between atoms: N_23  and  C_28
REMARK    9  A    between atoms: C_24  and  C_25
REMARK   10  A    between atoms: C_28  and  C_29
REMARK   11  A    between atoms: C_29  and  C_31
REMARK   12  A    between atoms: C_29  and  O_38
REMARK   13  A    between atoms: C_31  and  C_32
REMARK                            x       y       z     vdW  Elec       q    Type
REMARK                         _______ _______ _______ _____ _____    ______ ____
ROOT
ATOM      1  C   UNL     1       0.163  -8.195   1.126  0.00  0.00    +0.144 C 
ATOM      2  C   UNL     1       1.095  -8.884   0.132  0.00  0.00    -0.014 A 
ATOM      3  C   UNL     1       2.358  -9.364   0.475  0.00  0.00    +0.013 A 
ATOM      4  C   UNL     1       3.132  -9.961  -0.460  0.00  0.00    +0.046 A 
ATOM      5  S   UNL     1       2.091  -9.875  -1.909  0.00  0.00    -0.101 S 
ATOM      6  C   UNL     1       0.707  -9.056  -1.161  0.00  0.00    -0.004 A 
ATOM      7  C   UNL     1      -0.584  -8.650  -1.794  0.00  0.00    +0.061 C 
ATOM      8  C   UNL     1      -1.286  -7.637  -0.876  0.00  0.00    +0.113 C 
ATOM      9  N   UNL     1      -1.169  -8.112   0.512  0.00  0.00    -0.292 N 
ATOM     10  C   UNL     1      -2.267  -8.466   1.209  0.00  0.00    +0.200 C 
ATOM     11  O   UNL     1      -2.159  -8.858   2.352  0.00  0.00    -0.278 OA
ENDROOT
BRANCH   1  12
ATOM     12  C   UNL     1       0.681  -6.788   1.433  0.00  0.00    +0.256 C 
BRANCH  12  13
ATOM     13  O   UNL     1       0.859  -6.070   0.211  0.00  0.00    -0.490 OA
BRANCH  13  18
ATOM     14  C   UNL     1       2.757  -0.781   0.608  0.00  0.00    +0.044 C 
ATOM     15  C   UNL     1       2.249  -2.196   0.502  0.00  0.00    -0.050 A 
ATOM     16  C   UNL     1       1.979  -2.741  -0.740  0.00  0.00    +0.007 A 
ATOM     17  C   UNL     1       1.514  -4.038  -0.840  0.00  0.00    +0.046 A 
ATOM     18  C   UNL     1       1.317  -4.794   0.307  0.00  0.00    +0.121 A 
ATOM     19  C   UNL     1       1.590  -4.245   1.552  0.00  0.00    +0.046 A 
ATOM     20  C   UNL     1       2.060  -2.950   1.646  0.00  0.00    +0.007 A 
ENDBRANCH  13  18
ENDBRANCH  12  13
ENDBRANCH   1  12
BRANCH  10  21
ATOM     21  C   UNL     1      -3.628  -8.377   0.568  0.00  0.00    +0.019 C 
BRANCH  21  22
ATOM     22  N   UNL     1      -4.651  -8.816   1.527  0.00  0.00    +0.387 N 
ATOM     23  H   UNL     1      -4.408  -9.728   1.883  0.00  0.00    -0.081 HD
BRANCH  22  24
ATOM     24  C   UNL     1      -4.722  -7.859   2.639  0.00  0.00    -0.075 C 
BRANCH  24  25
ATOM     25  C   UNL     1      -5.716  -8.367   3.686  0.00  0.00    -0.028 C 
ATOM     26  C   UNL     1      -7.013  -7.577   3.870  0.00  0.00    +0.002 C 
ATOM     27  C   UNL     1      -5.920  -7.513   4.939  0.00  0.00    +0.002 C 
ENDBRANCH  24  25
ENDBRANCH  22  24
BRANCH  22  28
ATOM     28  C   UNL     1      -5.955  -8.884   0.854  0.00  0.00    -0.046 C 
BRANCH  28  29
ATOM     29  C   UNL     1      -5.943 -10.023  -0.168  0.00  0.00    +0.102 C 
BRANCH  29  30
ATOM     30  O   UNL     1      -5.092  -9.673  -1.261  0.00  0.00    -0.393 OA
ATOM     31  H   UNL     1      -5.364  -8.872  -1.730  0.00  0.00    +0.210 HD
ENDBRANCH  29  30
BRANCH  29  32
ATOM     32  C   UNL     1      -7.364 -10.261  -0.682  0.00  0.00    +0.064 C 
BRANCH  32  33
ATOM     33  C   UNL     1      -7.373 -11.460  -1.595  0.00  0.00    -0.045 A 
ATOM     34  C   UNL     1      -7.151 -11.300  -2.950  0.00  0.00    +0.004 A 
ATOM     35  C   UNL     1      -7.160 -12.400  -3.787  0.00  0.00    +0.000 A 
ATOM     36  C   UNL     1      -7.390 -13.661  -3.269  0.00  0.00    +0.000 A 
ATOM     37  C   UNL     1      -7.611 -13.822  -1.913  0.00  0.00    +0.000 A 
ATOM     38  C   UNL     1      -7.598 -12.722  -1.076  0.00  0.00    +0.004 A 
ENDBRANCH  32  33
ENDBRANCH  29  32
ENDBRANCH  28  29
ENDBRANCH  22  28
ENDBRANCH  21  22
ENDBRANCH  10  21
TORSDOF 12
