REMARK  Name = ZINC67615549
REMARK  10 active torsions:
REMARK  status: ('A' for Active; 'I' for Inactive)
REMARK    1  A    between atoms: C_1  and  C_2
REMARK    2  A    between atoms: C_2  and  C_4
REMARK    3  A    between atoms: C_2  and  N_11
REMARK    4  A    between atoms: C_8  and  O_10
REMARK    5  A    between atoms: N_11  and  C_12
REMARK    6  A    between atoms: N_15  and  C_16
REMARK    7  A    between atoms: C_16  and  C_18
REMARK    8  A    between atoms: C_16  and  C_19
REMARK    9  A    between atoms: C_25  and  O_28
REMARK   10  A    between atoms: O_28  and  C_29
REMARK                            x       y       z     vdW  Elec       q    Type
REMARK                         _______ _______ _______ _____ _____    ______ ____
ROOT
ATOM      1  N   UNL     1       0.821  -0.440  -1.214  0.00  0.00    -0.282 N 
ATOM      2  C   UNL     1       0.546   0.072  -2.559  0.00  0.00    +0.134 C 
ATOM      3  C   UNL     1       1.830  -1.312  -1.019  0.00  0.00    +0.303 C 
ATOM      4  O   UNL     1       2.059  -1.738   0.097  0.00  0.00    -0.253 OA
ATOM      5  N   UNL     1       2.586  -1.713  -2.061  0.00  0.00    -0.290 N 
ATOM      6  H   UNL     1       2.403  -1.374  -2.951  0.00  0.00    +0.151 HD
ENDROOT
BRANCH   1   8
ATOM      7  C   UNL     1       0.007   1.523  -0.005  0.00  0.00    +0.033 C 
ATOM      8  C   UNL     1       0.000  -0.005  -0.082  0.00  0.00    +0.104 C 
BRANCH   8   9
ATOM      9  C   UNL     1      -1.413  -0.492  -0.269  0.00  0.00    -0.024 A 
ATOM     10  C   UNL     1      -1.653  -1.672  -0.950  0.00  0.00    +0.006 A 
ATOM     11  C   UNL     1      -2.948  -2.122  -1.124  0.00  0.00    +0.004 A 
ATOM     12  C   UNL     1      -4.008  -1.393  -0.617  0.00  0.00    +0.045 A 
ATOM     13  C   UNL     1      -3.770  -0.210   0.067  0.00  0.00    +0.117 A 
ATOM     14  C   UNL     1      -2.468   0.236   0.245  0.00  0.00    +0.050 A 
BRANCH  13  15
ATOM     15  O   UNL     1      -4.810   0.508   0.566  0.00  0.00    -0.507 OA
ATOM     16  H   UNL     1      -5.057   0.267   1.469  0.00  0.00    +0.292 HD
ENDBRANCH  13  15
ENDBRANCH   8   9
ENDBRANCH   1   8
BRANCH   5  17
ATOM     17  C   UNL     1       3.682  -2.661  -1.848  0.00  0.00    +0.137 C 
ATOM     18  C   UNL     1       4.938  -1.900  -1.420  0.00  0.00    +0.036 C 
BRANCH  17  19
ATOM     19  C   UNL     1       3.958  -3.405  -3.130  0.00  0.00    +0.126 A 
ATOM     20  C   UNL     1       4.242  -4.712  -3.212  0.00  0.00    +0.055 A 
ATOM     21  C   UNL     1       4.435  -5.000  -4.639  0.00  0.00    +0.024 A 
ATOM     22  C   UNL     1       4.746  -6.148  -5.369  0.00  0.00    +0.012 A 
ATOM     23  C   UNL     1       4.858  -6.079  -6.729  0.00  0.00    +0.004 A 
ATOM     24  C   UNL     1       4.666  -4.874  -7.390  0.00  0.00    +0.049 A 
ATOM     25  C   UNL     1       4.358  -3.725  -6.686  0.00  0.00    +0.163 A 
ATOM     26  C   UNL     1       4.238  -3.777  -5.298  0.00  0.00    +0.177 A 
ATOM     27  O   UNL     1       3.950  -2.855  -4.356  0.00  0.00    -0.454 OA
BRANCH  25  28
ATOM     28  O   UNL     1       4.171  -2.550  -7.343  0.00  0.00    -0.491 OA
ATOM     29  C   UNL     1       4.309  -2.574  -8.766  0.00  0.00    +0.277 C 
ENDBRANCH  25  28
ENDBRANCH  17  19
ENDBRANCH   5  17
TORSDOF 6
