REMARK  Name = ZINC49233505
REMARK  10 active torsions:
REMARK  status: ('A' for Active; 'I' for Inactive)
REMARK    1  A    between atoms: C_1  and  C_2
REMARK    2  A    between atoms: C_2  and  C_3
REMARK    3  A    between atoms: C_3  and  C_4
REMARK    4  A    between atoms: C_3  and  C_11
REMARK    5  A    between atoms: C_3  and  N_14
REMARK    6  A    between atoms: N_14  and  C_15
REMARK    7  A    between atoms: C_15  and  C_17
REMARK    8  A    between atoms: C_15  and  C_18
REMARK    9  A    between atoms: N_20  and  C_21
REMARK   10  A    between atoms: C_21  and  C_22
REMARK                            x       y       z     vdW  Elec       q    Type
REMARK                         _______ _______ _______ _____ _____    ______ ____
ROOT
ATOM      1  C   UNL     1      -1.877  -0.543   0.155  0.00  0.00    +0.062 C 
ENDROOT
BRANCH   1   2
ATOM      2  C   UNL     1      -2.995   0.434   0.412  0.00  0.00    -0.048 A 
ATOM      3  C   UNL     1      -3.521   1.172  -0.632  0.00  0.00    +0.004 A 
ATOM      4  C   UNL     1      -4.548   2.068  -0.397  0.00  0.00    +0.015 A 
ATOM      5  C   UNL     1      -5.048   2.226   0.883  0.00  0.00    +0.018 A 
ATOM      6  C   UNL     1      -4.521   1.487   1.927  0.00  0.00    +0.015 A 
ATOM      7  C   UNL     1      -3.498   0.588   1.690  0.00  0.00    +0.004 A 
ATOM      8 BR   UNL     1      -6.451   3.451   1.206  0.00  0.00    -0.050 Br
ENDBRANCH   1   2
BRANCH   1   9
ATOM      9  C   UNL     1      -2.322  -1.930   0.540  0.00  0.00    +0.350 C 
ATOM     10  O   UNL     1      -1.943  -2.423   1.588  0.00  0.00    -0.248 OA
ATOM     11  O   UNL     1      -3.063  -2.558  -0.198  0.00  0.00    -0.248 OA
ENDBRANCH   1   9
BRANCH   1  12
ATOM     12  N   UNL     1      -1.524  -0.519  -1.271  0.00  0.00    +0.400 N 
ATOM     13  H   UNL     1      -2.307  -0.850  -1.816  0.00  0.00    -0.083 HD
ATOM     14  H   UNL     1      -1.297   0.424  -1.546  0.00  0.00    -0.083 HD
BRANCH  12  15
ATOM     15  C   UNL     1      -0.364  -1.390  -1.503  0.00  0.00    +0.015 C 
ATOM     16  C   UNL     1      -0.762  -2.847  -1.261  0.00  0.00    -0.004 C 
BRANCH  15  17
ATOM     17  C   UNL     1       0.109  -1.228  -2.925  0.00  0.00    +0.199 C 
ATOM     18  O   UNL     1      -0.464  -0.464  -3.671  0.00  0.00    -0.278 OA
ATOM     19  N   UNL     1       1.169  -1.934  -3.367  0.00  0.00    -0.317 N 
ATOM     20  H   UNL     1       1.628  -2.546  -2.769  0.00  0.00    +0.149 HD
BRANCH  19  21
ATOM     21  C   UNL     1       1.629  -1.777  -4.749  0.00  0.00    +0.101 C 
ATOM     22  C   UNL     1       2.838  -2.683  -4.990  0.00  0.00    +0.024 C 
ENDBRANCH  19  21
ENDBRANCH  15  17
ENDBRANCH  12  15
ENDBRANCH   1  12
BRANCH   1  24
ATOM     23  C   UNL     1      -0.202   1.258   0.598  0.00  0.00    +0.003 C 
ATOM     24  C   UNL     1      -0.655  -0.150   0.988  0.00  0.00    +0.000 C 
ENDBRANCH   1  24
TORSDOF 7
