REMARK  Name = ZINC40038031
REMARK  8 active torsions:
REMARK  status: ('A' for Active; 'I' for Inactive)
REMARK    1  A    between atoms: C_1  and  C_2
REMARK    2  A    between atoms: C_2  and  C_3
REMARK    3  A    between atoms: C_9  and  C_24
REMARK    4  A    between atoms: C_10  and  C_12
REMARK    5  A    between atoms: C_18  and  C_20
REMARK    6  A    between atoms: C_20  and  C_21
REMARK    7  A    between atoms: C_21  and  C_22
REMARK    8  A    between atoms: C_21  and  C_23
REMARK                            x       y       z     vdW  Elec       q    Type
REMARK                         _______ _______ _______ _____ _____    ______ ____
ROOT
ATOM      1  C   UNL     1       5.289  -2.289  -4.741  0.00  0.00    +0.285 C 
ATOM      2  O   UNL     1       6.378  -2.306  -4.199  0.00  0.00    -0.266 OA
ATOM      3  N   UNL     1       5.172  -2.656  -6.032  0.00  0.00    -0.257 N 
ATOM      4  C   UNL     1       6.296  -3.054  -6.746  0.00  0.00    +0.188 A 
ATOM      5  N   UNL     1       7.561  -3.152  -6.360  0.00  0.00    -0.126 NA
ATOM      6  N   UNL     1       8.468  -3.536  -7.147  0.00  0.00    -0.145 NA
ATOM      7  C   UNL     1       8.219  -3.863  -8.400  0.00  0.00    +0.104 A 
ATOM      8  S   UNL     1       6.450  -3.588  -8.448  0.00  0.00    -0.035 S 
ATOM      9  H   UNL     1       4.303  -2.642  -6.464  0.00  0.00    +0.157 HD
ENDROOT
BRANCH   1  17
ATOM     10  C   UNL     1       0.707  -0.490  -1.238  0.00  0.00    -0.047 A 
ATOM     11  C   UNL     1      -0.018  -0.718  -2.399  0.00  0.00    +0.007 A 
ATOM     12  C   UNL     1       0.607  -1.162  -3.544  0.00  0.00    +0.047 A 
ATOM     13  C   UNL     1       1.979  -1.387  -3.542  0.00  0.00    +0.136 A 
ATOM     14  C   UNL     1       2.709  -1.154  -2.362  0.00  0.00    +0.024 A 
ATOM     15  C   UNL     1       2.058  -0.698  -1.213  0.00  0.00    +0.015 A 
ATOM     16  C   UNL     1       4.098  -1.479  -2.685  0.00  0.00    +0.008 A 
ATOM     17  C   UNL     1       4.100  -1.868  -3.986  0.00  0.00    +0.194 A 
ATOM     18  O   UNL     1       2.846  -1.810  -4.481  0.00  0.00    -0.450 OA
ATOM     19  C   UNL     1       5.286  -1.397  -1.761  0.00  0.00    +0.048 C 
BRANCH  10  21
ATOM     20  C   UNL     1      -0.019   1.526   0.010  0.00  0.00    +0.009 C 
ATOM     21  C   UNL     1       0.002  -0.004   0.002  0.00  0.00    +0.032 C 
ENDBRANCH  10  21
ENDBRANCH   1  17
BRANCH   7  22
ATOM     22  C   UNL     1       9.155  -4.338  -9.481  0.00  0.00    +0.068 C 
BRANCH  22  23
ATOM     23  C   UNL     1       9.242  -5.865  -9.445  0.00  0.00    -0.011 C 
ATOM     24  C   UNL     1       7.878  -6.462  -9.799  0.00  0.00    +0.007 C 
ATOM     25  C   UNL     1      10.285  -6.341 -10.459  0.00  0.00    +0.007 C 
ENDBRANCH  22  23
ENDBRANCH   7  22
TORSDOF 4
