REMARK  Name = ZINC20367888
REMARK  9 active torsions:
REMARK  status: ('A' for Active; 'I' for Inactive)
REMARK    1  A    between atoms: C_1  and  C_2
REMARK    2  A    between atoms: C_5  and  N_8
REMARK    3  A    between atoms: N_8  and  C_9
REMARK    4  A    between atoms: C_9  and  C_10
REMARK    5  A    between atoms: C_13  and  S_21
REMARK    6  A    between atoms: N_14  and  C_15
REMARK    7  A    between atoms: S_21  and  C_22
REMARK    8  A    between atoms: C_22  and  C_23
REMARK    9  A    between atoms: C_29  and  C_33
REMARK                            x       y       z     vdW  Elec       q    Type
REMARK                         _______ _______ _______ _____ _____    ______ ____
ROOT
ATOM      1  C   UNL     1       0.946   3.620   0.013  0.00  0.00    +0.156 A 
ATOM      2  N   UNL     1       0.790   4.384  -1.032  0.00  0.00    -0.132 NA
ATOM      3  N   UNL     1       0.546   5.591  -0.664  0.00  0.00    -0.122 NA
ATOM      4  C   UNL     1       0.542   5.668   0.647  0.00  0.00    +0.197 A 
ATOM      5  N   UNL     1       0.798   4.410   1.121  0.00  0.00    -0.273 N 
ENDROOT
BRANCH   5   6
ATOM      6  C   UNL     1       0.889   4.013   2.463  0.00  0.00    +0.050 A 
ATOM      7  C   UNL     1      -0.043   3.130   2.992  0.00  0.00    +0.026 A 
ATOM      8  C   UNL     1       0.053   2.736   4.313  0.00  0.00    +0.002 A 
ATOM      9  C   UNL     1       1.069   3.230   5.111  0.00  0.00    +0.000 A 
ATOM     10  C   UNL     1       1.995   4.114   4.588  0.00  0.00    +0.002 A 
ATOM     11  C   UNL     1       1.907   4.507   3.267  0.00  0.00    +0.026 A 
ENDBRANCH   5   6
BRANCH   1  12
ATOM     12  C   UNL     1       1.242   2.142   0.002  0.00  0.00    +0.178 C 
BRANCH  12  13
ATOM     13  N   UNL     1      -0.017   1.393   0.010  0.00  0.00    -0.337 N 
ATOM     14  H   UNL     1      -0.977   1.929   0.022  0.00  0.00    +0.147 HD
BRANCH  13  19
ATOM     15  C   UNL     1       0.060  -4.278  -0.022  0.00  0.00    +0.044 C 
ATOM     16  C   UNL     1       0.040  -2.771  -0.014  0.00  0.00    -0.050 A 
ATOM     17  C   UNL     1      -1.168  -2.097   0.002  0.00  0.00    +0.005 A 
ATOM     18  C   UNL     1      -1.190  -0.717   0.010  0.00  0.00    +0.023 A 
ATOM     19  C   UNL     1       0.002  -0.004   0.002  0.00  0.00    +0.027 A 
ATOM     20  C   UNL     1       1.213  -0.684  -0.019  0.00  0.00    +0.023 A 
ATOM     21  C   UNL     1       1.229  -2.065  -0.022  0.00  0.00    +0.005 A 
ENDBRANCH  13  19
ENDBRANCH  12  13
ENDBRANCH   1  12
BRANCH   4  22
ATOM     22  S   UNL     1       0.261   7.115   1.611  0.00  0.00    -0.078 S 
BRANCH  22  23
ATOM     23  C   UNL     1       0.007   8.328   0.292  0.00  0.00    +0.151 C 
BRANCH  23  24
ATOM     24  C   UNL     1      -0.258   9.681   0.898  0.00  0.00    +0.118 A 
ATOM     25  N   UNL     1       0.698  10.600   1.202  0.00  0.00    -0.341 N 
ATOM     26  H   UNL     1       1.757  10.377   1.007  0.00  0.00    +0.167 HD
ATOM     27  C   UNL     1       0.055  11.700   1.735  0.00  0.00    +0.066 A 
ATOM     28  C   UNL     1       0.483  12.928   2.221  0.00  0.00    +0.028 A 
ATOM     29  C   UNL     1      -0.441  13.834   2.696  0.00  0.00    +0.005 A 
ATOM     30  C   UNL     1      -1.794  13.526   2.691  0.00  0.00    -0.048 A 
ATOM     31  C   UNL     1      -2.234  12.323   2.216  0.00  0.00    +0.033 A 
ATOM     32  C   UNL     1      -1.315  11.389   1.730  0.00  0.00    +0.089 A 
ATOM     33  N   UNL     1      -1.436  10.144   1.202  0.00  0.00    -0.232 NA
ATOM     34  C   UNL     1      -2.789  14.530   3.214  0.00  0.00    +0.044 C 
ENDBRANCH  23  24
ENDBRANCH  22  23
ENDBRANCH   4  22
TORSDOF 7
