REMARK  Name = ZINC63237034
REMARK  10 active torsions:
REMARK  status: ('A' for Active; 'I' for Inactive)
REMARK    1  A    between atoms: C_1  and  C_2
REMARK    2  A    between atoms: C_2  and  C_3
REMARK    3  A    between atoms: C_2  and  C_4
REMARK    4  A    between atoms: C_4  and  C_5
REMARK    5  A    between atoms: C_5  and  N_6
REMARK    6  A    between atoms: C_15  and  C_18
REMARK    7  A    between atoms: N_20  and  C_21
REMARK    8  A    between atoms: C_21  and  C_22
REMARK    9  A    between atoms: C_22  and  C_24
REMARK   10  A    between atoms: C_22  and  C_31
REMARK                            x       y       z     vdW  Elec       q    Type
REMARK                         _______ _______ _______ _____ _____    ______ ____
ROOT
ATOM      1  C   UNL     1       3.507   0.552   5.677  0.00  0.00    +0.236 C 
ATOM      2  O   UNL     1       2.934   1.486   6.196  0.00  0.00    -0.274 OA
ATOM      3  N   UNL     1       4.827   0.371   5.883  0.00  0.00    -0.313 N 
ATOM      4  H   UNL     1       5.285  -0.376   5.468  0.00  0.00    +0.149 HD
ENDROOT
BRANCH   1  14
ATOM      5  N   UNL     1       0.667  -0.609   3.684  0.00  0.00    -0.232 N 
ATOM      6  C   UNL     1       0.468  -1.880   4.094  0.00  0.00    +0.260 C 
ATOM      7  O   UNL     1      -0.350  -2.593   3.547  0.00  0.00    -0.269 OA
ATOM      8  C   UNL     1       1.276  -2.380   5.229  0.00  0.00    +0.043 A 
ATOM      9  C   UNL     1       0.935  -3.532   5.928  0.00  0.00    +0.013 A 
ATOM     10  C   UNL     1       1.730  -3.946   6.980  0.00  0.00    +0.001 A 
ATOM     11  C   UNL     1       2.854  -3.220   7.332  0.00  0.00    +0.000 A 
ATOM     12  C   UNL     1       3.196  -2.071   6.637  0.00  0.00    +0.006 A 
ATOM     13  C   UNL     1       2.413  -1.649   5.589  0.00  0.00    -0.008 A 
ATOM     14  C   UNL     1       2.743  -0.408   4.802  0.00  0.00    +0.189 C 
ATOM     15  N   UNL     1       1.511   0.230   4.340  0.00  0.00    -0.221 NA
ATOM     16  H   UNL     1       1.040   0.694   5.102  0.00  0.00    +0.146 HD
BRANCH   5  17
ATOM     17  C   UNL     1      -0.042  -0.124   2.497  0.00  0.00    +0.127 C 
BRANCH  17  18
ATOM     18  C   UNL     1       0.742  -0.511   1.242  0.00  0.00    +0.023 C 
BRANCH  18  20
ATOM     19  C   UNL     1      -0.019   1.526   0.010  0.00  0.00    +0.007 C 
ATOM     20  C   UNL     1       0.002  -0.004   0.002  0.00  0.00    -0.016 C 
ATOM     21  C   UNL     1       0.718  -0.497  -1.257  0.00  0.00    +0.007 C 
ENDBRANCH  18  20
ENDBRANCH  17  18
ENDBRANCH   5  17
ENDBRANCH   1  14
BRANCH   3  22
ATOM     22  C   UNL     1       5.569   1.304   6.734  0.00  0.00    +0.116 C 
BRANCH  22  23
ATOM     23  C   UNL     1       7.037   0.876   6.801  0.00  0.00    +0.066 C 
BRANCH  23  24
ATOM     24  C   UNL     1       7.825   1.902   7.574  0.00  0.00    -0.033 C 
ATOM     25  C   UNL     1       8.868   2.634   7.123  0.00  0.00    -0.000 A 
ATOM     26  C   UNL     1       9.557   2.692   5.828  0.00  0.00    +0.010 A 
ATOM     27  C   UNL     1      10.595   3.546   5.675  0.00  0.00    +0.001 A 
ATOM     28  C   UNL     1      11.029   4.373   6.719  0.00  0.00    +0.002 A 
ATOM     29  C   UNL     1      10.447   4.377   7.937  0.00  0.00    +0.026 A 
ATOM     30  C   UNL     1       9.346   3.519   8.210  0.00  0.00    +0.043 A 
ATOM     31  N   UNL     1       8.625   3.341   9.291  0.00  0.00    -0.380 N 
ATOM     32  C   UNL     1       7.604   2.325   9.009  0.00  0.00    +0.145 C 
ATOM     33  H   UNL     1       8.745   3.805  10.134  0.00  0.00    +0.160 HD
ENDBRANCH  23  24
BRANCH  23  34
ATOM     34  C   UNL     1       7.139  -0.460   7.491  0.00  0.00    -0.020 A 
ATOM     35  C   UNL     1       6.684  -0.605   8.788  0.00  0.00    +0.006 A 
ATOM     36  C   UNL     1       6.778  -1.831   9.421  0.00  0.00    +0.000 A 
ATOM     37  C   UNL     1       7.326  -2.912   8.756  0.00  0.00    +0.001 A 
ATOM     38  C   UNL     1       7.781  -2.768   7.459  0.00  0.00    +0.020 A 
ATOM     39  C   UNL     1       7.682  -1.543   6.823  0.00  0.00    +0.045 A 
ATOM     40 CL   UNL     1       8.248  -1.363   5.192  0.00  0.00    -0.083 Cl
ENDBRANCH  23  34
ENDBRANCH  22  23
ENDBRANCH   3  22
TORSDOF 8
