REMARK  Name = ZINC13123053
REMARK  10 active torsions:
REMARK  status: ('A' for Active; 'I' for Inactive)
REMARK    1  A    between atoms: C_1  and  C_2
REMARK    2  A    between atoms: C_2  and  O_3
REMARK    3  A    between atoms: O_3  and  C_4
REMARK    4  A    between atoms: C_4  and  C_6
REMARK    5  A    between atoms: C_10  and  N_11
REMARK    6  A    between atoms: C_12  and  C_14
REMARK    7  A    between atoms: C_14  and  S_15
REMARK    8  A    between atoms: S_15  and  C_16
REMARK    9  A    between atoms: C_19  and  C_22
REMARK   10  A    between atoms: N_20  and  C_21
REMARK                            x       y       z     vdW  Elec       q    Type
REMARK                         _______ _______ _______ _____ _____    ______ ____
ROOT
ATOM      1  N   UNL     1       3.748  -2.391   1.399  0.00  0.00    -0.279 N 
ATOM      2  C   UNL     1       5.064  -2.627   1.571  0.00  0.00    +0.228 C 
ATOM      3  O   UNL     1       5.483  -2.959   2.659  0.00  0.00    -0.275 OA
ATOM      4  H   UNL     1       3.413  -2.125   0.529  0.00  0.00    +0.155 HD
ENDROOT
BRANCH   1   9
ATOM      5  C   UNL     1       1.502  -2.329   2.475  0.00  0.00    +0.091 A 
ATOM      6  C   UNL     1       0.808  -2.547   3.733  0.00  0.00    -0.021 A 
ATOM      7  C   UNL     1       1.613  -2.918   4.752  0.00  0.00    -0.004 A 
ATOM      8  S   UNL     1       3.234  -2.971   4.045  0.00  0.00    -0.077 S 
ATOM      9  C   UNL     1       2.874  -2.528   2.466  0.00  0.00    +0.086 A 
ATOM     10  C   UNL     1       1.204  -3.213   6.161  0.00  0.00    +0.043 C 
ATOM     11  C   UNL     1      -0.216  -2.668   6.375  0.00  0.00    +0.005 C 
ATOM     12  C   UNL     1      -1.101  -3.119   5.210  0.00  0.00    +0.005 C 
ATOM     13  C   UNL     1      -0.692  -2.385   3.931  0.00  0.00    +0.037 C 
BRANCH   5  14
ATOM     14  C   UNL     1       0.781  -1.922   1.267  0.00  0.00    +0.342 C 
ATOM     15  O   UNL     1       0.334  -2.765   0.513  0.00  0.00    -0.245 OA
BRANCH  14  16
ATOM     16  O   UNL     1       0.614  -0.612   0.991  0.00  0.00    -0.461 OA
BRANCH  16  18
ATOM     17  C   UNL     1      -0.187   1.233  -0.348  0.00  0.00    +0.048 C 
ATOM     18  C   UNL     1      -0.099  -0.287  -0.204  0.00  0.00    +0.229 C 
ENDBRANCH  16  18
ENDBRANCH  14  16
ENDBRANCH   5  14
ENDBRANCH   1   9
BRANCH   2  19
ATOM     19  C   UNL     1       6.014  -2.478   0.411  0.00  0.00    +0.173 C 
BRANCH  19  20
ATOM     20  S   UNL     1       7.701  -2.862   0.957  0.00  0.00    -0.077 S 
BRANCH  20  21
ATOM     21  C   UNL     1       8.678  -2.645  -0.492  0.00  0.00    +0.192 A 
ATOM     22  N   UNL     1       8.245  -2.280  -1.677  0.00  0.00    -0.122 NA
ATOM     23  N   UNL     1       9.223  -2.220  -2.507  0.00  0.00    -0.128 NA
ATOM     24  C   UNL     1      10.345  -2.542  -1.903  0.00  0.00    +0.167 A 
ATOM     25  N   UNL     1      10.031  -2.818  -0.592  0.00  0.00    -0.305 N 
ATOM     26  C   UNL     1      10.954  -3.218   0.473  0.00  0.00    +0.153 C 
BRANCH  24  27
ATOM     27  C   UNL     1      11.688  -2.592  -2.514  0.00  0.00    +0.044 A 
ATOM     28  C   UNL     1      12.602  -3.588  -2.384  0.00  0.00    +0.095 A 
ATOM     29  N   UNL     1      13.725  -3.279  -3.095  0.00  0.00    -0.360 N 
ATOM     30  H   UNL     1      14.516  -3.837  -3.154  0.00  0.00    +0.165 HD
ATOM     31  C   UNL     1      13.573  -2.058  -3.717  0.00  0.00    +0.047 A 
ATOM     32  C   UNL     1      12.295  -1.575  -3.389  0.00  0.00    +0.010 A 
ATOM     33  C   UNL     1      11.863  -0.348  -3.890  0.00  0.00    +0.011 A 
ATOM     34  C   UNL     1      12.694   0.385  -4.709  0.00  0.00    +0.001 A 
ATOM     35  C   UNL     1      13.955  -0.093  -5.035  0.00  0.00    +0.002 A 
ATOM     36  C   UNL     1      14.399  -1.300  -4.541  0.00  0.00    +0.026 A 
ENDBRANCH  24  27
ENDBRANCH  20  21
ENDBRANCH  19  20
ENDBRANCH   2  19
TORSDOF 8
