REMARK  Name = ZINC16688577
REMARK  13 active torsions:
REMARK  status: ('A' for Active; 'I' for Inactive)
REMARK    1  A    between atoms: C_1  and  C_2
REMARK    2  A    between atoms: C_2  and  O_3
REMARK    3  A    between atoms: O_3  and  C_4
REMARK    4  A    between atoms: C_6  and  C_21
REMARK    5  A    between atoms: C_9  and  O_10
REMARK    6  A    between atoms: O_10  and  C_11
REMARK    7  A    between atoms: C_11  and  C_12
REMARK    8  A    between atoms: C_21  and  N_52
REMARK    9  A    between atoms: C_22  and  C_23
REMARK   10  A    between atoms: C_22  and  N_52
REMARK   11  A    between atoms: C_23  and  S_24
REMARK   12  A    between atoms: S_24  and  C_25
REMARK   13  A    between atoms: N_29  and  C_30
REMARK                            x       y       z     vdW  Elec       q    Type
REMARK                         _______ _______ _______ _____ _____    ______ ____
ROOT
ATOM      1  C   UNL     1       1.218  -0.680  -0.013  0.00  0.00    +0.164 A 
ATOM      2  C   UNL     1       2.405   0.035  -0.021  0.00  0.00    +0.051 A 
ATOM      3  C   UNL     1       2.380   1.417  -0.013  0.00  0.00    -0.059 A 
ATOM      4  C   UNL     1       1.172   2.090   0.002  0.00  0.00    +0.025 A 
ATOM      5  C   UNL     1      -0.017   1.382   0.010  0.00  0.00    +0.086 A 
ATOM      6  C   UNL     1       0.002  -0.004   0.002  0.00  0.00    +0.181 A 
ATOM      7 CL   UNL     1      -1.532   2.230   0.021  0.00  0.00    -0.080 Cl
ENDROOT
BRANCH   1   8
ATOM      8  O   UNL     1       1.242  -2.040  -0.020  0.00  0.00    -0.489 OA
BRANCH   8  10
ATOM      9  C   UNL     1       2.352  -4.186  -0.042  0.00  0.00    +0.048 C 
ATOM     10  C   UNL     1       2.526  -2.666  -0.036  0.00  0.00    +0.226 C 
ENDBRANCH   8  10
ENDBRANCH   1   8
BRANCH   6  11
ATOM     11  O   UNL     1      -1.166  -0.702   0.010  0.00  0.00    -0.482 OA
BRANCH  11  12
ATOM     12  C   UNL     1      -1.735  -1.028  -1.260  0.00  0.00    +0.266 C 
BRANCH  12  13
ATOM     13  C   UNL     1      -3.016  -1.795  -1.054  0.00  0.00    +0.008 A 
ATOM     14  C   UNL     1      -3.457  -2.073   0.227  0.00  0.00    +0.010 A 
ATOM     15  C   UNL     1      -4.631  -2.776   0.417  0.00  0.00    +0.020 A 
ATOM     16  C   UNL     1      -5.367  -3.202  -0.675  0.00  0.00    +0.042 A 
ATOM     17  C   UNL     1      -4.926  -2.925  -1.956  0.00  0.00    +0.040 A 
ATOM     18  C   UNL     1      -3.753  -2.216  -2.146  0.00  0.00    +0.049 A 
ATOM     19 CL   UNL     1      -3.203  -1.861  -3.753  0.00  0.00    -0.083 Cl
ATOM     20 CL   UNL     1      -6.841  -4.086  -0.436  0.00  0.00    -0.083 Cl
ENDBRANCH  12  13
ENDBRANCH  11  12
ENDBRANCH   6  11
BRANCH   3  21
ATOM     21  C   UNL     1       3.672   2.193  -0.021  0.00  0.00    -0.047 C 
BRANCH  21  22
ATOM     22  N   UNL     1       4.073   2.449  -1.417  0.00  0.00    +0.382 N 
ATOM     23  H   UNL     1       3.338   2.991  -1.887  0.00  0.00    -0.085 HD
ATOM     24  H   UNL     1       4.201   1.553  -1.903  0.00  0.00    -0.085 HD
BRANCH  22  25
ATOM     25  C   UNL     1       5.337   3.208  -1.456  0.00  0.00    -0.071 C 
BRANCH  25  26
ATOM     26  C   UNL     1       5.728   3.458  -2.914  0.00  0.00    +0.058 C 
BRANCH  26  27
ATOM     27  S   UNL     1       7.279   4.390  -2.972  0.00  0.00    -0.086 S 
BRANCH  27  28
ATOM     28  C   UNL     1       7.484   4.533  -4.716  0.00  0.00    +0.209 A 
ATOM     29  N   UNL     1       6.677   4.059  -5.640  0.00  0.00    -0.102 NA
ATOM     30  N   UNL     1       7.121   4.338  -6.812  0.00  0.00    -0.022 NA
ATOM     31  N   UNL     1       8.225   4.999  -6.727  0.00  0.00    -0.043 NA
ATOM     32  N   UNL     1       8.501   5.156  -5.358  0.00  0.00    -0.223 N 
ATOM     33  C   UNL     1       9.645   5.844  -4.754  0.00  0.00    +0.177 C 
ENDBRANCH  27  28
ENDBRANCH  26  27
ENDBRANCH  25  26
ENDBRANCH  22  25
ENDBRANCH  21  22
ENDBRANCH   3  21
TORSDOF 11
