REMARK  Name = ZINC59040386
REMARK  5 active torsions:
REMARK  status: ('A' for Active; 'I' for Inactive)
REMARK    1  A    between atoms: C_6  and  N_7
REMARK    2  A    between atoms: C_8  and  C_10
REMARK    3  A    between atoms: C_10  and  S_11
REMARK    4  A    between atoms: S_11  and  C_12
REMARK    5  A    between atoms: N_17  and  N_18
REMARK                            x       y       z     vdW  Elec       q    Type
REMARK                         _______ _______ _______ _____ _____    ______ ____
ROOT
ATOM      1  C   UNL     1      -3.718  -5.347  -0.452  0.00  0.00    +0.211 A 
ATOM      2  N   UNL     1      -3.957  -6.658  -0.561  0.00  0.00    -0.186 NA
ATOM      3  C   UNL     1      -5.255  -6.868  -0.622  0.00  0.00    +0.232 A 
ATOM      4  N   UNL     1      -5.875  -5.671  -0.551  0.00  0.00    -0.245 N 
ATOM      5  N   UNL     1      -4.862  -4.705  -0.437  0.00  0.00    -0.144 NA
ATOM      6  N   UNL     1      -5.875  -8.099  -0.740  0.00  0.00    -0.205 N 
ATOM      7  H   UNL     1      -6.843  -8.153  -0.777  0.00  0.00    +0.177 HD
ATOM      8  H   UNL     1      -6.831  -5.510  -0.572  0.00  0.00    +0.192 HD
ENDROOT
BRANCH   6   9
ATOM      9  N   UNL     1      -5.105  -9.268  -0.803  0.00  0.00    -0.189 NA
ATOM     10  C   UNL     1      -5.679 -10.407  -0.912  0.00  0.00    +0.037 C 
ATOM     11  C   UNL     1      -7.171 -10.657  -0.990  0.00  0.00    +0.052 C 
ATOM     12  C   UNL     1      -7.364 -12.183  -1.104  0.00  0.00    +0.006 C 
ATOM     13  C   UNL     1      -6.061 -12.765  -0.498  0.00  0.00    +0.006 C 
ATOM     14  C   UNL     1      -4.990 -11.758  -0.993  0.00  0.00    +0.052 C 
ENDBRANCH   6   9
BRANCH   1  15
ATOM     15  S   UNL     1      -2.125  -4.603  -0.338  0.00  0.00    -0.075 S 
BRANCH  15  16
ATOM     16  C   UNL     1      -2.478  -2.828  -0.205  0.00  0.00    +0.173 C 
BRANCH  16  18
ATOM     17  N   UNL     1      -1.199  -0.722   0.010  0.00  0.00    -0.285 N 
ATOM     18  C   UNL     1      -1.183  -2.065  -0.100  0.00  0.00    +0.227 C 
ATOM     19  O   UNL     1      -0.126  -2.659  -0.113  0.00  0.00    -0.275 OA
ATOM     20  H   UNL     1      -2.044  -0.253   0.097  0.00  0.00    +0.155 HD
BRANCH  17  26
ATOM     21  C   UNL     1       1.072  -0.453  -0.766  0.00  0.00    +0.024 A 
ATOM     22  C   UNL     1       2.256   0.258  -0.777  0.00  0.00    +0.016 A 
ATOM     23  C   UNL     1       2.377   1.416  -0.030  0.00  0.00    +0.013 A 
ATOM     24  C   UNL     1       1.312   1.866   0.730  0.00  0.00    +0.016 A 
ATOM     25  C   UNL     1       0.126   1.159   0.745  0.00  0.00    +0.024 A 
ATOM     26  C   UNL     1       0.002  -0.004  -0.004  0.00  0.00    +0.033 A 
ATOM     27  I   UNL     1       4.175   2.490  -0.050  0.00  0.00    -0.044 I 
ENDBRANCH  17  26
ENDBRANCH  16  18
ENDBRANCH  15  16
ENDBRANCH   1  15
TORSDOF 5
