REMARK  Name = ZINC20573324
REMARK  3 active torsions:
REMARK  status: ('A' for Active; 'I' for Inactive)
REMARK    1  A    between atoms: C_6  and  C_7
REMARK    2  A    between atoms: N_9  and  C_10
REMARK    3  A    between atoms: C_10  and  C_11
REMARK                            x       y       z     vdW  Elec       q    Type
REMARK                         _______ _______ _______ _____ _____    ______ ____
ROOT
ATOM      1  C   UNL     1      -2.203  -4.341   0.001  0.00  0.00    +0.233 C 
ATOM      2  O   UNL     1      -1.053  -4.727  -0.013  0.00  0.00    -0.274 OA
ATOM      3  N   UNL     1      -3.213  -5.233   0.006  0.00  0.00    -0.300 N 
ATOM      4  C   UNL     1      -4.611  -4.780   0.016  0.00  0.00    +0.110 C 
ATOM      5  C   UNL     1      -5.336  -5.448   1.189  0.00  0.00    +0.047 C 
ATOM      6  C   UNL     1      -5.165  -6.965   1.093  0.00  0.00    +0.064 C 
ATOM      7  C   UNL     1      -3.681  -7.324   1.174  0.00  0.00    +0.047 C 
ATOM      8  C   UNL     1      -2.937  -6.676  -0.005  0.00  0.00    +0.110 C 
ATOM      9  C   UNL     1      -5.912  -7.632   2.216  0.00  0.00    +0.057 A 
ATOM     10  C   UNL     1      -7.101  -8.258   2.057  0.00  0.00    +0.039 A 
ATOM     11  N   UNL     1      -7.478  -8.736   3.243  0.00  0.00    -0.349 N 
ATOM     12  C   UNL     1      -6.571  -8.431   4.136  0.00  0.00    +0.171 A 
ATOM     13  N   UNL     1      -5.577  -7.739   3.529  0.00  0.00    -0.348 N 
ATOM     14  H   UNL     1      -4.778  -7.388   3.951  0.00  0.00    +0.166 HD
ATOM     15  C   UNL     1      -7.811  -8.350   0.729  0.00  0.00    +0.070 C 
ATOM     16  C   UNL     1      -7.182  -7.316  -0.215  0.00  0.00    +0.088 C 
ATOM     17  N   UNL     1      -5.718  -7.442  -0.184  0.00  0.00    -0.305 NA
ATOM     18  H   UNL     1      -5.297  -6.959  -0.964  0.00  0.00    +0.123 HD
ATOM     19  H   UNL     1      -8.294  -9.230   3.417  0.00  0.00    +0.166 HD
ENDROOT
BRANCH   1  20
ATOM     20  C   UNL     1      -2.501  -2.864   0.011  0.00  0.00    +0.200 C 
BRANCH  20  23
ATOM     21  C   UNL     1      -1.266  -0.763   0.011  0.00  0.00    +0.244 C 
ATOM     22  O   UNL     1      -2.328  -0.172   0.024  0.00  0.00    -0.270 OA
ATOM     23  N   UNL     1      -1.244  -2.111   0.003  0.00  0.00    -0.303 N 
ATOM     24  H   UNL     1      -0.397  -2.583  -0.008  0.00  0.00    +0.150 HD
BRANCH  21  30
ATOM     25  C   UNL     1      -0.017   1.392   0.010  0.00  0.00    +0.014 A 
ATOM     26  C   UNL     1       1.170   2.095   0.002  0.00  0.00    +0.016 A 
ATOM     27  C   UNL     1       2.378   1.419  -0.013  0.00  0.00    +0.018 A 
ATOM     28  C   UNL     1       2.403   0.034  -0.021  0.00  0.00    +0.016 A 
ATOM     29  C   UNL     1       1.224  -0.680  -0.014  0.00  0.00    +0.014 A 
ATOM     30  C   UNL     1       0.002  -0.004   0.002  0.00  0.00    +0.037 A 
ATOM     31 BR   UNL     1       4.000   2.390  -0.024  0.00  0.00    -0.050 Br
ENDBRANCH  21  30
ENDBRANCH  20  23
ENDBRANCH   1  20
TORSDOF 3
