REMARK  Name = ZINC16464328
REMARK  7 active torsions:
REMARK  status: ('A' for Active; 'I' for Inactive)
REMARK    1  A    between atoms: C_1  and  C_2
REMARK    2  A    between atoms: C_2  and  C_4
REMARK    3  A    between atoms: C_2  and  N_14
REMARK    4  A    between atoms: C_15  and  C_17
REMARK    5  A    between atoms: C_17  and  N_18
REMARK    6  A    between atoms: C_21  and  C_25
REMARK    7  A    between atoms: C_21  and  C_26
REMARK                            x       y       z     vdW  Elec       q    Type
REMARK                         _______ _______ _______ _____ _____    ______ ____
ROOT
ATOM      1  C   UNL     1      -5.769   2.552   1.822  0.00  0.00    +0.213 C 
ENDROOT
BRANCH   1   2
ATOM      2  N   UNL     1      -6.854   3.362   2.384  0.00  0.00    -0.215 N 
ATOM      3  C   UNL     1      -6.881   3.814   3.653  0.00  0.00    +0.251 C 
ATOM      4  O   UNL     1      -6.045   3.636   4.513  0.00  0.00    -0.272 OA
ATOM      5  C   UNL     1      -8.174   4.596   3.781  0.00  0.00    +0.135 C 
ATOM      6  N   UNL     1      -8.785   4.475   2.446  0.00  0.00    -0.281 N 
ATOM      7  C   UNL     1      -7.941   3.738   1.702  0.00  0.00    +0.310 C 
ATOM      8  O   UNL     1      -8.144   3.446   0.539  0.00  0.00    -0.252 OA
ATOM      9  C   UNL     1      -9.075   3.966   4.845  0.00  0.00    +0.047 C 
ATOM     10  H   UNL     1      -9.632   4.852   2.160  0.00  0.00    +0.152 HD
BRANCH   5  11
ATOM     11  C   UNL     1      -7.899   6.040   4.109  0.00  0.00    -0.013 A 
ATOM     12  C   UNL     1      -6.825   6.373   4.914  0.00  0.00    +0.009 A 
ATOM     13  C   UNL     1      -6.568   7.698   5.213  0.00  0.00    +0.041 A 
ATOM     14  C   UNL     1      -7.392   8.692   4.714  0.00  0.00    +0.158 A 
ATOM     15  C   UNL     1      -8.472   8.358   3.912  0.00  0.00    +0.159 A 
ATOM     16  C   UNL     1      -8.723   7.031   3.610  0.00  0.00    +0.047 A 
ATOM     17  F   UNL     1      -9.278   9.327   3.424  0.00  0.00    -0.202 F 
ATOM     18  F   UNL     1      -7.144   9.987   5.010  0.00  0.00    -0.202 F 
ENDBRANCH   5  11
ENDBRANCH   1   2
BRANCH   1  20
ATOM     19  N   UNL     1      -3.632   2.931   0.637  0.00  0.00    -0.307 N 
ATOM     20  C   UNL     1      -4.728   3.458   1.216  0.00  0.00    +0.231 C 
ATOM     21  O   UNL     1      -4.878   4.661   1.250  0.00  0.00    -0.274 OA
ATOM     22  H   UNL     1      -3.512   1.968   0.610  0.00  0.00    +0.149 HD
BRANCH  19  24
ATOM     23  C   UNL     1      -3.025   4.168  -1.384  0.00  0.00    +0.033 C 
ATOM     24  C   UNL     1      -2.620   3.811   0.048  0.00  0.00    +0.101 C 
BRANCH  24  25
ATOM     25  C   UNL     1      -1.288   3.106   0.032  0.00  0.00    -0.020 A 
ATOM     26  C   UNL     1      -1.234   1.746   0.017  0.00  0.00    +0.006 A 
ATOM     27  C   UNL     1      -0.013   1.076   0.008  0.00  0.00    +0.001 A 
ATOM     28  C   UNL     1       1.163   1.762   0.000  0.00  0.00    +0.008 A 
ATOM     29  C   UNL     1       1.147   3.167   0.008  0.00  0.00    -0.018 A 
ATOM     30  C   UNL     1      -0.095   3.848   0.024  0.00  0.00    -0.013 A 
ATOM     31  C   UNL     1      -0.111   5.254   0.031  0.00  0.00    +0.009 A 
ATOM     32  C   UNL     1       1.064   5.940   0.023  0.00  0.00    +0.001 A 
ATOM     33  C   UNL     1       2.287   5.270   0.008  0.00  0.00    +0.001 A 
ATOM     34  C   UNL     1       2.340   3.910   0.000  0.00  0.00    +0.008 A 
ENDBRANCH  24  25
ENDBRANCH  19  24
ENDBRANCH   1  20
TORSDOF 5
