REMARK  Name = ZINC40080905
REMARK  20 active torsions:
REMARK  status: ('A' for Active; 'I' for Inactive)
REMARK    1  A    between atoms: C_1  and  C_2
REMARK    2  A    between atoms: C_2  and  C_3
REMARK    3  A    between atoms: C_2  and  C_4
REMARK    4  A    between atoms: C_4  and  O_5
REMARK    5  A    between atoms: O_5  and  C_6
REMARK    6  A    between atoms: C_9  and  C_12
REMARK    7  A    between atoms: C_12  and  C_14
REMARK    8  A    between atoms: N_18  and  C_36
REMARK    9  A    between atoms: C_19  and  C_21
REMARK   10  A    between atoms: C_23  and  C_32
REMARK   11  A    between atoms: C_24  and  O_31
REMARK   12  A    between atoms: C_25  and  C_27
REMARK   13  A    between atoms: C_27  and  C_28
REMARK   14  A    between atoms: C_27  and  C_29
REMARK   15  A    between atoms: C_27  and  C_30
REMARK   16  A    between atoms: C_32  and  C_33
REMARK   17  A    between atoms: C_32  and  C_34
REMARK   18  A    between atoms: C_32  and  C_35
REMARK   19  A    between atoms: C_36  and  C_37
REMARK   20  A    between atoms: C_37  and  O_38
REMARK                            x       y       z     vdW  Elec       q    Type
REMARK                         _______ _______ _______ _____ _____    ______ ____
ROOT
ATOM      1  C   UNL     1       7.178  -0.751  -5.533  0.00  0.00    +0.076 C 
ATOM      2  C   UNL     1       8.185  -0.560  -6.417  0.00  0.00    +0.249 C 
ATOM      3  C   UNL     1       9.383  -0.087  -5.692  0.00  0.00    +0.288 C 
ATOM      4  O   UNL     1      10.452   0.174  -6.208  0.00  0.00    -0.266 OA
ATOM      5  N   UNL     1       9.116   0.011  -4.378  0.00  0.00    -0.281 N 
ATOM      6  C   UNL     1       7.719  -0.388  -4.170  0.00  0.00    +0.145 C 
ATOM      7  O   UNL     1       8.107  -0.769  -7.751  0.00  0.00    -0.282 OA
ENDROOT
BRANCH   6   8
ATOM      8  C   UNL     1       6.930   0.757  -3.589  0.00  0.00    -0.022 A 
ATOM      9  C   UNL     1       6.840   1.953  -4.277  0.00  0.00    +0.013 A 
ATOM     10  C   UNL     1       6.118   3.004  -3.746  0.00  0.00    +0.000 A 
ATOM     11  C   UNL     1       5.483   2.860  -2.521  0.00  0.00    +0.124 A 
ATOM     12  C   UNL     1       5.575   1.659  -1.832  0.00  0.00    +0.000 A 
ATOM     13  C   UNL     1       6.294   0.609  -2.370  0.00  0.00    +0.013 A 
BRANCH  12  14
ATOM     14  C   UNL     1       4.887   1.498  -0.501  0.00  0.00    -0.009 C 
ATOM     15  C   UNL     1       5.134   0.086   0.033  0.00  0.00    +0.015 C 
ATOM     16  C   UNL     1       5.445   2.522   0.489  0.00  0.00    +0.015 C 
ATOM     17  C   UNL     1       3.384   1.722  -0.674  0.00  0.00    +0.015 C 
ENDBRANCH  12  14
BRANCH  10  18
ATOM     18  C   UNL     1       6.021   4.308  -4.496  0.00  0.00    -0.009 C 
ATOM     19  C   UNL     1       6.804   4.202  -5.806  0.00  0.00    +0.015 C 
ATOM     20  C   UNL     1       4.553   4.611  -4.803  0.00  0.00    +0.015 C 
ATOM     21  C   UNL     1       6.606   5.433  -3.641  0.00  0.00    +0.015 C 
ENDBRANCH  10  18
BRANCH  11  22
ATOM     22  O   UNL     1       4.773   3.892  -1.996  0.00  0.00    -0.506 OA
ATOM     23  H   UNL     1       3.841   3.901  -2.254  0.00  0.00    +0.292 HD
ENDBRANCH  11  22
ENDBRANCH   6   8
BRANCH   1  24
ATOM     24  C   UNL     1       5.821  -1.216  -5.841  0.00  0.00    +0.195 C 
ATOM     25  O   UNL     1       5.080  -0.526  -6.516  0.00  0.00    -0.287 OA
BRANCH  24  29
ATOM     26  C   UNL     1       4.479  -4.968  -4.374  0.00  0.00    +0.121 A 
ATOM     27  C   UNL     1       3.605  -4.145  -5.076  0.00  0.00    +0.046 A 
ATOM     28  C   UNL     1       4.036  -2.928  -5.553  0.00  0.00    +0.015 A 
ATOM     29  C   UNL     1       5.354  -2.520  -5.330  0.00  0.00    +0.022 A 
ATOM     30  C   UNL     1       6.230  -3.350  -4.624  0.00  0.00    +0.015 A 
ATOM     31  C   UNL     1       5.789  -4.564  -4.146  0.00  0.00    +0.046 A 
BRANCH  26  32
ATOM     32  O   UNL     1       4.050  -6.168  -3.905  0.00  0.00    -0.492 OA
BRANCH  32  33
ATOM     33  C   UNL     1       2.691  -6.521  -4.175  0.00  0.00    +0.232 C 
BRANCH  33  35
ATOM     34  C   UNL     1       2.497  -7.819  -2.049  0.00  0.00    +0.010 C 
ATOM     35  C   UNL     1       2.393  -7.896  -3.573  0.00  0.00    +0.020 C 
ATOM     36  C   UNL     1       0.980  -8.329  -3.967  0.00  0.00    +0.010 C 
ENDBRANCH  33  35
ENDBRANCH  32  33
ENDBRANCH  26  32
ENDBRANCH  24  29
ENDBRANCH   1  24
BRANCH   5  37
ATOM     37  C   UNL     1      10.052   0.446  -3.338  0.00  0.00    +0.137 C 
BRANCH  37  38
ATOM     38  C   UNL     1      10.090   1.975  -3.293  0.00  0.00    +0.175 C 
BRANCH  38  39
ATOM     39  O   UNL     1       8.848   2.468  -2.787  0.00  0.00    -0.393 OA
ATOM     40  H   UNL     1       8.801   3.433  -2.731  0.00  0.00    +0.209 HD
ENDBRANCH  38  39
ENDBRANCH  37  38
ENDBRANCH   5  37
TORSDOF 12
