REMARK  Name = ZINC33936877
REMARK  8 active torsions:
REMARK  status: ('A' for Active; 'I' for Inactive)
REMARK    1  A    between atoms: C_1  and  C_2
REMARK    2  A    between atoms: C_12  and  C_14
REMARK    3  A    between atoms: C_14  and  C_16
REMARK    4  A    between atoms: C_14  and  N_29
REMARK    5  A    between atoms: N_20  and  C_21
REMARK    6  A    between atoms: C_21  and  C_22
REMARK    7  A    between atoms: C_22  and  C_23
REMARK    8  A    between atoms: C_33  and  C_36
REMARK                            x       y       z     vdW  Elec       q    Type
REMARK                         _______ _______ _______ _____ _____    ______ ____
ROOT
ATOM      1  C   UNL     1       0.085  -2.864   4.922  0.00  0.00    +0.039 C 
ENDROOT
BRANCH   1  13
ATOM      2  C   UNL     1      -0.018   1.503   0.010  0.00  0.00    +0.046 C 
ATOM      3  C   UNL     1       0.002  -0.004   0.002  0.00  0.00    -0.026 A 
ATOM      4  C   UNL     1       0.006  -0.689  -1.194  0.00  0.00    +0.005 A 
ATOM      5  C   UNL     1       0.024  -2.077  -1.215  0.00  0.00    +0.001 A 
ATOM      6  C   UNL     1       0.039  -2.790  -0.050  0.00  0.00    +0.010 A 
ATOM      7  C   UNL     1       0.036  -2.116   1.175  0.00  0.00    -0.001 A 
ATOM      8  C   UNL     1       0.023  -0.709   1.201  0.00  0.00    +0.052 A 
ATOM      9  N   UNL     1       0.025  -0.049   2.412  0.00  0.00    -0.322 N 
ATOM     10  H   UNL     1       0.012   0.921   2.428  0.00  0.00    +0.169 HD
ATOM     11  C   UNL     1       0.044  -0.730   3.570  0.00  0.00    +0.251 A 
ATOM     12  O   UNL     1       0.045  -0.114   4.622  0.00  0.00    -0.268 OA
ATOM     13  C   UNL     1       0.064  -2.141   3.600  0.00  0.00    +0.011 A 
ATOM     14  C   UNL     1       0.052  -2.849   2.443  0.00  0.00    +0.017 A 
ENDBRANCH   1  13
BRANCH   1  15
ATOM     15  N   UNL     1       1.220  -2.387   5.723  0.00  0.00    +0.389 N 
ATOM     16  C   UNL     1       2.470  -2.641   4.997  0.00  0.00    -0.077 C 
ATOM     17  C   UNL     1       3.650  -2.073   5.790  0.00  0.00    -0.018 C 
ATOM     18  C   UNL     1       3.708  -2.750   7.162  0.00  0.00    -0.001 C 
ATOM     19  C   UNL     1       2.372  -2.542   7.880  0.00  0.00    -0.031 C 
ATOM     20  C   UNL     1       1.240  -3.092   7.010  0.00  0.00    -0.074 C 
ATOM     21  C   UNL     1       2.391  -3.279   9.221  0.00  0.00    +0.005 C 
ATOM     22  H   UNL     1       1.123  -1.396   5.885  0.00  0.00    -0.080 HD
ENDBRANCH   1  15
BRANCH   1  23
ATOM     23  C   UNL     1      -1.200  -2.596   5.662  0.00  0.00    +0.142 A 
ATOM     24  N   UNL     1      -1.534  -1.486   6.274  0.00  0.00    -0.115 NA
ATOM     25  N   UNL     1      -2.706  -1.649   6.783  0.00  0.00    -0.023 NA
ATOM     26  N   UNL     1      -3.128  -2.835   6.513  0.00  0.00    -0.044 NA
ATOM     27  N   UNL     1      -2.230  -3.448   5.818  0.00  0.00    -0.230 N 
BRANCH  27  28
ATOM     28  C   UNL     1      -2.315  -4.816   5.300  0.00  0.00    +0.152 C 
BRANCH  28  29
ATOM     29  C   UNL     1      -1.748  -5.789   6.335  0.00  0.00    +0.058 C 
BRANCH  29  30
ATOM     30  C   UNL     1      -1.835  -7.196   5.802  0.00  0.00    -0.046 A 
ATOM     31  C   UNL     1      -2.965  -7.956   6.038  0.00  0.00    +0.004 A 
ATOM     32  C   UNL     1      -3.045  -9.247   5.549  0.00  0.00    +0.000 A 
ATOM     33  C   UNL     1      -1.995  -9.777   4.824  0.00  0.00    +0.000 A 
ATOM     34  C   UNL     1      -0.865  -9.017   4.587  0.00  0.00    +0.000 A 
ATOM     35  C   UNL     1      -0.787  -7.725   5.072  0.00  0.00    +0.004 A 
ENDBRANCH  29  30
ENDBRANCH  28  29
ENDBRANCH  27  28
ENDBRANCH   1  23
TORSDOF 6
