REMARK  Name = ZINC50358447
REMARK  10 active torsions:
REMARK  status: ('A' for Active; 'I' for Inactive)
REMARK    1  A    between atoms: C_1  and  C_2
REMARK    2  A    between atoms: C_2  and  N_3
REMARK    3  A    between atoms: N_3  and  C_4
REMARK    4  A    between atoms: N_3  and  C_6
REMARK    5  A    between atoms: C_4  and  C_5
REMARK    6  A    between atoms: C_6  and  C_7
REMARK    7  A    between atoms: C_7  and  C_8
REMARK    8  A    between atoms: C_8  and  N_9
REMARK    9  A    between atoms: N_9  and  C_10
REMARK   10  A    between atoms: C_10  and  C_11
REMARK                            x       y       z     vdW  Elec       q    Type
REMARK                         _______ _______ _______ _____ _____    ______ ____
ROOT
ATOM      1  N   UNL     1       2.354  -4.537   3.684  0.00  0.00    +0.384 N 
ATOM      2  H   UNL     1       3.250  -4.090   3.815  0.00  0.00    -0.085 HD
ATOM      3  H   UNL     1       1.749  -4.308   4.459  0.00  0.00    -0.085 HD
ENDROOT
BRANCH   1   4
ATOM      4  C   UNL     1       1.748  -4.062   2.433  0.00  0.00    -0.084 C 
BRANCH   4   5
ATOM      5  C   UNL     1       1.558  -2.546   2.502  0.00  0.00    -0.038 C 
BRANCH   5   6
ATOM      6  C   UNL     1       0.926  -2.051   1.199  0.00  0.00    -0.081 C 
BRANCH   6   7
ATOM      7  N   UNL     1       0.643  -0.614   1.306  0.00  0.00    +0.379 N 
ATOM      8  H   UNL     1       0.074  -0.444   2.122  0.00  0.00    -0.082 HD
BRANCH   7  10
ATOM      9  C   UNL     1       1.607   1.609   1.663  0.00  0.00    -0.017 C 
ATOM     10  C   UNL     1       1.905   0.127   1.426  0.00  0.00    -0.082 C 
ENDBRANCH   7  10
BRANCH   7  11
ATOM     11  C   UNL     1      -0.076  -0.166   0.106  0.00  0.00    -0.082 C 
ATOM     12  C   UNL     1      -1.460  -0.817   0.068  0.00  0.00    -0.017 C 
ENDBRANCH   7  11
ENDBRANCH   6   7
ENDBRANCH   5   6
ENDBRANCH   4   5
ENDBRANCH   1   4
BRANCH   1  13
ATOM     13  C   UNL     1       2.537  -5.993   3.618  0.00  0.00    -0.007 C 
BRANCH  13  14
ATOM     14  C   UNL     1       3.159  -6.479   4.902  0.00  0.00    +0.091 A 
ATOM     15  C   UNL     1       2.489  -6.883   5.997  0.00  0.00    +0.059 A 
ATOM     16  C   UNL     1       3.459  -7.253   6.957  0.00  0.00    +0.070 A 
ATOM     17  C   UNL     1       4.664  -7.053   6.391  0.00  0.00    +0.184 A 
ATOM     18  O   UNL     1       4.476  -6.589   5.145  0.00  0.00    -0.454 OA
ATOM     19 BR   UNL     1       6.338  -7.377   7.210  0.00  0.00    -0.007 Br
ATOM     20 BR   UNL     1       3.126  -7.903   8.702  0.00  0.00    -0.046 Br
ENDBRANCH  13  14
ENDBRANCH   1  13
TORSDOF 8
