REMARK  Name = ZINC33626390
REMARK  9 active torsions:
REMARK  status: ('A' for Active; 'I' for Inactive)
REMARK    1  A    between atoms: C_1  and  C_2
REMARK    2  A    between atoms: C_2  and  C_3
REMARK    3  A    between atoms: C_7  and  C_36
REMARK    4  A    between atoms: C_8  and  N_9
REMARK    5  A    between atoms: C_14  and  C_27
REMARK    6  A    between atoms: C_17  and  C_22
REMARK    7  A    between atoms: C_17  and  C_24
REMARK    8  A    between atoms: C_22  and  O_23
REMARK    9  A    between atoms: C_36  and  C_37
REMARK                            x       y       z     vdW  Elec       q    Type
REMARK                         _______ _______ _______ _____ _____    ______ ____
ROOT
ATOM      1  N   UNL     1      -4.624   0.558   0.551  0.00  0.00    -0.209 N 
ATOM      2  C   UNL     1      -4.537   1.528   1.511  0.00  0.00    +0.229 C 
ATOM      3  O   UNL     1      -5.316   1.736   2.416  0.00  0.00    -0.275 OA
ATOM      4  C   UNL     1      -3.323   2.249   1.216  0.00  0.00    +0.080 C 
ATOM      5  C   UNL     1      -2.344   3.138   1.863  0.00  0.00    +0.010 C 
ATOM      6  N   UNL     1      -1.226   3.172   0.858  0.00  0.00    +0.399 N 
ATOM      7  C   UNL     1      -1.329   1.940   0.019  0.00  0.00    +0.071 C 
ATOM      8  C   UNL     1      -2.403   1.088   0.676  0.00  0.00    +0.088 C 
ATOM      9  C   UNL     1      -3.452   0.392  -0.133  0.00  0.00    +0.229 C 
ATOM     10  O   UNL     1      -3.295  -0.198  -1.180  0.00  0.00    -0.275 OA
ATOM     11  H   UNL     1      -1.323   4.070   0.231  0.00  0.00    -0.083 HD
ATOM     12  H   UNL     1      -0.260   3.195   1.385  0.00  0.00    -0.083 HD
ENDROOT
BRANCH   5  13
ATOM     13  C   UNL     1      -2.920   4.516   2.069  0.00  0.00    +0.093 A 
ATOM     14  C   UNL     1      -3.322   5.010   3.248  0.00  0.00    +0.051 A 
ATOM     15  C   UNL     1      -3.806   6.369   2.978  0.00  0.00    +0.020 A 
ATOM     16  C   UNL     1      -4.343   7.387   3.764  0.00  0.00    +0.011 A 
ATOM     17  C   UNL     1      -4.704   8.572   3.186  0.00  0.00    +0.001 A 
ATOM     18  C   UNL     1      -4.538   8.768   1.822  0.00  0.00    +0.004 A 
ATOM     19  C   UNL     1      -4.008   7.773   1.028  0.00  0.00    +0.047 A 
ATOM     20  C   UNL     1      -3.636   6.561   1.596  0.00  0.00    +0.135 A 
ATOM     21  O   UNL     1      -3.099   5.428   1.099  0.00  0.00    -0.461 OA
ENDBRANCH   5  13
BRANCH   1  27
ATOM     22  C   UNL     1      -6.714   0.248  -0.623  0.00  0.00    -0.026 A 
ATOM     23  C   UNL     1      -7.850  -0.498  -0.868  0.00  0.00    +0.005 A 
ATOM     24  C   UNL     1      -8.063  -1.680  -0.183  0.00  0.00    +0.001 A 
ATOM     25  C   UNL     1      -7.138  -2.121   0.745  0.00  0.00    +0.005 A 
ATOM     26  C   UNL     1      -5.998  -1.382   0.991  0.00  0.00    -0.026 A 
ATOM     27  C   UNL     1      -5.781  -0.195   0.304  0.00  0.00    +0.050 A 
BRANCH  22  29
ATOM     28  C   UNL     1      -5.611   1.274  -2.592  0.00  0.00    +0.009 C 
ATOM     29  C   UNL     1      -6.486   1.540  -1.365  0.00  0.00    +0.033 C 
ENDBRANCH  22  29
BRANCH  26  30
ATOM     30  C   UNL     1      -4.990  -1.863   2.002  0.00  0.00    +0.033 C 
ATOM     31  C   UNL     1      -5.269  -1.202   3.354  0.00  0.00    +0.009 C 
ENDBRANCH  26  30
ENDBRANCH   1  27
BRANCH   7  32
ATOM     32  C   UNL     1      -0.014   1.204   0.009  0.00  0.00    +0.348 C 
ATOM     33  O   UNL     1       0.002  -0.004   0.002  0.00  0.00    -0.248 OA
ATOM     34  O   UNL     1       1.139   1.891   0.001  0.00  0.00    -0.248 OA
ENDBRANCH   7  32
BRANCH   7  35
ATOM     35  C   UNL     1      -1.742   2.305  -1.409  0.00  0.00    +0.155 C 
BRANCH  35  36
ATOM     36  O   UNL     1      -0.734   3.129  -1.999  0.00  0.00    -0.396 OA
ATOM     37  H   UNL     1      -0.856   3.493  -3.030  0.00  0.00    +0.209 HD
ENDBRANCH  35  36
ENDBRANCH   7  35
TORSDOF 7
