REMARK  Name = ZINC12429548
REMARK  5 active torsions:
REMARK  status: ('A' for Active; 'I' for Inactive)
REMARK    1  A    between atoms: C_6  and  C_16
REMARK    2  A    between atoms: C_7  and  C_9
REMARK    3  A    between atoms: C_16  and  N_61
REMARK    4  A    between atoms: C_20  and  C_23
REMARK    5  A    between atoms: C_23  and  N_63
REMARK                            x       y       z     vdW  Elec       q    Type
REMARK                         _______ _______ _______ _____ _____    ______ ____
ROOT
ATOM      1  C   UNL     1       0.713  -0.376  -0.282  0.00  0.00    -0.022 C 
ENDROOT
BRANCH   1   7
ATOM      2  C   UNL     1      -1.413  -1.455  -2.575  0.00  0.00    +0.100 A 
ATOM      3  C   UNL     1      -2.412  -1.981  -3.280  0.00  0.00    +0.067 A 
ATOM      4  S   UNL     1      -3.464  -2.640  -1.996  0.00  0.00    -0.058 S 
ATOM      5  C   UNL     1      -2.470  -2.153  -0.604  0.00  0.00    +0.178 A 
ATOM      6  N   UNL     1      -1.409  -1.517  -1.198  0.00  0.00    -0.299 N 
ATOM      7  C   UNL     1      -0.593  -1.118  -0.156  0.00  0.00    +0.040 A 
ATOM      8  C   UNL     1      -1.183  -1.511   1.005  0.00  0.00    +0.146 A 
ATOM      9  N   UNL     1      -2.341  -2.147   0.689  0.00  0.00    -0.216 NA
BRANCH   8  10
ATOM     10  C   UNL     1      -0.660  -1.287   2.364  0.00  0.00    +0.267 C 
ATOM     11  O   UNL     1       0.395  -0.702   2.521  0.00  0.00    -0.268 OA
ATOM     12  N   UNL     1      -1.349  -1.731   3.434  0.00  0.00    -0.296 N 
ATOM     13  C   UNL     1      -2.634  -2.444   3.389  0.00  0.00    +0.108 C 
ATOM     14  C   UNL     1      -3.051  -2.729   4.847  0.00  0.00    +0.020 C 
ATOM     15  C   UNL     1      -2.265  -1.657   5.647  0.00  0.00    +0.020 C 
ATOM     16  C   UNL     1      -0.944  -1.576   4.842  0.00  0.00    +0.108 C 
ENDBRANCH   8  10
ENDBRANCH   1   7
BRANCH   1  22
ATOM     17  C   UNL     1      -0.304   1.488  -1.444  0.00  0.00    -0.078 C 
ATOM     18  C   UNL     1      -0.675   2.968  -1.317  0.00  0.00    -0.018 C 
ATOM     19  C   UNL     1       0.603   3.801  -1.189  0.00  0.00    -0.002 C 
ATOM     20  C   UNL     1       1.401   3.313   0.023  0.00  0.00    -0.044 C 
ATOM     21  C   UNL     1       1.713   1.824  -0.143  0.00  0.00    -0.077 C 
ATOM     22  N   UNL     1       0.441   1.075  -0.236  0.00  0.00    +0.384 N 
ATOM     23  H   UNL     1      -0.128   1.282   0.593  0.00  0.00    -0.081 HD
BRANCH  20  24
ATOM     24  C   UNL     1       2.709   4.101   0.123  0.00  0.00    -0.077 C 
BRANCH  24  30
ATOM     25  C   UNL     1       2.742   4.250   2.539  0.00  0.00    -0.079 C 
ATOM     26  C   UNL     1       3.422   3.712   3.800  0.00  0.00    -0.019 C 
ATOM     27  C   UNL     1       4.895   4.130   3.798  0.00  0.00    -0.004 C 
ATOM     28  C   UNL     1       5.565   3.603   2.526  0.00  0.00    -0.019 C 
ATOM     29  C   UNL     1       4.823   4.145   1.302  0.00  0.00    -0.079 C 
ATOM     30  N   UNL     1       3.418   3.687   1.351  0.00  0.00    +0.380 N 
ATOM     31  H   UNL     1       3.404   2.662   1.415  0.00  0.00    -0.082 HD
ENDBRANCH  24  30
ENDBRANCH  20  24
ENDBRANCH   1  22
TORSDOF 5
