REMARK  Name = ZINC15735482
REMARK  6 active torsions:
REMARK  status: ('A' for Active; 'I' for Inactive)
REMARK    1  A    between atoms: C_1  and  O_2
REMARK    2  A    between atoms: O_2  and  C_3
REMARK    3  A    between atoms: C_3  and  C_5
REMARK    4  A    between atoms: C_5  and  C_6
REMARK    5  A    between atoms: C_6  and  N_7
REMARK    6  A    between atoms: C_22  and  C_24
REMARK                            x       y       z     vdW  Elec       q    Type
REMARK                         _______ _______ _______ _____ _____    ______ ____
ROOT
ATOM      1  N   UNL     1       2.767   5.955  -3.093  0.00  0.00    -0.299 N 
ATOM      2  C   UNL     1       2.878   4.932  -2.223  0.00  0.00    +0.303 C 
ATOM      3  O   UNL     1       3.451   3.912  -2.554  0.00  0.00    -0.253 OA
ATOM      4  N   UNL     1       2.353   5.039  -0.986  0.00  0.00    -0.269 N 
ATOM      5  C   UNL     1       1.651   6.259  -0.548  0.00  0.00    +0.148 C 
ATOM      6  C   UNL     1       0.428   5.961   0.290  0.00  0.00    +0.005 A 
ATOM      7  C   UNL     1      -0.888   6.193  -0.160  0.00  0.00    -0.030 A 
ATOM      8  C   UNL     1      -1.906   5.907   0.694  0.00  0.00    -0.005 A 
ATOM      9  S   UNL     1      -1.086   5.298   2.145  0.00  0.00    -0.075 S 
ATOM     10  C   UNL     1       0.568   5.449   1.542  0.00  0.00    +0.090 A 
ATOM     11  N   UNL     1       1.788   5.124   2.120  0.00  0.00    -0.312 N 
ATOM     12  C   UNL     1       2.295   5.383   3.347  0.00  0.00    +0.092 A 
ATOM     13  C   UNL     1       3.568   4.928   3.379  0.00  0.00    +0.020 A 
ATOM     14  C   UNL     1       3.841   4.342   2.124  0.00  0.00    +0.025 A 
ATOM     15  C   UNL     1       2.729   4.443   1.383  0.00  0.00    +0.049 A 
ATOM     16  C   UNL     1       2.454   3.935  -0.001  0.00  0.00    +0.155 C 
ATOM     17  C   UNL     1      -3.372   6.073   0.455  0.00  0.00    +0.043 C 
ATOM     18  C   UNL     1      -3.562   6.955  -0.788  0.00  0.00    +0.005 C 
ATOM     19  C   UNL     1      -2.643   6.441  -1.900  0.00  0.00    +0.005 C 
ATOM     20  C   UNL     1      -1.184   6.742  -1.553  0.00  0.00    +0.036 C 
ATOM     21  H   UNL     1       2.310   6.769  -2.829  0.00  0.00    +0.150 HD
ENDROOT
BRANCH  16  22
ATOM     22  C   UNL     1       1.158   3.165   0.007  0.00  0.00    -0.018 A 
ATOM     23  C   UNL     1       0.819   2.395   1.105  0.00  0.00    +0.006 A 
ATOM     24  C   UNL     1      -0.369   1.689   1.114  0.00  0.00    +0.003 A 
ATOM     25  C   UNL     1      -1.217   1.747   0.024  0.00  0.00    +0.038 A 
ATOM     26  C   UNL     1      -0.881   2.522  -1.073  0.00  0.00    +0.124 A 
ATOM     27  C   UNL     1       0.309   3.229  -1.081  0.00  0.00    +0.044 A 
ATOM     28  F   UNL     1      -1.712   2.584  -2.137  0.00  0.00    -0.205 F 
ENDBRANCH  16  22
BRANCH   1  29
ATOM     29  C   UNL     1       3.338   5.839  -4.437  0.00  0.00    +0.117 C 
BRANCH  29  30
ATOM     30  C   UNL     1       3.076   7.129  -5.216  0.00  0.00    +0.139 C 
BRANCH  30  31
ATOM     31  C   UNL     1       3.663   7.010  -6.599  0.00  0.00    +0.308 C 
ATOM     32  O   UNL     1       4.232   5.996  -6.928  0.00  0.00    -0.251 OA
BRANCH  31  34
ATOM     33  C   UNL     1       4.142   7.843  -8.779  0.00  0.00    +0.280 C 
ATOM     34  O   UNL     1       3.553   8.029  -7.465  0.00  0.00    -0.468 OA
ENDBRANCH  31  34
ENDBRANCH  30  31
ENDBRANCH  29  30
ENDBRANCH   1  29
TORSDOF 5
