REMARK  Name = ZINC03458726
REMARK  7 active torsions:
REMARK  status: ('A' for Active; 'I' for Inactive)
REMARK    1  A    between atoms: C_1  and  C_2
REMARK    2  A    between atoms: N_13  and  C_23
REMARK    3  A    between atoms: C_14  and  S_16
REMARK    4  A    between atoms: S_16  and  C_17
REMARK    5  A    between atoms: C_17  and  C_19
REMARK    6  A    between atoms: C_17  and  C_20
REMARK    7  A    between atoms: C_23  and  C_24
REMARK                            x       y       z     vdW  Elec       q    Type
REMARK                         _______ _______ _______ _____ _____    ______ ____
ROOT
ATOM      1  C   UNL     1       0.138   7.779  -0.050  0.00  0.00    +0.008 C 
ATOM      2  C   UNL     1       0.465   6.314  -0.350  0.00  0.00    -0.009 C 
ATOM      3  C   UNL     1       1.681   5.880   0.474  0.00  0.00    +0.008 C 
ATOM      4  C   UNL     1       2.164   4.508   0.003  0.00  0.00    +0.037 C 
ATOM      5  C   UNL     1       0.984   3.541   0.010  0.00  0.00    -0.023 A 
ATOM      6  C   UNL     1      -0.284   4.000   0.025  0.00  0.00    -0.004 A 
ATOM      7  S   UNL     1      -1.300   2.548   0.035  0.00  0.00    -0.073 S 
ATOM      8  C   UNL     1      -0.016   1.323   0.009  0.00  0.00    +0.117 A 
ATOM      9  C   UNL     1       1.163   2.087   0.002  0.00  0.00    +0.076 A 
ATOM     10  C   UNL     1       2.387   1.345  -0.012  0.00  0.00    +0.263 A 
ATOM     11  O   UNL     1       3.460   1.923  -0.018  0.00  0.00    -0.267 OA
ATOM     12  N   UNL     1       2.336   0.000  -0.019  0.00  0.00    -0.283 N 
ATOM     13  C   UNL     1       1.143  -0.663  -0.012  0.00  0.00    +0.174 A 
ATOM     14  N   UNL     1       0.002  -0.004   0.002  0.00  0.00    -0.216 NA
ATOM     15  C   UNL     1      -0.730   5.431   0.035  0.00  0.00    +0.046 C 
ENDROOT
BRANCH  13  16
ATOM     16  S   UNL     1       1.129  -2.425  -0.021  0.00  0.00    -0.075 S 
BRANCH  16  17
ATOM     17  C   UNL     1      -0.656  -2.725  -0.007  0.00  0.00    +0.137 C 
ATOM     18  C   UNL     1      -1.272  -2.201  -1.306  0.00  0.00    +0.029 C 
BRANCH  17  19
ATOM     19  C   UNL     1      -0.916  -4.205   0.112  0.00  0.00    +0.224 C 
ATOM     20  O   UNL     1      -0.047  -4.998  -0.180  0.00  0.00    -0.275 OA
ATOM     21  N   UNL     1      -2.115  -4.646   0.541  0.00  0.00    -0.328 N 
ATOM     22  H   UNL     1      -2.810  -4.012   0.775  0.00  0.00    +0.145 HD
ATOM     23  H   UNL     1      -2.282  -5.599   0.618  0.00  0.00    +0.145 HD
ENDBRANCH  17  19
ENDBRANCH  16  17
ENDBRANCH  13  16
BRANCH  12  24
ATOM     24  C   UNL     1       3.584  -0.766  -0.034  0.00  0.00    +0.154 C 
BRANCH  24  25
ATOM     25  C   UNL     1       4.000  -1.021  -1.460  0.00  0.00    -0.013 C 
ATOM     26  C   UNL     1       5.191  -0.662  -1.869  0.00  0.00    +0.005 C 
ENDBRANCH  24  25
ENDBRANCH  12  24
TORSDOF 5
