REMARK  Name = ZINC35037041
REMARK  11 active torsions:
REMARK  status: ('A' for Active; 'I' for Inactive)
REMARK    1  A    between atoms: C_1  and  C_2
REMARK    2  A    between atoms: C_2  and  C_3
REMARK    3  A    between atoms: C_3  and  N_4
REMARK    4  A    between atoms: C_14  and  C_15
REMARK    5  A    between atoms: C_15  and  C_17
REMARK    6  A    between atoms: C_15  and  N_19
REMARK    7  A    between atoms: C_17  and  C_18
REMARK    8  A    between atoms: C_23  and  C_26
REMARK    9  A    between atoms: N_29  and  C_30
REMARK   10  A    between atoms: C_33  and  C_36
REMARK   11  A    between atoms: C_36  and  C_37
REMARK                            x       y       z     vdW  Elec       q    Type
REMARK                         _______ _______ _______ _____ _____    ______ ____
ROOT
ATOM      1  N   UNL     1       4.010  -2.826  -1.626  0.00  0.00    +0.388 N 
ATOM      2  C   UNL     1       4.362  -3.335  -0.294  0.00  0.00    -0.058 C 
ATOM      3  C   UNL     1       4.969  -4.736  -0.428  0.00  0.00    +0.091 C 
ATOM      4  N   UNL     1       6.097  -4.668  -1.370  0.00  0.00    -0.286 N 
ATOM      5  C   UNL     1       5.873  -4.022  -2.673  0.00  0.00    +0.058 C 
ATOM      6  C   UNL     1       5.224  -2.655  -2.433  0.00  0.00    -0.055 C 
ATOM      7  C   UNL     1       7.211  -3.841  -3.393  0.00  0.00    +0.026 C 
ATOM      8  C   UNL     1       7.301  -5.181  -1.048  0.00  0.00    +0.307 C 
ATOM      9  O   UNL     1       8.247  -5.027  -1.796  0.00  0.00    -0.252 OA
ATOM     10  N   UNL     1       7.455  -5.866   0.102  0.00  0.00    -0.269 N 
ATOM     11  H   UNL     1       6.684  -6.062   0.657  0.00  0.00    +0.156 HD
ATOM     12  H   UNL     1       3.394  -3.483  -2.082  0.00  0.00    -0.081 HD
ENDROOT
BRANCH  10  13
ATOM     13  C   UNL     1       8.728  -6.293   0.496  0.00  0.00    +0.035 A 
ATOM     14  C   UNL     1       9.844  -5.521   0.201  0.00  0.00    +0.023 A 
ATOM     15  C   UNL     1      11.099  -5.945   0.592  0.00  0.00    +0.005 A 
ATOM     16  C   UNL     1      11.245  -7.138   1.276  0.00  0.00    -0.048 A 
ATOM     17  C   UNL     1      10.136  -7.909   1.571  0.00  0.00    +0.005 A 
ATOM     18  C   UNL     1       8.878  -7.488   1.188  0.00  0.00    +0.023 A 
BRANCH  16  19
ATOM     19  C   UNL     1      12.616  -7.598   1.701  0.00  0.00    +0.032 C 
ATOM     20  C   UNL     1      12.927  -7.053   3.096  0.00  0.00    +0.009 C 
ENDBRANCH  16  19
ENDBRANCH  10  13
BRANCH   1  21
ATOM     21  C   UNL     1       3.328  -1.532  -1.489  0.00  0.00    -0.001 C 
BRANCH  21  32
ATOM     22  N   UNL     1       2.208  -1.054   0.650  0.00  0.00    -0.297 N 
ATOM     23  C   UNL     1       1.178  -1.149   1.522  0.00  0.00    +0.262 A 
ATOM     24  O   UNL     1       1.210  -0.591   2.603  0.00  0.00    -0.267 OA
ATOM     25  C   UNL     1       0.017  -1.954   1.113  0.00  0.00    +0.065 A 
ATOM     26  C   UNL     1      -1.095  -2.115   1.936  0.00  0.00    +0.015 A 
ATOM     27  C   UNL     1      -2.156  -2.880   1.502  0.00  0.00    +0.001 A 
ATOM     28  C   UNL     1      -2.124  -3.489   0.255  0.00  0.00    +0.002 A 
ATOM     29  C   UNL     1      -1.034  -3.342  -0.574  0.00  0.00    +0.028 A 
ATOM     30  C   UNL     1       0.053  -2.571  -0.157  0.00  0.00    +0.078 A 
ATOM     31  N   UNL     1       1.147  -2.400  -0.941  0.00  0.00    -0.235 NA
ATOM     32  C   UNL     1       2.155  -1.679  -0.555  0.00  0.00    +0.099 A 
BRANCH  22  33
ATOM     33  C   UNL     1       3.390  -0.265   1.007  0.00  0.00    +0.126 C 
BRANCH  33  35
ATOM     34  C   UNL     1       4.378   2.030   1.015  0.00  0.00    +0.005 C 
ATOM     35  C   UNL     1       3.203   1.177   0.531  0.00  0.00    +0.018 C 
ENDBRANCH  33  35
ENDBRANCH  22  33
ENDBRANCH  21  32
BRANCH  21  36
ATOM     36  C   UNL     1       2.834  -1.068  -2.860  0.00  0.00    -0.011 C 
ATOM     37  C   UNL     1       2.247   0.340  -2.742  0.00  0.00    +0.002 C 
ENDBRANCH  21  36
ENDBRANCH   1  21
TORSDOF 7
