REMARK  Name = ZINC05632541
REMARK  10 active torsions:
REMARK  status: ('A' for Active; 'I' for Inactive)
REMARK    1  A    between atoms: C_1  and  C_2
REMARK    2  A    between atoms: C_2  and  C_3
REMARK    3  A    between atoms: C_2  and  C_4
REMARK    4  A    between atoms: C_2  and  C_5
REMARK    5  A    between atoms: C_8  and  C_11
REMARK    6  A    between atoms: N_13  and  N_14
REMARK    7  A    between atoms: N_14  and  C_15
REMARK    8  A    between atoms: C_15  and  N_17
REMARK    9  A    between atoms: C_18  and  C_20
REMARK   10  A    between atoms: C_21  and  C_22
REMARK                            x       y       z     vdW  Elec       q    Type
REMARK                         _______ _______ _______ _____ _____    ______ ____
ROOT
ATOM      1  N   UNL     1       2.366   1.217  -0.014  0.00  0.00    -0.245 N 
ATOM      2  H   UNL     1       2.379   0.247  -0.019  0.00  0.00    +0.172 HD
ENDROOT
BRANCH   1   5
ATOM      3  C   UNL     1      -0.014   1.211   0.009  0.00  0.00    +0.260 C 
ATOM      4  O   UNL     1       0.002  -0.004   0.002  0.00  0.00    -0.269 OA
ATOM      5  N   UNL     1       1.143   1.901   0.001  0.00  0.00    -0.231 N 
ATOM      6  H   UNL     1       1.130   2.871   0.007  0.00  0.00    +0.173 HD
BRANCH   3  10
ATOM      7  C   UNL     1      -3.721   3.285   0.038  0.00  0.00    -0.042 A 
ATOM      8  C   UNL     1      -3.706   1.901   0.030  0.00  0.00    +0.005 A 
ATOM      9  C   UNL     1      -2.506   1.222   0.021  0.00  0.00    +0.013 A 
ATOM     10  C   UNL     1      -1.305   1.933   0.019  0.00  0.00    +0.038 A 
ATOM     11  C   UNL     1      -1.327   3.329   0.032  0.00  0.00    +0.013 A 
ATOM     12  C   UNL     1      -2.534   3.996   0.036  0.00  0.00    +0.005 A 
BRANCH   7  14
ATOM     13  C   UNL     1      -5.828   3.633   1.300  0.00  0.00    +0.015 C 
ATOM     14  C   UNL     1      -5.037   4.021   0.049  0.00  0.00    -0.013 C 
ATOM     15  C   UNL     1      -4.777   5.529   0.056  0.00  0.00    +0.015 C 
ATOM     16  C   UNL     1      -5.840   3.647  -1.199  0.00  0.00    +0.015 C 
ENDBRANCH   7  14
ENDBRANCH   3  10
ENDBRANCH   1   5
BRANCH   1  17
ATOM     17  C   UNL     1       3.524   1.907  -0.021  0.00  0.00    +0.153 C 
ATOM     18  S   UNL     1       5.018   1.071  -0.040  0.00  0.00    -0.017 S 
BRANCH  17  19
ATOM     19  N   UNL     1       3.506   3.254  -0.014  0.00  0.00    -0.263 N 
ATOM     20  C   UNL     1       4.664   3.944  -0.021  0.00  0.00    +0.242 C 
ATOM     21  O   UNL     1       5.726   3.350  -0.035  0.00  0.00    -0.270 OA
ATOM     22  H   UNL     1       2.659   3.728  -0.003  0.00  0.00    +0.157 HD
BRANCH  20  23
ATOM     23  C   UNL     1       4.644   5.407  -0.013  0.00  0.00    +0.068 C 
ATOM     24  C   UNL     1       5.803   6.097  -0.021  0.00  0.00    +0.013 C 
BRANCH  24  25
ATOM     25  C   UNL     1       5.783   7.569  -0.013  0.00  0.00    -0.025 A 
ATOM     26  C   UNL     1       4.564   8.255  -0.003  0.00  0.00    +0.008 A 
ATOM     27  C   UNL     1       4.554   9.634   0.010  0.00  0.00    +0.001 A 
ATOM     28  C   UNL     1       5.745  10.339   0.002  0.00  0.00    +0.000 A 
ATOM     29  C   UNL     1       6.955   9.667  -0.013  0.00  0.00    +0.001 A 
ATOM     30  C   UNL     1       6.982   8.288  -0.020  0.00  0.00    +0.008 A 
ENDBRANCH  24  25
ENDBRANCH  20  23
ENDBRANCH  17  19
ENDBRANCH   1  17
TORSDOF 7
