REMARK  Name = ZINC38080984
REMARK  6 active torsions:
REMARK  status: ('A' for Active; 'I' for Inactive)
REMARK    1  A    between atoms: C_1  and  C_2
REMARK    2  A    between atoms: C_4  and  O_11
REMARK    3  A    between atoms: C_7  and  N_8
REMARK    4  A    between atoms: O_11  and  C_12
REMARK    5  A    between atoms: C_17  and  C_18
REMARK    6  A    between atoms: C_18  and  N_19
REMARK                            x       y       z     vdW  Elec       q    Type
REMARK                         _______ _______ _______ _____ _____    ______ ____
ROOT
ATOM      1  C   UNL     1       0.344  -3.910  -2.473  0.00  0.00    +0.131 A 
ATOM      2  C   UNL     1       0.645  -4.558  -1.283  0.00  0.00    +0.061 A 
ATOM      3  C   UNL     1       0.898  -5.917  -1.284  0.00  0.00    +0.021 A 
ATOM      4  C   UNL     1       0.852  -6.630  -2.469  0.00  0.00    +0.016 A 
ATOM      5  C   UNL     1       0.552  -5.986  -3.654  0.00  0.00    +0.006 A 
ATOM      6  C   UNL     1       0.292  -4.628  -3.658  0.00  0.00    -0.023 A 
ATOM      7 BR   UNL     1       1.310  -6.801   0.336  0.00  0.00    -0.050 Br
ENDROOT
BRANCH   1   8
ATOM      8  O   UNL     1       0.095  -2.574  -2.475  0.00  0.00    -0.456 OA
BRANCH   8  12
ATOM      9  C   UNL     1       3.083  -0.481   0.768  0.00  0.00    +0.046 C 
ATOM     10  C   UNL     1       1.699  -0.854   0.300  0.00  0.00    -0.017 A 
ATOM     11  C   UNL     1       1.534  -1.548  -0.883  0.00  0.00    +0.051 A 
ATOM     12  C   UNL     1       0.260  -1.892  -1.312  0.00  0.00    +0.129 A 
ATOM     13  C   UNL     1      -0.845  -1.537  -0.551  0.00  0.00    +0.048 A 
ATOM     14  C   UNL     1      -0.674  -0.843   0.631  0.00  0.00    +0.036 A 
ATOM     15  C   UNL     1       0.597  -0.507   1.059  0.00  0.00    +0.129 A 
BRANCH  15  16
ATOM     16  N   UNL     1       0.778   0.231   2.329  0.00  0.00    +0.057 N 
ATOM     17  O   UNL     1       1.713  -0.027   3.051  0.00  0.00    -0.126 OA
ATOM     18  O   UNL     1      -0.010   1.093   2.645  0.00  0.00    -0.126 OA
ENDBRANCH  15  16
ENDBRANCH   8  12
ENDBRANCH   1   8
BRANCH   6  19
ATOM     19  C   UNL     1      -0.041  -3.928  -4.950  0.00  0.00    -0.047 C 
BRANCH  19  20
ATOM     20  N   UNL     1       1.155  -3.245  -5.460  0.00  0.00    +0.381 N 
ATOM     21  H   UNL     1       0.932  -2.777  -6.325  0.00  0.00    -0.090 HD
ATOM     22  H   UNL     1       1.470  -2.568  -4.782  0.00  0.00    -0.090 HD
ATOM     23  H   UNL     1       1.885  -3.922  -5.623  0.00  0.00    -0.090 HD
ENDBRANCH  19  20
ENDBRANCH   6  19
TORSDOF 5
