REMARK  Name = ZINC13471285
REMARK  3 active torsions:
REMARK  status: ('A' for Active; 'I' for Inactive)
REMARK    1  A    between atoms: C_4  and  N_7
REMARK    2  A    between atoms: C_8  and  C_10
REMARK    3  A    between atoms: C_14  and  N_15
REMARK                            x       y       z     vdW  Elec       q    Type
REMARK                         _______ _______ _______ _____ _____    ______ ____
ROOT
ATOM      1  C   UNL     1       4.928  -2.697   0.151  0.00  0.00    +0.073 A 
ATOM      2  C   UNL     1       5.504  -2.961   1.396  0.00  0.00    -0.023 A 
ATOM      3  C   UNL     1       6.695  -3.626   1.397  0.00  0.00    -0.004 A 
ATOM      4  S   UNL     1       7.051  -3.905  -0.317  0.00  0.00    -0.073 S 
ATOM      5  C   UNL     1       5.597  -3.131  -1.006  0.00  0.00    +0.115 A 
ATOM      6  C   UNL     1       7.511  -4.024   2.586  0.00  0.00    +0.043 C 
ATOM      7  C   UNL     1       6.994  -3.251   3.808  0.00  0.00    +0.005 C 
ATOM      8  C   UNL     1       5.467  -3.359   3.849  0.00  0.00    +0.005 C 
ATOM      9  C   UNL     1       4.855  -2.539   2.713  0.00  0.00    +0.037 C 
ENDROOT
BRANCH   5  10
ATOM     10  N   UNL     1       5.238  -2.998  -2.291  0.00  0.00    -0.234 NA
ATOM     11  C   UNL     1       4.427  -3.878  -2.842  0.00  0.00    +0.136 C 
ATOM     12  C   UNL     1       3.898  -5.117  -2.237  0.00  0.00    +0.027 A 
ATOM     13  C   UNL     1       4.065  -5.716  -0.991  0.00  0.00    +0.012 A 
ATOM     14  C   UNL     1       3.423  -6.905  -0.712  0.00  0.00    +0.001 A 
ATOM     15  C   UNL     1       2.616  -7.500  -1.668  0.00  0.00    +0.002 A 
ATOM     16  C   UNL     1       2.444  -6.914  -2.907  0.00  0.00    +0.024 A 
ATOM     17  C   UNL     1       3.082  -5.716  -3.208  0.00  0.00    +0.043 A 
ATOM     18  N   UNL     1       3.078  -4.931  -4.355  0.00  0.00    -0.280 N 
ATOM     19  C   UNL     1       3.843  -3.836  -4.203  0.00  0.00    +0.267 C 
ATOM     20  O   UNL     1       4.025  -2.968  -5.035  0.00  0.00    -0.268 OA
ATOM     21  H   UNL     1       2.583  -5.144  -5.162  0.00  0.00    +0.155 HD
ENDBRANCH   5  10
BRANCH   1  23
ATOM     22  N   UNL     1       3.625  -0.640  -0.044  0.00  0.00    -0.281 N 
ATOM     23  C   UNL     1       3.644  -1.984   0.053  0.00  0.00    +0.251 C 
ATOM     24  O   UNL     1       2.600  -2.608   0.060  0.00  0.00    -0.270 OA
ATOM     25  H   UNL     1       4.457  -0.147  -0.116  0.00  0.00    +0.155 HD
BRANCH  22  29
ATOM     26  C   UNL     1      -0.007   1.398  -0.035  0.00  0.00    +0.000 A 
ATOM     27  C   UNL     1       1.102   1.963   0.568  0.00  0.00    +0.002 A 
ATOM     28  C   UNL     1       2.308   1.289   0.567  0.00  0.00    +0.023 A 
ATOM     29  C   UNL     1       2.405   0.044  -0.041  0.00  0.00    +0.034 A 
ATOM     30  C   UNL     1       1.289  -0.520  -0.645  0.00  0.00    +0.023 A 
ATOM     31  C   UNL     1       0.086   0.159  -0.640  0.00  0.00    +0.002 A 
ENDBRANCH  22  29
ENDBRANCH   1  23
TORSDOF 3
