REMARK  Name = ZINC07059984
REMARK  6 active torsions:
REMARK  status: ('A' for Active; 'I' for Inactive)
REMARK    1  A    between atoms: C_1  and  O_2
REMARK    2  A    between atoms: O_2  and  C_3
REMARK    3  A    between atoms: C_6  and  C_9
REMARK    4  A    between atoms: C_20  and  C_22
REMARK    5  A    between atoms: C_25  and  O_28
REMARK    6  A    between atoms: O_28  and  C_29
REMARK                            x       y       z     vdW  Elec       q    Type
REMARK                         _______ _______ _______ _____ _____    ______ ____
ROOT
ATOM      1  C   UNL     1       2.505  -2.503  -4.381  0.00  0.00    +0.159 C 
ATOM      2  C   UNL     1       3.918  -2.861  -3.977  0.00  0.00    +0.027 C 
ATOM      3  C   UNL     1       4.287  -4.156  -4.042  0.00  0.00    +0.083 C 
ATOM      4  C   UNL     1       5.675  -4.494  -3.633  0.00  0.00    +0.044 A 
ATOM      5  C   UNL     1       6.249  -5.715  -3.958  0.00  0.00    +0.033 A 
ATOM      6  C   UNL     1       7.545  -5.988  -3.559  0.00  0.00    +0.042 A 
ATOM      7  C   UNL     1       8.264  -5.048  -2.840  0.00  0.00    +0.023 A 
ATOM      8  C   UNL     1       7.698  -3.830  -2.513  0.00  0.00    +0.048 A 
ATOM      9  C   UNL     1       6.402  -3.545  -2.904  0.00  0.00    +0.131 A 
ATOM     10  O   UNL     1       5.819  -2.359  -2.590  0.00  0.00    -0.479 OA
ATOM     11  C   UNL     1       4.889  -1.810  -3.526  0.00  0.00    +0.234 C 
ATOM     12 CL   UNL     1       8.271  -7.512  -3.960  0.00  0.00    -0.084 Cl
ATOM     13  N   UNL     1       3.430  -5.119  -4.462  0.00  0.00    -0.213 NA
ATOM     14  C   UNL     1       2.190  -4.895  -4.830  0.00  0.00    +0.237 C 
ATOM     15  N   UNL     1       1.660  -3.624  -4.813  0.00  0.00    -0.208 N 
ATOM     16  N   UNL     1       0.339  -3.737  -5.252  0.00  0.00    -0.251 N 
ATOM     17  C   UNL     1       0.132  -5.058  -5.512  0.00  0.00    +0.203 C 
ATOM     18  N   UNL     1       1.216  -5.723  -5.268  0.00  0.00    -0.205 NA
ATOM     19  H   UNL     1      -0.303  -3.018  -5.351  0.00  0.00    +0.171 HD
ENDROOT
BRANCH   1  23
ATOM     20  C   UNL     1       0.606  -0.607  -1.056  0.00  0.00    +0.120 A 
ATOM     21  C   UNL     1       1.173   0.161  -2.062  0.00  0.00    +0.046 A 
ATOM     22  C   UNL     1       1.786  -0.455  -3.136  0.00  0.00    +0.009 A 
ATOM     23  C   UNL     1       1.835  -1.835  -3.209  0.00  0.00    -0.021 A 
ATOM     24  C   UNL     1       1.270  -2.602  -2.207  0.00  0.00    +0.009 A 
ATOM     25  C   UNL     1       0.661  -1.992  -1.128  0.00  0.00    +0.046 A 
BRANCH  20  27
ATOM     26  C   UNL     1      -0.017   1.425   0.010  0.00  0.00    +0.277 C 
ATOM     27  O   UNL     1       0.002  -0.004   0.002  0.00  0.00    -0.495 OA
ENDBRANCH  20  27
ENDBRANCH   1  23
BRANCH  11  28
ATOM     28  C   UNL     1       5.640  -1.279  -4.720  0.00  0.00    -0.003 A 
ATOM     29  C   UNL     1       6.699  -1.996  -5.244  0.00  0.00    +0.011 A 
ATOM     30  C   UNL     1       7.389  -1.511  -6.339  0.00  0.00    +0.046 A 
ATOM     31  C   UNL     1       7.017  -0.304  -6.912  0.00  0.00    +0.120 A 
ATOM     32  C   UNL     1       5.953   0.413  -6.385  0.00  0.00    +0.046 A 
ATOM     33  C   UNL     1       5.263  -0.078  -5.294  0.00  0.00    +0.011 A 
BRANCH  31  34
ATOM     34  O   UNL     1       7.694   0.176  -7.989  0.00  0.00    -0.495 OA
ATOM     35  C   UNL     1       7.255   1.425  -8.527  0.00  0.00    +0.277 C 
ENDBRANCH  31  34
ENDBRANCH  11  28
TORSDOF 4
