REMARK  Name = ZINC39604353
REMARK  8 active torsions:
REMARK  status: ('A' for Active; 'I' for Inactive)
REMARK    1  A    between atoms: C_1  and  C_2
REMARK    2  A    between atoms: C_2  and  O_3
REMARK    3  A    between atoms: O_3  and  C_4
REMARK    4  A    between atoms: C_4  and  C_5
REMARK    5  A    between atoms: C_5  and  C_6
REMARK    6  A    between atoms: C_6  and  N_7
REMARK    7  A    between atoms: C_8  and  C_10
REMARK    8  A    between atoms: C_21  and  C_23
REMARK                            x       y       z     vdW  Elec       q    Type
REMARK                         _______ _______ _______ _____ _____    ______ ____
ROOT
ATOM      1  C   UNL     1       2.470  -5.874  -5.467  0.00  0.00    +0.100 C 
ATOM      2  C   UNL     1       1.946  -5.404  -6.843  0.00  0.00    +0.121 C 
ATOM      3  N   UNL     1       2.264  -6.519  -7.766  0.00  0.00    -0.296 N 
ATOM      4  C   UNL     1       1.988  -7.742  -6.975  0.00  0.00    +0.115 C 
ATOM      5  C   UNL     1       2.496  -7.409  -5.558  0.00  0.00    -0.004 C 
ATOM      6  C   UNL     1       1.568  -8.015  -4.509  0.00  0.00    -0.010 C 
ATOM      7  C   UNL     1       1.655  -9.542  -4.580  0.00  0.00    -0.082 C 
ATOM      8  N   UNL     1       3.039  -9.967  -4.342  0.00  0.00    +0.379 N 
ATOM      9  C   UNL     1       3.910  -9.457  -5.407  0.00  0.00    -0.082 C 
ATOM     10  C   UNL     1       3.919  -7.926  -5.372  0.00  0.00    -0.010 C 
ATOM     11  C   UNL     1       2.704  -6.439  -9.037  0.00  0.00    +0.247 C 
ATOM     12  O   UNL     1       3.007  -5.360  -9.508  0.00  0.00    -0.270 OA
ATOM     13  H   UNL     1       3.352  -9.608  -3.452  0.00  0.00    -0.086 HD
ATOM     14  H   UNL     1       3.083 -10.976  -4.328  0.00  0.00    -0.086 HD
ENDROOT
BRANCH  11  15
ATOM     15  C   UNL     1       2.819  -7.663  -9.858  0.00  0.00    +0.040 A 
ATOM     16  C   UNL     1       2.097  -8.807  -9.514  0.00  0.00    +0.033 A 
ATOM     17  C   UNL     1       2.208  -9.947 -10.285  0.00  0.00    +0.043 A 
ATOM     18  C   UNL     1       3.034  -9.957 -11.396  0.00  0.00    +0.040 A 
ATOM     19  C   UNL     1       3.753  -8.826 -11.742  0.00  0.00    +0.043 A 
ATOM     20  C   UNL     1       3.645  -7.678 -10.982  0.00  0.00    +0.033 A 
ATOM     21 CL   UNL     1       4.787  -8.849 -13.136  0.00  0.00    -0.083 Cl
ATOM     22 CL   UNL     1       1.311 -11.371  -9.859  0.00  0.00    -0.083 Cl
ENDBRANCH  11  15
BRANCH   1  24
ATOM     23  N   UNL     1       2.022  -5.171  -3.139  0.00  0.00    -0.315 N 
ATOM     24  C   UNL     1       1.539  -5.428  -4.370  0.00  0.00    +0.218 C 
ATOM     25  O   UNL     1       0.354  -5.301  -4.595  0.00  0.00    -0.275 OA
ATOM     26  H   UNL     1       2.970  -5.273  -2.958  0.00  0.00    +0.149 HD
BRANCH  23  27
ATOM     27  C   UNL     1       1.117  -4.737  -2.072  0.00  0.00    +0.106 C 
BRANCH  27  28
ATOM     28  C   UNL     1       1.914  -4.515  -0.785  0.00  0.00    +0.047 C 
BRANCH  28  29
ATOM     29  C   UNL     1       0.968  -4.062   0.329  0.00  0.00    +0.161 C 
BRANCH  29  30
ATOM     30  O   UNL     1       1.712  -3.855   1.531  0.00  0.00    -0.380 OA
BRANCH  30  32
ATOM     31  C   UNL     1       1.815  -3.238   3.866  0.00  0.00    +0.034 C 
ATOM     32  C   UNL     1       0.919  -3.428   2.640  0.00  0.00    +0.156 C 
ENDBRANCH  30  32
ENDBRANCH  29  30
ENDBRANCH  28  29
ENDBRANCH  27  28
ENDBRANCH  23  27
ENDBRANCH   1  24
TORSDOF 7
