REMARK  Name = ZINC39836299
REMARK  9 active torsions:
REMARK  status: ('A' for Active; 'I' for Inactive)
REMARK    1  A    between atoms: C_1  and  C_2
REMARK    2  A    between atoms: C_4  and  O_9
REMARK    3  A    between atoms: O_9  and  C_10
REMARK    4  A    between atoms: C_10  and  C_12
REMARK    5  A    between atoms: C_10  and  C_13
REMARK    6  A    between atoms: N_15  and  C_16
REMARK    7  A    between atoms: C_17  and  C_27
REMARK    8  A    between atoms: C_22  and  C_26
REMARK    9  A    between atoms: N_29  and  C_30
REMARK                            x       y       z     vdW  Elec       q    Type
REMARK                         _______ _______ _______ _____ _____    ______ ____
ROOT
ATOM      1  C   UNL     1       1.958  -6.418  -4.729  0.00  0.00    +0.085 A 
ATOM      2  C   UNL     1       2.308  -7.722  -5.042  0.00  0.00    +0.069 A 
ATOM      3  C   UNL     1       3.097  -7.927  -6.245  0.00  0.00    -0.023 A 
ATOM      4  C   UNL     1       3.391  -6.790  -6.912  0.00  0.00    -0.004 A 
ATOM      5  S   UNL     1       2.631  -5.504  -5.966  0.00  0.00    -0.077 S 
ATOM      6  C   UNL     1       4.185  -6.670  -8.177  0.00  0.00    +0.046 C 
ATOM      7  C   UNL     1       4.936  -7.991  -8.402  0.00  0.00    -0.009 C 
ATOM      8  C   UNL     1       3.957  -9.155  -8.220  0.00  0.00    +0.008 C 
ATOM      9  C   UNL     1       3.570  -9.284  -6.745  0.00  0.00    +0.037 C 
ATOM     10  C   UNL     1       5.509  -8.018  -9.820  0.00  0.00    +0.008 C 
ENDROOT
BRANCH   1  13
ATOM     11  C   UNL     1       0.964  -4.656  -3.498  0.00  0.00    +0.258 C 
ATOM     12  O   UNL     1       1.385  -3.863  -4.313  0.00  0.00    -0.271 OA
ATOM     13  N   UNL     1       1.217  -5.972  -3.645  0.00  0.00    -0.276 N 
ATOM     14  H   UNL     1       0.880  -6.606  -2.993  0.00  0.00    +0.155 HD
BRANCH  11  15
ATOM     15  C   UNL     1       0.158  -4.171  -2.320  0.00  0.00    +0.256 C 
ATOM     16  C   UNL     1      -1.230  -4.812  -2.353  0.00  0.00    +0.062 C 
BRANCH  15  17
ATOM     17  O   UNL     1       0.028  -2.749  -2.386  0.00  0.00    -0.480 OA
BRANCH  17  21
ATOM     18  C   UNL     1      -0.819  -2.925   2.418  0.00  0.00    +0.045 C 
ATOM     19  C   UNL     1      -0.605  -2.146   1.146  0.00  0.00    -0.029 A 
ATOM     20  C   UNL     1      -0.385  -2.813  -0.044  0.00  0.00    +0.050 A 
ATOM     21  C   UNL     1      -0.189  -2.095  -1.214  0.00  0.00    +0.122 A 
ATOM     22  C   UNL     1      -0.214  -0.708  -1.188  0.00  0.00    +0.047 A 
ATOM     23  C   UNL     1      -0.434  -0.045   0.004  0.00  0.00    +0.024 A 
ATOM     24  C   UNL     1      -0.635  -0.763   1.169  0.00  0.00    +0.044 A 
ATOM     25 CL   UNL     1      -0.918   0.073   2.664  0.00  0.00    -0.083 Cl
ENDBRANCH  17  21
ENDBRANCH  15  17
ENDBRANCH  11  15
ENDBRANCH   1  13
BRANCH   2  26
ATOM     26  C   UNL     1       1.899  -8.847  -4.196  0.00  0.00    +0.247 C 
ATOM     27  O   UNL     1       0.845  -9.417  -4.408  0.00  0.00    -0.270 OA
ATOM     28  N   UNL     1       2.692  -9.251  -3.183  0.00  0.00    -0.307 N 
ATOM     29  H   UNL     1       3.532  -8.797  -3.014  0.00  0.00    +0.149 HD
BRANCH  28  30
ATOM     30  C   UNL     1       2.283 -10.375  -2.337  0.00  0.00    +0.096 C 
ATOM     31  C   UNL     1       1.388  -9.867  -1.195  0.00  0.00    +0.046 C 
ATOM     32  C   UNL     1       1.217 -10.974  -0.127  0.00  0.00    +0.168 C 
ATOM     33  S   UNL     1       2.772 -11.942  -0.295  0.00  0.00    -0.029 S 
ATOM     34  O   UNL     1       2.451 -13.264  -0.708  0.00  0.00    -0.174 OA
ATOM     35  O   UNL     1       3.567 -11.746   0.866  0.00  0.00    -0.174 OA
ATOM     36  C   UNL     1       3.540 -11.042  -1.707  0.00  0.00    +0.188 C 
ENDBRANCH  28  30
ENDBRANCH   2  26
TORSDOF 6
