REMARK  Name = ZINC40241950
REMARK  9 active torsions:
REMARK  status: ('A' for Active; 'I' for Inactive)
REMARK    1  A    between atoms: C_1  and  C_2
REMARK    2  A    between atoms: C_2  and  C_3
REMARK    3  A    between atoms: C_2  and  C_4
REMARK    4  A    between atoms: C_2  and  C_5
REMARK    5  A    between atoms: C_5  and  C_6
REMARK    6  A    between atoms: C_6  and  C_8
REMARK    7  A    between atoms: C_6  and  O_18
REMARK    8  A    between atoms: C_13  and  O_14
REMARK    9  A    between atoms: O_14  and  C_15
REMARK                            x       y       z     vdW  Elec       q    Type
REMARK                         _______ _______ _______ _____ _____    ______ ____
ROOT
ATOM      1  C   UNL     1       2.708  -0.534  -2.661  0.00  0.00    +0.025 A 
ATOM      2  C   UNL     1       2.655   0.273  -3.781  0.00  0.00    +0.029 A 
ATOM      3  C   UNL     1       3.151  -0.185  -4.989  0.00  0.00    +0.043 A 
ATOM      4  C   UNL     1       3.699  -1.453  -5.078  0.00  0.00    +0.039 A 
ATOM      5  C   UNL     1       3.753  -2.263  -3.960  0.00  0.00    +0.061 A 
ATOM      6  C   UNL     1       3.262  -1.802  -2.746  0.00  0.00    +0.140 A 
ATOM      7 BR   UNL     1       4.502  -3.995  -4.082  0.00  0.00    -0.046 Br
ATOM      8 CL   UNL     1       3.083   0.831  -6.395  0.00  0.00    -0.083 Cl
ENDROOT
BRANCH   6   9
ATOM      9  O   UNL     1       3.319  -2.596  -1.643  0.00  0.00    -0.494 OA
ATOM     10  C   UNL     1       2.283  -3.568  -1.489  0.00  0.00    +0.277 C 
ENDBRANCH   6   9
BRANCH   1  11
ATOM     11  C   UNL     1       2.168  -0.034  -1.345  0.00  0.00    +0.149 C 
BRANCH  11  12
ATOM     12  O   UNL     1       2.249   1.392  -1.309  0.00  0.00    -0.387 OA
ATOM     13  H   UNL     1       1.747   1.832  -2.009  0.00  0.00    +0.210 HD
ENDBRANCH  11  12
BRANCH  11  14
ATOM     14  C   UNL     1       0.709  -0.467  -1.195  0.00  0.00    +0.042 C 
BRANCH  14  16
ATOM     15  C   UNL     1       0.175   1.423   0.350  0.00  0.00    +0.011 C 
ATOM     16  C   UNL     1       0.209  -0.100   0.204  0.00  0.00    -0.035 C 
ATOM     17  C   UNL     1       1.152  -0.691   1.254  0.00  0.00    +0.011 C 
ATOM     18  C   UNL     1      -1.198  -0.664   0.407  0.00  0.00    +0.011 C 
ENDBRANCH  14  16
ENDBRANCH  11  14
ENDBRANCH   1  11
TORSDOF 5
