REMARK  Name = ZINC03309444
REMARK  6 active torsions:
REMARK  status: ('A' for Active; 'I' for Inactive)
REMARK    1  A    between atoms: C_1  and  C_2
REMARK    2  A    between atoms: C_2  and  C_21
REMARK    3  A    between atoms: N_5  and  N_9
REMARK    4  A    between atoms: C_10  and  C_11
REMARK    5  A    between atoms: C_24  and  O_27
REMARK    6  A    between atoms: O_27  and  C_28
REMARK                            x       y       z     vdW  Elec       q    Type
REMARK                         _______ _______ _______ _____ _____    ______ ____
ROOT
ATOM      1  C   UNL     1      -2.041   1.594  -1.236  0.00  0.00    +0.047 C 
ATOM      2  C   UNL     1      -1.203   1.829   0.022  0.00  0.00    +0.137 C 
ATOM      3  C   UNL     1      -0.628   3.231   0.028  0.00  0.00    +0.271 C 
ATOM      4  O   UNL     1      -1.244   4.276   0.034  0.00  0.00    -0.271 OA
ATOM      5  N   UNL     1       0.711   3.077   0.019  0.00  0.00    -0.109 N 
ATOM      6  C   UNL     1       1.058   1.785   0.013  0.00  0.00    +0.330 C 
ATOM      7  O   UNL     1       2.209   1.394   0.005  0.00  0.00    -0.250 OA
ATOM      8  N   UNL     1      -0.009   0.966   0.018  0.00  0.00    -0.280 N 
ATOM      9  H   UNL     1       0.005  -0.004   0.014  0.00  0.00    +0.152 HD
ENDROOT
BRANCH   2  10
ATOM     10  C   UNL     1      -2.025   1.590   1.262  0.00  0.00    -0.015 A 
ATOM     11  C   UNL     1      -2.750   2.627   1.819  0.00  0.00    +0.010 A 
ATOM     12  C   UNL     1      -3.510   2.410   2.952  0.00  0.00    +0.046 A 
ATOM     13  C   UNL     1      -3.535   1.152   3.538  0.00  0.00    +0.127 A 
ATOM     14  C   UNL     1      -2.803   0.115   2.980  0.00  0.00    +0.046 A 
ATOM     15  C   UNL     1      -2.049   0.336   1.843  0.00  0.00    +0.010 A 
BRANCH  13  16
ATOM     16  O   UNL     1      -4.277   0.937   4.656  0.00  0.00    -0.434 OA
BRANCH  16  17
ATOM     17  C   UNL     1      -5.006   2.051   5.175  0.00  0.00    +0.541 C 
ATOM     18  F   UNL     1      -4.115   3.078   5.506  0.00  0.00    -0.166 F 
ATOM     19  F   UNL     1      -5.907   2.510   4.209  0.00  0.00    -0.166 F 
ENDBRANCH  16  17
ENDBRANCH  13  16
ENDBRANCH   2  10
BRANCH   5  20
ATOM     20  N   UNL     1       1.626   4.138   0.017  0.00  0.00    -0.176 NA
ATOM     21  C   UNL     1       1.201   5.361  -0.080  0.00  0.00    +0.139 C 
BRANCH  21  22
ATOM     22  C   UNL     1       2.165   6.467  -0.193  0.00  0.00    +0.002 A 
ATOM     23  C   UNL     1       1.733   7.788  -0.185  0.00  0.00    +0.010 A 
ATOM     24  C   UNL     1       2.645   8.830  -0.287  0.00  0.00    +0.001 A 
ATOM     25  C   UNL     1       3.981   8.604  -0.409  0.00  0.00    +0.008 A 
ATOM     26  C   UNL     1       4.489   7.295  -0.431  0.00  0.00    -0.017 A 
ATOM     27  C   UNL     1       3.596   6.200  -0.324  0.00  0.00    -0.009 A 
ATOM     28  C   UNL     1       4.097   4.893  -0.345  0.00  0.00    +0.009 A 
ATOM     29  C   UNL     1       5.439   4.689  -0.469  0.00  0.00    +0.001 A 
ATOM     30  C   UNL     1       6.320   5.762  -0.574  0.00  0.00    +0.001 A 
ATOM     31  C   UNL     1       5.866   7.046  -0.557  0.00  0.00    +0.008 A 
ENDBRANCH  21  22
ENDBRANCH   5  20
TORSDOF 5
