REMARK  Name = ZINC09561492
REMARK  6 active torsions:
REMARK  status: ('A' for Active; 'I' for Inactive)
REMARK    1  A    between atoms: C_1  and  C_2
REMARK    2  A    between atoms: C_2  and  C_3
REMARK    3  A    between atoms: C_4  and  C_21
REMARK    4  A    between atoms: C_11  and  N_12
REMARK    5  A    between atoms: N_12  and  C_13
REMARK    6  A    between atoms: C_17  and  C_19
REMARK                            x       y       z     vdW  Elec       q    Type
REMARK                         _______ _______ _______ _____ _____    ______ ____
ROOT
ATOM      1  C   UNL     1      -2.265   0.249   0.402  0.00  0.00    +0.014 A 
ATOM      2  C   UNL     1      -3.569   0.572   0.766  0.00  0.00    +0.049 A 
ATOM      3  N   UNL     1      -3.889   1.813   1.068  0.00  0.00    -0.215 NA
ATOM      4  C   UNL     1      -2.978   2.792   1.034  0.00  0.00    +0.255 A 
ATOM      5  N   UNL     1      -3.051   4.094   1.290  0.00  0.00    -0.197 NA
ATOM      6  C   UNL     1      -1.857   4.650   1.129  0.00  0.00    +0.247 A 
ATOM      7  N   UNL     1      -0.993   3.738   0.756  0.00  0.00    -0.151 NA
ATOM      8  N   UNL     1      -1.684   2.522   0.688  0.00  0.00    -0.182 N 
ATOM      9  C   UNL     1      -1.312   1.249   0.363  0.00  0.00    +0.133 A 
ATOM     10  C   UNL     1      -4.622  -0.505   0.815  0.00  0.00    +0.066 C 
ENDROOT
BRANCH   1  12
ATOM     11  C   UNL     1      -1.450  -1.905   1.321  0.00  0.00    +0.009 C 
ATOM     12  C   UNL     1      -1.897  -1.171   0.056  0.00  0.00    +0.037 C 
ENDBRANCH   1  12
BRANCH   9  13
ATOM     13  N   UNL     1      -0.011   0.966   0.007  0.00  0.00    -0.299 N 
ATOM     14  H   UNL     1       0.587   0.550   0.648  0.00  0.00    +0.154 HD
BRANCH  13  15
ATOM     15  C   UNL     1       0.445   1.273  -1.278  0.00  0.00    +0.033 A 
ATOM     16  C   UNL     1      -0.443   1.740  -2.239  0.00  0.00    +0.024 A 
ATOM     17  C   UNL     1       0.011   2.047  -3.506  0.00  0.00    +0.017 A 
ATOM     18  C   UNL     1       1.348   1.881  -3.822  0.00  0.00    +0.021 A 
ATOM     19  C   UNL     1       2.234   1.411  -2.869  0.00  0.00    -0.035 A 
ATOM     20  C   UNL     1       1.786   1.107  -1.599  0.00  0.00    +0.027 A 
ATOM     21  C   UNL     1       3.689   1.232  -3.217  0.00  0.00    +0.045 C 
ATOM     22 BR   UNL     1       1.965   2.296  -5.561  0.00  0.00    -0.050 Br
ENDBRANCH  13  15
ENDBRANCH   9  13
TORSDOF 3
