REMARK  Name = ZINC00642144
REMARK  5 active torsions:
REMARK  status: ('A' for Active; 'I' for Inactive)
REMARK    1  A    between atoms: N_14  and  C_15
REMARK    2  A    between atoms: C_15  and  C_16
REMARK    3  A    between atoms: C_16  and  C_18
REMARK    4  A    between atoms: C_16  and  O_25
REMARK    5  A    between atoms: C_18  and  N_50
REMARK                            x       y       z     vdW  Elec       q    Type
REMARK                         _______ _______ _______ _____ _____    ______ ____
ROOT
ATOM      1  C   UNL     1      -3.812  -3.120   3.932  0.00  0.00    +0.017 A 
ATOM      2  C   UNL     1      -2.961  -2.761   2.909  0.00  0.00    +0.027 A 
ATOM      3  C   UNL     1      -3.383  -2.857   1.586  0.00  0.00    +0.050 A 
ATOM      4  C   UNL     1      -4.679  -3.317   1.310  0.00  0.00    +0.009 A 
ATOM      5  C   UNL     1      -5.531  -3.672   2.353  0.00  0.00    +0.026 A 
ATOM      6  C   UNL     1      -5.092  -3.579   3.657  0.00  0.00    +0.019 A 
ATOM      7 BR   UNL     1      -6.243  -4.066   5.076  0.00  0.00    -0.050 Br
ATOM      8  C   UNL     1      -4.822  -3.310  -0.158  0.00  0.00    +0.009 A 
ATOM      9  C   UNL     1      -5.859  -3.657  -1.020  0.00  0.00    +0.026 A 
ATOM     10  C   UNL     1      -5.685  -3.537  -2.383  0.00  0.00    +0.019 A 
ATOM     11  C   UNL     1      -4.482  -3.074  -2.895  0.00  0.00    +0.017 A 
ATOM     12  C   UNL     1      -3.448  -2.728  -2.052  0.00  0.00    +0.027 A 
ATOM     13  C   UNL     1      -3.605  -2.842  -0.674  0.00  0.00    +0.050 A 
ATOM     14  N   UNL     1      -2.756  -2.572   0.386  0.00  0.00    -0.337 N 
ATOM     15 BR   UNL     1      -7.091  -4.005  -3.558  0.00  0.00    -0.050 Br
ENDROOT
BRANCH  14  16
ATOM     16  C   UNL     1      -1.388  -2.064   0.255  0.00  0.00    +0.151 C 
BRANCH  16  17
ATOM     17  C   UNL     1      -1.409  -0.535   0.263  0.00  0.00    +0.118 C 
BRANCH  17  18
ATOM     18  O   UNL     1      -1.864  -0.071   1.536  0.00  0.00    -0.392 OA
ATOM     19  H   UNL     1      -1.311  -0.353   2.278  0.00  0.00    +0.210 HD
ENDBRANCH  17  18
BRANCH  17  20
ATOM     20  C   UNL     1       0.002  -0.004   0.002  0.00  0.00    -0.045 C 
BRANCH  20  27
ATOM     21  C   UNL     1      -0.899   1.989  -1.057  0.00  0.00    -0.079 C 
ATOM     22  C   UNL     1      -0.745   3.471  -1.266  0.00  0.00    -0.019 C 
ATOM     23  C   UNL     1       0.287   3.702  -2.390  0.00  0.00    -0.002 C 
ATOM     24  C   UNL     1       1.659   3.544  -1.920  0.00  0.00    -0.002 C 
ATOM     25  C   UNL     1       1.932   2.122  -1.386  0.00  0.00    -0.019 C 
ATOM     26  C   UNL     1       1.357   2.014  -0.000  0.00  0.00    -0.079 C 
ATOM     27  N   UNL     1      -0.041   1.466   0.060  0.00  0.00    +0.381 N 
ATOM     28  H   UNL     1      -0.462   1.750   0.953  0.00  0.00    -0.082 HD
ENDBRANCH  20  27
ENDBRANCH  17  20
ENDBRANCH  16  17
ENDBRANCH  14  16
TORSDOF 5
