REMARK  Name = ZINC58715888
REMARK  9 active torsions:
REMARK  status: ('A' for Active; 'I' for Inactive)
REMARK    1  A    between atoms: C_1  and  C_2
REMARK    2  A    between atoms: C_2  and  C_4
REMARK    3  A    between atoms: C_2  and  N_11
REMARK    4  A    between atoms: N_14  and  C_15
REMARK    5  A    between atoms: C_15  and  C_16
REMARK    6  A    between atoms: C_16  and  C_18
REMARK    7  A    between atoms: C_16  and  N_23
REMARK    8  A    between atoms: N_23  and  C_24
REMARK    9  A    between atoms: N_23  and  C_25
REMARK                            x       y       z     vdW  Elec       q    Type
REMARK                         _______ _______ _______ _____ _____    ______ ____
ROOT
ATOM      1  N   UNL     1      -1.497  -0.545   0.212  0.00  0.00    -0.293 N 
ATOM      2  C   UNL     1      -2.094  -0.753  -0.979  0.00  0.00    +0.300 C 
ATOM      3  O   UNL     1      -1.473  -0.574  -2.009  0.00  0.00    -0.253 OA
ATOM      4  N   UNL     1      -3.378  -1.160  -1.027  0.00  0.00    -0.301 N 
ATOM      5  H   UNL     1      -1.992  -0.688   1.034  0.00  0.00    +0.151 HD
ATOM      6  H   UNL     1      -3.873  -1.303  -0.205  0.00  0.00    +0.150 HD
ENDROOT
BRANCH   1   8
ATOM      7  C   UNL     1      -0.044   1.421   0.135  0.00  0.00    +0.033 C 
ATOM      8  C   UNL     1      -0.102  -0.103   0.265  0.00  0.00    +0.102 C 
BRANCH   8   9
ATOM      9  C   UNL     1       0.507  -0.518   1.579  0.00  0.00    -0.026 A 
ATOM     10  C   UNL     1      -0.234  -0.431   2.743  0.00  0.00    +0.005 A 
ATOM     11  C   UNL     1       0.324  -0.812   3.949  0.00  0.00    +0.001 A 
ATOM     12  C   UNL     1       1.624  -1.280   3.992  0.00  0.00    +0.015 A 
ATOM     13  C   UNL     1       2.366  -1.368   2.828  0.00  0.00    +0.018 A 
ATOM     14  C   UNL     1       1.805  -0.992   1.620  0.00  0.00    +0.020 A 
ATOM     15 BR   UNL     1       4.144  -2.009   2.886  0.00  0.00    -0.050 Br
ENDBRANCH   8   9
ENDBRANCH   1   8
BRANCH   4  16
ATOM     16  C   UNL     1      -4.026  -1.387  -2.321  0.00  0.00    +0.095 C 
BRANCH  16  17
ATOM     17  C   UNL     1      -5.431  -1.948  -2.097  0.00  0.00    -0.014 C 
BRANCH  17  18
ATOM     18  C   UNL     1      -6.275  -0.919  -1.389  0.00  0.00    -0.022 A 
ATOM     19  C   UNL     1      -6.591  -0.833  -0.074  0.00  0.00    +0.009 A 
ATOM     20  C   UNL     1      -7.390   0.210   0.357  0.00  0.00    +0.008 A 
ATOM     21  C   UNL     1      -7.834   1.115  -0.549  0.00  0.00    +0.045 A 
ATOM     22  S   UNL     1      -7.112   0.506  -2.064  0.00  0.00    -0.103 S 
ENDBRANCH  17  18
BRANCH  17  23
ATOM     23  N   UNL     1      -6.041  -2.274  -3.393  0.00  0.00    +0.382 N 
ATOM     24  C   UNL     1      -5.237  -3.301  -4.068  0.00  0.00    -0.096 C 
ATOM     25  C   UNL     1      -7.403  -2.781  -3.179  0.00  0.00    -0.096 C 
ATOM     26  H   UNL     1      -6.077  -1.444  -3.966  0.00  0.00    -0.082 HD
ENDBRANCH  17  23
ENDBRANCH  16  17
ENDBRANCH   4  16
TORSDOF 6
