REMARK  Name = ZINC13707962
REMARK  8 active torsions:
REMARK  status: ('A' for Active; 'I' for Inactive)
REMARK    1  A    between atoms: C_1  and  C_2
REMARK    2  A    between atoms: C_6  and  O_9
REMARK    3  A    between atoms: C_7  and  C_8
REMARK    4  A    between atoms: O_9  and  C_10
REMARK    5  A    between atoms: C_10  and  C_12
REMARK    6  A    between atoms: C_10  and  C_13
REMARK    7  A    between atoms: N_15  and  C_16
REMARK    8  A    between atoms: C_17  and  C_26
REMARK                            x       y       z     vdW  Elec       q    Type
REMARK                         _______ _______ _______ _____ _____    ______ ____
ROOT
ATOM      1  C   UNL     1       0.047   0.933   2.404  0.00  0.00    +0.258 C 
ATOM      2  O   UNL     1       0.724   1.736   3.013  0.00  0.00    -0.271 OA
ATOM      3  N   UNL     1      -0.054  -0.336   2.846  0.00  0.00    -0.277 N 
ATOM      4  H   UNL     1      -0.535  -0.995   2.322  0.00  0.00    +0.155 HD
ENDROOT
BRANCH   3   5
ATOM      5  C   UNL     1       0.538  -0.705   4.067  0.00  0.00    +0.121 A 
ATOM      6  C   UNL     1       1.487  -1.709   4.104  0.00  0.00    +0.068 A 
ATOM      7  N   UNL     1       2.033  -2.032   5.275  0.00  0.00    -0.226 NA
ATOM      8  C   UNL     1       1.678  -1.424   6.378  0.00  0.00    +0.180 A 
ATOM      9  N   UNL     1       0.744  -0.424   6.436  0.00  0.00    -0.260 N 
ATOM     10  C   UNL     1       0.165  -0.060   5.253  0.00  0.00    +0.280 A 
ATOM     11  O   UNL     1      -0.677   0.824   5.230  0.00  0.00    -0.265 OA
ATOM     12  C   UNL     1       0.485   0.111   7.676  0.00  0.00    +0.104 A 
ATOM     13  C   UNL     1       1.119  -0.331   8.762  0.00  0.00    +0.067 A 
ATOM     14  S   UNL     1       2.179  -1.595   8.078  0.00  0.00    -0.058 S 
ATOM     15  C   UNL     1       1.900  -2.421   2.842  0.00  0.00    +0.068 C 
ENDBRANCH   3   5
BRANCH   1  16
ATOM     16  C   UNL     1      -0.679   1.356   1.154  0.00  0.00    +0.256 C 
ATOM     17  C   UNL     1      -0.107   0.602  -0.048  0.00  0.00    +0.062 C 
BRANCH  16  18
ATOM     18  O   UNL     1      -0.512   2.762   0.958  0.00  0.00    -0.480 OA
BRANCH  18  24
ATOM     19  C   UNL     1      -2.166   6.871  -1.091  0.00  0.00    +0.044 C 
ATOM     20  C   UNL     1      -2.304   5.401  -0.793  0.00  0.00    -0.044 A 
ATOM     21  C   UNL     1      -3.399   4.699  -1.264  0.00  0.00    +0.004 A 
ATOM     22  C   UNL     1      -3.528   3.350  -0.991  0.00  0.00    +0.004 A 
ATOM     23  C   UNL     1      -2.559   2.698  -0.253  0.00  0.00    +0.046 A 
ATOM     24  C   UNL     1      -1.463   3.400   0.226  0.00  0.00    +0.125 A 
ATOM     25  C   UNL     1      -1.336   4.754  -0.049  0.00  0.00    -0.006 A 
ATOM     26  C   UNL     1      -0.143   5.519   0.465  0.00  0.00    +0.048 C 
ENDBRANCH  18  24
ENDBRANCH  16  18
ENDBRANCH   1  16
TORSDOF 4
