REMARK  Name = ZINC66134507
REMARK  8 active torsions:
REMARK  status: ('A' for Active; 'I' for Inactive)
REMARK    1  A    between atoms: C_1  and  C_2
REMARK    2  A    between atoms: C_6  and  C_21
REMARK    3  A    between atoms: C_7  and  O_8
REMARK    4  A    between atoms: O_8  and  C_9
REMARK    5  A    between atoms: C_9  and  C_10
REMARK    6  A    between atoms: C_11  and  C_17
REMARK    7  A    between atoms: C_12  and  C_16
REMARK    8  A    between atoms: N_19  and  N_20
REMARK                            x       y       z     vdW  Elec       q    Type
REMARK                         _______ _______ _______ _____ _____    ______ ____
ROOT
ATOM      1  C   UNL     1      -1.049   1.011   4.253  0.00  0.00    +0.086 A 
ATOM      2  C   UNL     1      -2.043   1.465   5.096  0.00  0.00    +0.084 A 
ATOM      3  C   UNL     1      -1.408   2.099   6.187  0.00  0.00    +0.072 A 
ATOM      4  N   UNL     1      -0.119   2.026   6.002  0.00  0.00    -0.178 NA
ATOM      5  N   UNL     1       0.129   1.347   4.804  0.00  0.00    -0.277 N 
ATOM      6  H   UNL     1       1.004   1.152   4.434  0.00  0.00    +0.189 HD
ATOM      7  C   UNL     1      -2.099   2.747   7.360  0.00  0.00    +0.068 C 
ENDROOT
BRANCH   2   8
ATOM      8  C   UNL     1      -3.496   1.316   4.896  0.00  0.00    +0.261 C 
ATOM      9  O   UNL     1      -4.073   0.338   5.332  0.00  0.00    -0.269 OA
ATOM     10  N   UNL     1      -4.185   2.263   4.228  0.00  0.00    -0.249 N 
ATOM     11  H   UNL     1      -3.725   3.042   3.880  0.00  0.00    +0.169 HD
BRANCH  10  12
ATOM     12  N   UNL     1      -5.531   2.124   4.042  0.00  0.00    -0.254 NA
ATOM     13  H   UNL     1      -6.008   2.008   4.924  0.00  0.00    +0.140 HD
ATOM     14  H   UNL     1      -5.907   2.907   3.528  0.00  0.00    +0.140 HD
ENDBRANCH  10  12
ENDBRANCH   2   8
BRANCH   1  15
ATOM     15  C   UNL     1      -1.248   0.270   2.957  0.00  0.00    +0.284 C 
BRANCH  15  16
ATOM     16  O   UNL     1       0.025  -0.033   2.381  0.00  0.00    -0.485 OA
BRANCH  16  23
ATOM     17  C   UNL     1      -0.018   1.503   0.010  0.00  0.00    +0.047 C 
ATOM     18  C   UNL     1       0.002  -0.004   0.002  0.00  0.00    -0.007 A 
ATOM     19  C   UNL     1       0.006  -0.689  -1.198  0.00  0.00    +0.022 A 
ATOM     20  C   UNL     1       0.025  -2.072  -1.206  0.00  0.00    +0.019 A 
ATOM     21  C   UNL     1       0.040  -2.772  -0.013  0.00  0.00    +0.022 A 
ATOM     22  C   UNL     1       0.036  -2.092   1.189  0.00  0.00    -0.007 A 
ATOM     23  C   UNL     1       0.023  -0.705   1.199  0.00  0.00    +0.127 A 
ATOM     24  C   UNL     1       0.053  -2.855   2.488  0.00  0.00    +0.047 C 
ATOM     25 BR   UNL     1       0.029  -3.006  -2.850  0.00  0.00    -0.050 Br
ENDBRANCH  16  23
ENDBRANCH  15  16
ENDBRANCH   1  15
TORSDOF 5
