REMARK  Name = ZINC15947545
REMARK  12 active torsions:
REMARK  status: ('A' for Active; 'I' for Inactive)
REMARK    1  A    between atoms: C_1  and  C_2
REMARK    2  A    between atoms: C_11  and  O_37
REMARK    3  A    between atoms: C_13  and  C_16
REMARK    4  A    between atoms: C_21  and  O_22
REMARK    5  A    between atoms: O_22  and  C_23
REMARK    6  A    between atoms: C_23  and  C_25
REMARK    7  A    between atoms: C_27  and  O_35
REMARK    8  A    between atoms: C_28  and  O_33
REMARK    9  A    between atoms: C_29  and  O_31
REMARK   10  A    between atoms: O_31  and  C_32
REMARK   11  A    between atoms: O_33  and  C_34
REMARK   12  A    between atoms: O_35  and  C_36
REMARK                            x       y       z     vdW  Elec       q    Type
REMARK                         _______ _______ _______ _____ _____    ______ ____
ROOT
ATOM      1  C   UNL     1       3.951  -6.301   0.300  0.00  0.00    +0.037 A 
ATOM      2  C   UNL     1       4.687  -5.838   1.374  0.00  0.00    +0.011 A 
ATOM      3  C   UNL     1       6.042  -5.601   1.235  0.00  0.00    +0.001 A 
ATOM      4  C   UNL     1       6.664  -5.826   0.021  0.00  0.00    +0.004 A 
ATOM      5  C   UNL     1       5.934  -6.289  -1.056  0.00  0.00    +0.047 A 
ATOM      6  C   UNL     1       4.575  -6.534  -0.917  0.00  0.00    +0.139 A 
ENDROOT
BRANCH   1  18
ATOM      7  C   UNL     1       0.103   1.603  -0.090  0.00  0.00    +0.008 C 
ATOM      8  C   UNL     1       0.101   0.073  -0.083  0.00  0.00    -0.009 C 
ATOM      9  C   UNL     1       0.820  -0.447  -1.331  0.00  0.00    +0.008 C 
ATOM     10  C   UNL     1       0.610  -1.957  -1.462  0.00  0.00    +0.037 C 
ATOM     11  C   UNL     1       0.998  -2.619  -0.148  0.00  0.00    -0.023 A 
ATOM     12  C   UNL     1       1.088  -1.903   0.997  0.00  0.00    -0.004 A 
ATOM     13  S   UNL     1       1.560  -3.083   2.232  0.00  0.00    -0.078 S 
ATOM     14  C   UNL     1       1.639  -4.447   1.293  0.00  0.00    +0.080 A 
ATOM     15  C   UNL     1       1.298  -4.032   0.001  0.00  0.00    +0.068 A 
ATOM     16  C   UNL     1       1.271  -5.066  -1.066  0.00  0.00    +0.220 C 
ATOM     17  N   UNL     1       1.802  -6.228  -0.797  0.00  0.00    -0.223 NA
ATOM     18  C   UNL     1       2.475  -6.559   0.453  0.00  0.00    +0.227 C 
ATOM     19  N   UNL     1       1.960  -5.755   1.577  0.00  0.00    -0.313 N 
ATOM     20  C   UNL     1       0.836  -0.437   1.165  0.00  0.00    +0.046 C 
ATOM     21  H   UNL     1       1.854  -6.127   2.466  0.00  0.00    +0.149 HD
BRANCH  16  22
ATOM     22  O   UNL     1       0.717  -4.812  -2.274  0.00  0.00    -0.492 OA
ATOM     23  H   UNL     1       0.756  -5.557  -2.889  0.00  0.00    +0.294 HD
ENDBRANCH  16  22
ENDBRANCH   1  18
BRANCH   6  24
ATOM     24  O   UNL     1       3.855  -6.995  -1.973  0.00  0.00    -0.422 OA
BRANCH  24  25
ATOM     25  C   UNL     1       3.688  -8.326  -2.092  0.00  0.00    +0.345 C 
ATOM     26  O   UNL     1       4.093  -9.070  -1.221  0.00  0.00    -0.245 OA
BRANCH  25  27
ATOM     27  C   UNL     1       3.013  -8.882  -3.280  0.00  0.00    +0.067 A 
ATOM     28  C   UNL     1       2.551  -8.028  -4.286  0.00  0.00    +0.064 A 
ATOM     29  C   UNL     1       1.920  -8.552  -5.399  0.00  0.00    +0.166 A 
ATOM     30  C   UNL     1       1.744  -9.928  -5.518  0.00  0.00    +0.204 A 
ATOM     31  C   UNL     1       2.203 -10.780  -4.517  0.00  0.00    +0.166 A 
ATOM     32  C   UNL     1       2.840 -10.263  -3.405  0.00  0.00    +0.064 A 
BRANCH  31  33
ATOM     33  O   UNL     1       2.028 -12.124  -4.636  0.00  0.00    -0.491 OA
ATOM     34  C   UNL     1       2.524 -12.940  -3.573  0.00  0.00    +0.277 C 
ENDBRANCH  31  33
BRANCH  30  35
ATOM     35  O   UNL     1       1.122 -10.440  -6.612  0.00  0.00    -0.488 OA
ATOM     36  C   UNL     1       1.948 -10.777  -7.729  0.00  0.00    +0.277 C 
ENDBRANCH  30  35
BRANCH  29  37
ATOM     37  O   UNL     1       1.470  -7.722  -6.378  0.00  0.00    -0.491 OA
ATOM     38  C   UNL     1       1.684  -6.322  -6.190  0.00  0.00    +0.277 C 
ENDBRANCH  29  37
ENDBRANCH  25  27
ENDBRANCH  24  25
ENDBRANCH   6  24
TORSDOF 8
