REMARK  Name = ZINC59378365
REMARK  5 active torsions:
REMARK  status: ('A' for Active; 'I' for Inactive)
REMARK    1  A    between atoms: C_4  and  C_7
REMARK    2  A    between atoms: C_9  and  C_13
REMARK    3  A    between atoms: N_14  and  N_15
REMARK    4  A    between atoms: C_16  and  C_18
REMARK    5  A    between atoms: C_27  and  O_28
REMARK                            x       y       z     vdW  Elec       q    Type
REMARK                         _______ _______ _______ _____ _____    ______ ____
ROOT
ATOM      1  N   UNL     1       5.578  -5.946  -0.103  0.00  0.00    -0.203 N 
ATOM      2  C   UNL     1       4.789  -7.039  -0.107  0.00  0.00    +0.267 C 
ATOM      3  O   UNL     1       3.579  -6.915  -0.096  0.00  0.00    -0.268 OA
ATOM      4  H   UNL     1       6.543  -6.045  -0.111  0.00  0.00    +0.178 HD
ENDROOT
BRANCH   2   5
ATOM      5  C   UNL     1       5.393  -8.385  -0.124  0.00  0.00    +0.080 A 
ATOM      6  C   UNL     1       6.771  -8.521  -0.131  0.00  0.00    +0.025 A 
ATOM      7  C   UNL     1       7.339  -9.803  -0.147  0.00  0.00    -0.017 A 
ATOM      8  C   UNL     1       8.735  -9.978  -0.154  0.00  0.00    +0.008 A 
ATOM      9  C   UNL     1       9.256 -11.235  -0.169  0.00  0.00    +0.001 A 
ATOM     10  C   UNL     1       8.427 -12.355  -0.180  0.00  0.00    +0.001 A 
ATOM     11  C   UNL     1       7.072 -12.226  -0.174  0.00  0.00    +0.008 A 
ATOM     12  C   UNL     1       6.495 -10.944  -0.157  0.00  0.00    -0.014 A 
ATOM     13  C   UNL     1       5.100 -10.779  -0.150  0.00  0.00    +0.054 A 
ATOM     14  C   UNL     1       4.562  -9.526  -0.129  0.00  0.00    +0.130 A 
BRANCH  14  15
ATOM     15  O   UNL     1       3.213  -9.374  -0.116  0.00  0.00    -0.506 OA
ATOM     16  H   UNL     1       2.815  -9.322  -0.996  0.00  0.00    +0.292 HD
ENDBRANCH  14  15
ENDBRANCH   2   5
BRANCH   1  18
ATOM     17  C   UNL     1       5.766  -3.616  -0.082  0.00  0.00    +0.162 C 
ATOM     18  N   UNL     1       5.005  -4.668  -0.086  0.00  0.00    -0.186 NA
BRANCH  17  21
ATOM     19  C   UNL     1       3.695  -0.685  -0.037  0.00  0.00    +0.230 A 
ATOM     20  N   UNL     1       3.842  -1.986  -0.051  0.00  0.00    -0.206 NA
ATOM     21  C   UNL     1       5.163  -2.271  -0.065  0.00  0.00    +0.141 A 
ATOM     22  C   UNL     1       5.835  -1.085  -0.059  0.00  0.00    +0.224 A 
ATOM     23  O   UNL     1       4.910  -0.107  -0.047  0.00  0.00    -0.423 OA
ATOM     24 CL   UNL     1       7.558  -0.875  -0.070  0.00  0.00    -0.041 Cl
BRANCH  19  28
ATOM     25  C   UNL     1      -0.017   1.379   0.010  0.00  0.00    +0.000 A 
ATOM     26  C   UNL     1       1.168   2.093   0.002  0.00  0.00    +0.001 A 
ATOM     27  C   UNL     1       2.377   1.429  -0.013  0.00  0.00    +0.013 A 
ATOM     28  C   UNL     1       2.403   0.034  -0.021  0.00  0.00    +0.037 A 
ATOM     29  C   UNL     1       1.204  -0.681  -0.013  0.00  0.00    +0.013 A 
ATOM     30  C   UNL     1       0.002  -0.004   0.002  0.00  0.00    +0.001 A 
ENDBRANCH  19  28
ENDBRANCH  17  21
ENDBRANCH   1  18
TORSDOF 5
