REMARK  Name = ZINC09504836
REMARK  9 active torsions:
REMARK  status: ('A' for Active; 'I' for Inactive)
REMARK    1  A    between atoms: C_1  and  C_2
REMARK    2  A    between atoms: C_2  and  C_3
REMARK    3  A    between atoms: C_8  and  C_12
REMARK    4  A    between atoms: C_8  and  C_13
REMARK    5  A    between atoms: N_21  and  C_22
REMARK    6  A    between atoms: C_22  and  C_23
REMARK    7  A    between atoms: N_25  and  C_26
REMARK    8  A    between atoms: C_26  and  C_27
REMARK    9  A    between atoms: C_27  and  C_28
REMARK                            x       y       z     vdW  Elec       q    Type
REMARK                         _______ _______ _______ _____ _____    ______ ____
ROOT
ATOM      1  C   UNL     1      -6.370  -5.047   3.801  0.00  0.00    +0.109 C 
ATOM      2  C   UNL     1      -6.615  -5.723   5.127  0.00  0.00    +0.032 C 
ATOM      3  C   UNL     1      -6.450  -5.032   6.243  0.00  0.00    +0.017 C 
ATOM      4  C   UNL     1      -6.662  -5.641   7.606  0.00  0.00    +0.058 C 
ATOM      5  C   UNL     1      -7.714  -6.750   7.499  0.00  0.00    -0.023 C 
ATOM      6  C   UNL     1      -7.253  -7.771   6.455  0.00  0.00    +0.086 C 
ATOM      7  C   UNL     1      -7.011  -7.071   5.143  0.00  0.00    +0.163 C 
ATOM      8  O   UNL     1      -7.158  -7.673   4.098  0.00  0.00    -0.292 OA
ATOM      9  C   UNL     1      -9.053  -6.146   7.068  0.00  0.00    +0.011 C 
ATOM     10  C   UNL     1      -7.873  -7.439   8.855  0.00  0.00    +0.011 C 
ATOM     11  N   UNL     1      -6.084  -3.723   6.132  0.00  0.00    -0.316 N 
ATOM     12  C   UNL     1      -4.823  -3.353   5.664  0.00  0.00    +0.052 A 
ATOM     13  C   UNL     1      -4.029  -2.526   6.442  0.00  0.00    +0.025 A 
ATOM     14  C   UNL     1      -2.838  -2.030   5.951  0.00  0.00    +0.002 A 
ATOM     15  C   UNL     1      -2.444  -2.361   4.667  0.00  0.00    +0.002 A 
ATOM     16  C   UNL     1      -3.198  -3.228   3.910  0.00  0.00    +0.025 A 
ATOM     17  C   UNL     1      -4.380  -3.790   4.408  0.00  0.00    +0.052 A 
ATOM     18  N   UNL     1      -4.969  -4.761   3.603  0.00  0.00    -0.312 N 
ATOM     19  H   UNL     1      -6.716  -3.032   6.385  0.00  0.00    +0.152 HD
ENDROOT
BRANCH   1  21
ATOM     20  C   UNL     1      -7.108  -3.159   2.341  0.00  0.00    +0.006 C 
ATOM     21  C   UNL     1      -7.159  -3.737   3.757  0.00  0.00    +0.024 C 
ENDBRANCH   1  21
BRANCH  18  22
ATOM     22  C   UNL     1      -4.678  -4.516   2.184  0.00  0.00    +0.201 C 
BRANCH  22  23
ATOM     23  C   UNL     1      -5.111  -5.708   1.369  0.00  0.00    +0.230 C 
ATOM     24  O   UNL     1      -5.486  -6.718   1.925  0.00  0.00    -0.274 OA
ATOM     25  N   UNL     1      -5.080  -5.651   0.023  0.00  0.00    -0.314 N 
ATOM     26  H   UNL     1      -4.780  -4.843  -0.421  0.00  0.00    +0.149 HD
BRANCH  25  27
ATOM     27  C   UNL     1      -5.501  -6.810  -0.769  0.00  0.00    +0.109 C 
BRANCH  27  28
ATOM     28  C   UNL     1      -5.371  -6.484  -2.258  0.00  0.00    +0.056 C 
BRANCH  28  29
ATOM     29  C   UNL     1      -5.803  -7.676  -3.072  0.00  0.00    -0.021 A 
ATOM     30  C   UNL     1      -5.005  -8.630  -3.577  0.00  0.00    +0.087 A 
ATOM     31  N   UNL     1      -5.753  -9.550  -4.260  0.00  0.00    -0.360 N 
ATOM     32  H   UNL     1      -5.398 -10.332  -4.711  0.00  0.00    +0.165 HD
ATOM     33  C   UNL     1      -7.084  -9.202  -4.211  0.00  0.00    +0.047 A 
ATOM     34  C   UNL     1      -7.174  -8.012  -3.465  0.00  0.00    +0.003 A 
ATOM     35  C   UNL     1      -8.419  -7.418  -3.249  0.00  0.00    +0.010 A 
ATOM     36  C   UNL     1      -9.545  -7.996  -3.764  0.00  0.00    +0.001 A 
ATOM     37  C   UNL     1      -9.461  -9.169  -4.500  0.00  0.00    +0.002 A 
ATOM     38  C   UNL     1      -8.243  -9.773  -4.726  0.00  0.00    +0.026 A 
ENDBRANCH  28  29
ENDBRANCH  27  28
ENDBRANCH  25  27
ENDBRANCH  22  23
ENDBRANCH  18  22
TORSDOF 6
