REMARK  Name = ZINC39695304
REMARK  10 active torsions:
REMARK  status: ('A' for Active; 'I' for Inactive)
REMARK    1  A    between atoms: C_1  and  C_2
REMARK    2  A    between atoms: C_2  and  C_3
REMARK    3  A    between atoms: C_3  and  C_5
REMARK    4  A    between atoms: C_3  and  N_11
REMARK    5  A    between atoms: C_12  and  C_14
REMARK    6  A    between atoms: C_25  and  C_27
REMARK    7  A    between atoms: C_31  and  O_34
REMARK    8  A    between atoms: C_32  and  C_33
REMARK    9  A    between atoms: O_34  and  C_35
REMARK   10  A    between atoms: C_35  and  C_37
REMARK                            x       y       z     vdW  Elec       q    Type
REMARK                         _______ _______ _______ _____ _____    ______ ____
ROOT
ATOM      1  C   UNL     1      -0.786   1.847  -4.547  0.00  0.00    +0.100 C 
ATOM      2  C   UNL     1      -0.583   0.573  -5.398  0.00  0.00    +0.121 C 
ATOM      3  N   UNL     1      -0.217   1.077  -6.743  0.00  0.00    -0.296 N 
ATOM      4  C   UNL     1       0.673   2.231  -6.475  0.00  0.00    +0.115 C 
ATOM      5  C   UNL     1       0.041   2.932  -5.256  0.00  0.00    -0.004 C 
ATOM      6  C   UNL     1       1.130   3.458  -4.327  0.00  0.00    -0.010 C 
ATOM      7  C   UNL     1       1.901   4.577  -5.033  0.00  0.00    -0.082 C 
ATOM      8  N   UNL     1       0.976   5.657  -5.397  0.00  0.00    +0.379 N 
ATOM      9  C   UNL     1      -0.013   5.165  -6.364  0.00  0.00    -0.082 C 
ATOM     10  C   UNL     1      -0.865   4.072  -5.713  0.00  0.00    -0.010 C 
ATOM     11  C   UNL     1      -0.606   0.594  -7.940  0.00  0.00    +0.247 C 
ATOM     12  O   UNL     1      -0.133   1.050  -8.962  0.00  0.00    -0.270 OA
ATOM     13  H   UNL     1       0.501   5.985  -4.569  0.00  0.00    -0.086 HD
ATOM     14  H   UNL     1       1.495   6.419  -5.807  0.00  0.00    -0.086 HD
ENDROOT
BRANCH  11  15
ATOM     15  C   UNL     1      -1.609  -0.490  -8.009  0.00  0.00    +0.043 A 
ATOM     16  C   UNL     1      -1.597  -1.517  -7.063  0.00  0.00    +0.013 A 
ATOM     17  C   UNL     1      -2.535  -2.527  -7.130  0.00  0.00    +0.004 A 
ATOM     18  C   UNL     1      -3.488  -2.526  -8.133  0.00  0.00    +0.047 A 
ATOM     19  C   UNL     1      -3.508  -1.509  -9.077  0.00  0.00    +0.135 A 
ATOM     20  C   UNL     1      -2.574  -0.488  -9.016  0.00  0.00    +0.004 A 
ATOM     21  C   UNL     1      -2.598   0.620 -10.037  0.00  0.00    +0.048 C 
BRANCH  19  22
ATOM     22  O   UNL     1      -4.447  -1.513 -10.060  0.00  0.00    -0.426 OA
BRANCH  22  23
ATOM     23  C   UNL     1      -4.118  -2.054 -11.244  0.00  0.00    +0.309 C 
ATOM     24  O   UNL     1      -3.049  -2.601 -11.382  0.00  0.00    -0.251 OA
ATOM     25  C   UNL     1      -5.081  -1.978 -12.401  0.00  0.00    +0.136 C 
ENDBRANCH  22  23
ENDBRANCH  19  22
ENDBRANCH  11  15
BRANCH   1  27
ATOM     26  N   UNL     1      -0.835   2.289  -2.114  0.00  0.00    -0.308 N 
ATOM     27  C   UNL     1      -0.274   1.629  -3.146  0.00  0.00    +0.219 C 
ATOM     28  O   UNL     1       0.642   0.859  -2.948  0.00  0.00    -0.275 OA
ATOM     29  H   UNL     1      -1.521   2.954  -2.278  0.00  0.00    +0.149 HD
BRANCH  26  30
ATOM     30  C   UNL     1      -0.406   2.003  -0.742  0.00  0.00    +0.103 C 
BRANCH  30  31
ATOM     31  C   UNL     1      -1.589   2.105   0.185  0.00  0.00    -0.027 A 
ATOM     32  C   UNL     1      -2.525   3.107   0.005  0.00  0.00    +0.005 A 
ATOM     33  C   UNL     1      -3.610   3.200   0.856  0.00  0.00    +0.000 A 
ATOM     34  C   UNL     1      -3.761   2.291   1.887  0.00  0.00    +0.000 A 
ATOM     35  C   UNL     1      -2.826   1.288   2.066  0.00  0.00    +0.000 A 
ATOM     36  C   UNL     1      -1.743   1.193   1.213  0.00  0.00    +0.005 A 
ENDBRANCH  30  31
BRANCH  30  38
ATOM     37  C   UNL     1       1.917   2.818  -1.172  0.00  0.00    +0.006 C 
ATOM     38  C   UNL     1       0.661   3.015  -0.320  0.00  0.00    +0.024 C 
ENDBRANCH  30  38
ENDBRANCH  26  30
ENDBRANCH   1  27
TORSDOF 7
