REMARK  Name = ZINC32322750
REMARK  4 active torsions:
REMARK  status: ('A' for Active; 'I' for Inactive)
REMARK    1  A    between atoms: C_6  and  C_7
REMARK    2  A    between atoms: C_7  and  C_9
REMARK    3  A    between atoms: C_9  and  S_10
REMARK    4  A    between atoms: S_10  and  C_11
REMARK                            x       y       z     vdW  Elec       q    Type
REMARK                         _______ _______ _______ _____ _____    ______ ____
ROOT
ATOM      1  C   UNL     1       6.437  -0.817  -0.061  0.00  0.00    +0.173 C 
ATOM      2  O   UNL     1       7.426  -0.114  -0.066  0.00  0.00    -0.291 OA
ENDROOT
BRANCH   1   8
ATOM      3  C   UNL     1       5.441  -3.100  -0.063  0.00  0.00    +0.013 A 
ATOM      4  C   UNL     1       5.600  -4.460  -0.067  0.00  0.00    +0.024 A 
ATOM      5  C   UNL     1       6.877  -5.054  -0.076  0.00  0.00    +0.037 A 
ATOM      6  C   UNL     1       7.995  -4.240  -0.091  0.00  0.00    -0.025 A 
ATOM      7  C   UNL     1       7.839  -2.869  -0.090  0.00  0.00    +0.016 A 
ATOM      8  C   UNL     1       6.576  -2.279  -0.069  0.00  0.00    +0.019 A 
ATOM      9  C   UNL     1       9.409  -4.723  -0.119  0.00  0.00    +0.037 C 
ATOM     10  C   UNL     1       9.658  -5.967  -0.912  0.00  0.00    +0.014 C 
ATOM     11  C   UNL     1       9.234  -7.229  -0.200  0.00  0.00    +0.096 C 
ATOM     12  C   UNL     1       7.754  -7.375  -0.165  0.00  0.00    +0.217 C 
ATOM     13  O   UNL     1       7.321  -8.503  -0.260  0.00  0.00    -0.275 OA
ATOM     14  N   UNL     1       6.873  -6.423  -0.043  0.00  0.00    -0.285 N 
ATOM     15  H   UNL     1       5.931  -6.967   0.124  0.00  0.00    +0.155 HD
ENDBRANCH   1   8
BRANCH   1  16
ATOM     16  C   UNL     1       5.067  -0.191  -0.045  0.00  0.00    +0.156 C 
BRANCH  16  17
ATOM     17  S   UNL     1       5.228   1.612  -0.037  0.00  0.00    -0.091 S 
BRANCH  17  18
ATOM     18  C   UNL     1       3.526   2.071  -0.019  0.00  0.00    +0.136 A 
ATOM     19  N   UNL     1       2.464   1.297  -0.014  0.00  0.00    -0.233 NA
ATOM     20  C   UNL     1       1.207   1.792   0.000  0.00  0.00    +0.081 A 
ATOM     21  C   UNL     1      -0.013   1.076   0.008  0.00  0.00    +0.049 A 
ATOM     22  C   UNL     1      -1.214   1.738   0.017  0.00  0.00    +0.043 A 
ATOM     23  C   UNL     1      -1.277   3.125   0.031  0.00  0.00    +0.021 A 
ATOM     24  C   UNL     1      -0.103   3.856   0.023  0.00  0.00    +0.018 A 
ATOM     25  C   UNL     1       1.103   3.201   0.008  0.00  0.00    +0.040 A 
ATOM     26  S   UNL     1       2.807   3.707  -0.004  0.00  0.00    -0.061 S 
ATOM     27 CL   UNL     1      -2.688   0.821   0.019  0.00  0.00    -0.083 Cl
ENDBRANCH  17  18
ENDBRANCH  16  17
ENDBRANCH   1  16
TORSDOF 4
