REMARK  Name = ZINC35560062
REMARK  10 active torsions:
REMARK  status: ('A' for Active; 'I' for Inactive)
REMARK    1  A    between atoms: C_1  and  C_2
REMARK    2  A    between atoms: C_2  and  C_3
REMARK    3  A    between atoms: C_12  and  C_13
REMARK    4  A    between atoms: C_13  and  C_15
REMARK    5  A    between atoms: C_13  and  C_28
REMARK    6  A    between atoms: C_15  and  C_16
REMARK    7  A    between atoms: C_20  and  C_27
REMARK    8  A    between atoms: C_23  and  C_26
REMARK    9  A    between atoms: C_31  and  C_35
REMARK   10  A    between atoms: C_33  and  C_34
REMARK                            x       y       z     vdW  Elec       q    Type
REMARK                         _______ _______ _______ _____ _____    ______ ____
ROOT
ATOM      1  C   UNL     1      -5.647  -1.571  -3.254  0.00  0.00    +0.060 C 
ENDROOT
BRANCH   1  11
ATOM      2  C   UNL     1      -2.187   0.342  -0.168  0.00  0.00    -0.024 A 
ATOM      3  C   UNL     1      -2.793   0.014   1.025  0.00  0.00    +0.005 A 
ATOM      4  C   UNL     1      -4.009  -0.654   1.041  0.00  0.00    +0.001 A 
ATOM      5  C   UNL     1      -4.628  -0.999  -0.128  0.00  0.00    +0.010 A 
ATOM      6  C   UNL     1      -4.032  -0.676  -1.348  0.00  0.00    +0.004 A 
ATOM      7  C   UNL     1      -2.801   0.006  -1.370  0.00  0.00    +0.050 A 
ATOM      8  N   UNL     1      -2.463   0.192  -2.692  0.00  0.00    -0.360 N 
ATOM      9  H   UNL     1      -1.659   0.634  -3.005  0.00  0.00    +0.165 HD
ATOM     10  C   UNL     1      -3.432  -0.340  -3.499  0.00  0.00    +0.088 A 
ATOM     11  C   UNL     1      -4.403  -0.886  -2.749  0.00  0.00    -0.015 A 
BRANCH   2  13
ATOM     12  C   UNL     1      -1.112   2.573  -0.297  0.00  0.00    +0.009 C 
ATOM     13  C   UNL     1      -0.866   1.068  -0.171  0.00  0.00    +0.034 C 
ENDBRANCH   2  13
ENDBRANCH   1  11
BRANCH   1  14
ATOM     14  C   UNL     1      -5.259  -2.766  -4.088  0.00  0.00    -0.037 A 
ATOM     15  C   UNL     1      -4.602  -2.585  -5.291  0.00  0.00    +0.005 A 
ATOM     16  C   UNL     1      -4.246  -3.680  -6.055  0.00  0.00    +0.003 A 
ATOM     17  C   UNL     1      -4.547  -4.957  -5.616  0.00  0.00    -0.050 A 
ATOM     18  C   UNL     1      -5.203  -5.137  -4.413  0.00  0.00    +0.007 A 
ATOM     19  C   UNL     1      -5.555  -4.042  -3.647  0.00  0.00    -0.046 A 
ATOM     20  C   UNL     1      -6.266  -4.239  -2.332  0.00  0.00    +0.044 C 
ATOM     21  C   UNL     1      -4.160  -6.151  -6.450  0.00  0.00    +0.044 C 
ENDBRANCH   1  14
BRANCH   1  22
ATOM     22  C   UNL     1      -6.456  -0.594  -4.109  0.00  0.00    +0.109 C 
BRANCH  22  23
ATOM     23  C   UNL     1      -7.758  -1.239  -4.512  0.00  0.00    +0.217 C 
ATOM     24  O   UNL     1      -8.012  -2.368  -4.151  0.00  0.00    -0.276 OA
ATOM     25  N   UNL     1      -8.638  -0.560  -5.274  0.00  0.00    -0.297 N 
ATOM     26  C   UNL     1      -8.349   0.809  -5.729  0.00  0.00    +0.139 C 
ATOM     27  C   UNL     1      -8.582   0.875  -7.242  0.00  0.00    +0.133 C 
ATOM     28  O   UNL     1      -9.886   0.370  -7.540  0.00  0.00    -0.371 OA
ATOM     29  C   UNL     1     -10.075  -1.004  -7.191  0.00  0.00    +0.133 C 
ATOM     30  C   UNL     1      -9.915  -1.168  -5.680  0.00  0.00    +0.139 C 
ATOM     31  C   UNL     1     -11.477  -1.450  -7.611  0.00  0.00    +0.039 C 
ATOM     32  C   UNL     1      -7.529   0.029  -7.960  0.00  0.00    +0.039 C 
ENDBRANCH  22  23
ENDBRANCH   1  22
TORSDOF 5
