REMARK  Name = ZINC32594777
REMARK  5 active torsions:
REMARK  status: ('A' for Active; 'I' for Inactive)
REMARK    1  A    between atoms: N_10  and  N_11
REMARK    2  A    between atoms: C_15  and  C_16
REMARK    3  A    between atoms: C_21  and  O_22
REMARK    4  A    between atoms: O_22  and  C_23
REMARK    5  A    between atoms: C_23  and  C_24
REMARK                            x       y       z     vdW  Elec       q    Type
REMARK                         _______ _______ _______ _____ _____    ______ ____
ROOT
ATOM      1  N   UNL     1       1.383  -2.026  -0.439  0.00  0.00    -0.170 N 
ATOM      2  C   UNL     1       1.470  -0.713  -0.306  0.00  0.00    +0.275 C 
ATOM      3  O   UNL     1       2.544  -0.140  -0.308  0.00  0.00    -0.267 OA
ATOM      4  C   UNL     1       0.199   0.022  -0.149  0.00  0.00    +0.079 C 
ATOM      5  C   UNL     1      -0.016   1.353   0.009  0.00  0.00    +0.032 C 
ATOM      6  S   UNL     1      -0.977  -1.321  -0.232  0.00  0.00    -0.059 S 
ATOM      7  C   UNL     1       0.190  -2.655  -0.443  0.00  0.00    +0.138 C 
ATOM      8  S   UNL     1      -0.128  -4.330  -0.609  0.00  0.00    -0.026 S 
ENDROOT
BRANCH   1  18
ATOM      9  C   UNL     1       2.747  -4.282  -6.465  0.00  0.00    +0.002 A 
ATOM     10  C   UNL     1       3.938  -4.978  -6.321  0.00  0.00    +0.001 A 
ATOM     11  C   UNL     1       4.534  -5.049  -5.074  0.00  0.00    +0.017 A 
ATOM     12  C   UNL     1       3.939  -4.432  -4.003  0.00  0.00    +0.041 A 
ATOM     13  C   UNL     1       2.726  -3.715  -4.112  0.00  0.00    +0.080 A 
ATOM     14  C   UNL     1       2.146  -3.662  -5.401  0.00  0.00    +0.029 A 
ATOM     15  N   UNL     1       2.263  -3.168  -2.967  0.00  0.00    -0.224 NA
ATOM     16  C   UNL     1       2.901  -3.282  -1.823  0.00  0.00    +0.176 A 
ATOM     17  S   UNL     1       4.325  -4.262  -2.277  0.00  0.00    -0.051 S 
ATOM     18  N   UNL     1       2.555  -2.779  -0.586  0.00  0.00    -0.234 N 
ATOM     19  H   UNL     1       3.200  -2.969   0.285  0.00  0.00    +0.173 HD
ENDBRANCH   1  18
BRANCH   5  20
ATOM     20  C   UNL     1      -1.384   1.885  -0.028  0.00  0.00    +0.019 A 
ATOM     21  C   UNL     1      -2.419   1.128  -0.590  0.00  0.00    +0.031 A 
ATOM     22  C   UNL     1      -3.702   1.631  -0.616  0.00  0.00    +0.042 A 
ATOM     23  C   UNL     1      -3.970   2.889  -0.098  0.00  0.00    +0.023 A 
ATOM     24  C   UNL     1      -2.957   3.649   0.455  0.00  0.00    +0.048 A 
ATOM     25  C   UNL     1      -1.662   3.158   0.495  0.00  0.00    +0.128 A 
ATOM     26 CL   UNL     1      -4.986   0.690  -1.307  0.00  0.00    -0.084 Cl
BRANCH  25  27
ATOM     27  O   UNL     1      -0.666   3.905   1.038  0.00  0.00    -0.482 OA
BRANCH  27  28
ATOM     28  C   UNL     1      -1.025   5.190   1.550  0.00  0.00    +0.324 C 
BRANCH  28  29
ATOM     29  C   UNL     1       0.201   5.867   2.107  0.00  0.00    +0.248 C 
ATOM     30  O   UNL     1       1.274   5.305   2.070  0.00  0.00    -0.272 OA
ATOM     31  N   UNL     1       0.103   7.098   2.647  0.00  0.00    -0.327 N 
ATOM     32  H   UNL     1       0.997   7.593   3.055  0.00  0.00    +0.145 HD
ATOM     33  H   UNL     1      -0.871   7.608   2.681  0.00  0.00    +0.145 HD
ENDBRANCH  28  29
ENDBRANCH  27  28
ENDBRANCH  25  27
ENDBRANCH   5  20
TORSDOF 5
