REMARK  Name = ZINC15836639
REMARK  3 active torsions:
REMARK  status: ('A' for Active; 'I' for Inactive)
REMARK    1  A    between atoms: C_5  and  C_7
REMARK    2  A    between atoms: N_12  and  S_13
REMARK    3  A    between atoms: S_13  and  C_16
REMARK                            x       y       z     vdW  Elec       q    Type
REMARK                         _______ _______ _______ _____ _____    ______ ____
ROOT
ATOM      1  C   UNL     1      -0.188   1.002   0.177  0.00  0.00    +0.113 C 
ATOM      2  C   UNL     1       1.260   1.514   0.330  0.00  0.00    +0.027 C 
ATOM      3  C   UNL     1       1.688   1.790  -1.135  0.00  0.00    +0.019 C 
ATOM      4  C   UNL     1       0.364   2.302  -1.754  0.00  0.00    +0.110 C 
ATOM      5  N   UNL     1      -0.690   1.493  -1.114  0.00  0.00    -0.169 NA
ENDROOT
BRANCH   1  10
ATOM      6  C   UNL     1      -2.528   3.204   2.160  0.00  0.00    +0.000 A 
ATOM      7  C   UNL     1      -2.607   2.517   3.358  0.00  0.00    +0.003 A 
ATOM      8  C   UNL     1      -1.904   1.340   3.527  0.00  0.00    +0.038 A 
ATOM      9  C   UNL     1      -1.119   0.848   2.498  0.00  0.00    +0.128 A 
ATOM     10  C   UNL     1      -1.041   1.536   1.299  0.00  0.00    +0.007 A 
ATOM     11  C   UNL     1      -1.741   2.717   1.134  0.00  0.00    +0.008 A 
ATOM     12  F   UNL     1      -0.431  -0.303   2.663  0.00  0.00    -0.205 F 
ENDBRANCH   1  10
BRANCH   5  13
ATOM     13  S   UNL     1      -2.190   1.188  -1.746  0.00  0.00    +0.063 S 
ATOM     14  O   UNL     1      -3.061   0.982  -0.642  0.00  0.00    -0.153 OA
ATOM     15  O   UNL     1      -2.428   2.187  -2.728  0.00  0.00    -0.153 OA
BRANCH  13  16
ATOM     16  C   UNL     1      -2.092  -0.348  -2.603  0.00  0.00    +0.134 A 
ATOM     17  C   UNL     1      -2.794  -1.417  -2.159  0.00  0.00    +0.031 A 
ATOM     18  C   UNL     1      -2.745  -2.647  -2.816  0.00  0.00    +0.004 A 
ATOM     19  C   UNL     1      -1.983  -2.830  -3.921  0.00  0.00    +0.031 A 
ATOM     20  C   UNL     1      -1.215  -1.755  -4.439  0.00  0.00    +0.102 A 
ATOM     21  C   UNL     1      -1.272  -0.466  -3.755  0.00  0.00    +0.126 A 
ATOM     22  N   UNL     1      -0.506   0.448  -4.347  0.00  0.00    -0.189 NA
ATOM     23  S   UNL     1       0.159  -0.265  -5.574  0.00  0.00    +0.117 S 
ATOM     24  N   UNL     1      -0.411  -1.723  -5.500  0.00  0.00    -0.191 NA
ENDBRANCH  13  16
ENDBRANCH   5  13
TORSDOF 3
