REMARK  Name = ZINC19927013
REMARK  4 active torsions:
REMARK  status: ('A' for Active; 'I' for Inactive)
REMARK    1  A    between atoms: C_1  and  C_2
REMARK    2  A    between atoms: C_2  and  C_3
REMARK    3  A    between atoms: C_6  and  C_9
REMARK    4  A    between atoms: C_19  and  C_21
REMARK                            x       y       z     vdW  Elec       q    Type
REMARK                         _______ _______ _______ _____ _____    ______ ____
ROOT
ATOM      1  C   UNL     1      -2.514   0.980   0.019  0.00  0.00    +0.172 C 
ATOM      2  N   UNL     1      -3.582   1.736  -0.660  0.00  0.00    -0.233 N 
ATOM      3  C   UNL     1      -4.771   1.842  -0.080  0.00  0.00    +0.232 C 
ATOM      4  O   UNL     1      -5.676   2.452  -0.608  0.00  0.00    -0.274 OA
ATOM      5  C   UNL     1      -4.956   1.172   1.272  0.00  0.00    +0.167 C 
ATOM      6  S   UNL     1      -3.199   0.839   1.726  0.00  0.00    -0.124 S 
ATOM      7  C   UNL     1      -3.347   2.332  -1.893  0.00  0.00    +0.168 A 
ATOM      8  N   UNL     1      -2.243   2.334  -2.615  0.00  0.00    -0.233 NA
ATOM      9  C   UNL     1      -2.188   2.955  -3.777  0.00  0.00    +0.124 A 
ATOM     10  C   UNL     1      -3.297   3.596  -4.220  0.00  0.00    +0.008 A 
ATOM     11  S   UNL     1      -4.433   3.257  -2.883  0.00  0.00    -0.057 S 
ATOM     12  C   UNL     1      -3.514   4.375  -5.492  0.00  0.00    +0.053 C 
ENDROOT
BRANCH   1  16
ATOM     13  C   UNL     1       1.156   3.165   0.008  0.00  0.00    -0.048 A 
ATOM     14  C   UNL     1       1.175   1.783   0.000  0.00  0.00    +0.004 A 
ATOM     15  C   UNL     1      -0.013   1.076   0.008  0.00  0.00    +0.006 A 
ATOM     16  C   UNL     1      -1.219   1.751   0.017  0.00  0.00    -0.017 A 
ATOM     17  C   UNL     1      -1.238   3.133   0.030  0.00  0.00    +0.006 A 
ATOM     18  C   UNL     1      -0.050   3.840   0.022  0.00  0.00    +0.004 A 
BRANCH  13  20
ATOM     19  C   UNL     1       2.875   4.205  -1.446  0.00  0.00    +0.009 C 
ATOM     20  C   UNL     1       2.451   3.937  -0.001  0.00  0.00    +0.032 C 
ENDBRANCH  13  20
ENDBRANCH   1  16
TORSDOF 2
