REMARK  Name = ZINC10263593
REMARK  11 active torsions:
REMARK  status: ('A' for Active; 'I' for Inactive)
REMARK    1  A    between atoms: C_1  and  C_2
REMARK    2  A    between atoms: C_5  and  C_8
REMARK    3  A    between atoms: C_11  and  S_20
REMARK    4  A    between atoms: N_12  and  C_13
REMARK    5  A    between atoms: C_16  and  C_19
REMARK    6  A    between atoms: S_20  and  C_21
REMARK    7  A    between atoms: C_21  and  C_22
REMARK    8  A    between atoms: N_27  and  C_28
REMARK    9  A    between atoms: C_28  and  C_29
REMARK   10  A    between atoms: C_29  and  C_30
REMARK   11  A    between atoms: C_29  and  C_31
REMARK                            x       y       z     vdW  Elec       q    Type
REMARK                         _______ _______ _______ _____ _____    ______ ____
ROOT
ATOM      1  C   UNL     1      -2.501   0.983  -0.132  0.00  0.00    +0.169 A 
ATOM      2  N   UNL     1      -2.643  -0.300   0.108  0.00  0.00    -0.128 NA
ATOM      3  N   UNL     1      -3.890  -0.589   0.226  0.00  0.00    -0.122 NA
ATOM      4  C   UNL     1      -4.622   0.491   0.069  0.00  0.00    +0.197 A 
ATOM      5  N   UNL     1      -3.764   1.532  -0.159  0.00  0.00    -0.270 N 
ENDROOT
BRANCH   1  10
ATOM      6  C   UNL     1       2.464   3.793  -0.890  0.00  0.00    +0.044 C 
ATOM      7  C   UNL     1       1.164   3.056  -0.694  0.00  0.00    -0.050 A 
ATOM      8  C   UNL     1      -0.024   3.632  -1.107  0.00  0.00    +0.004 A 
ATOM      9  C   UNL     1      -1.217   2.963  -0.931  0.00  0.00    +0.012 A 
ATOM     10  C   UNL     1      -1.225   1.704  -0.329  0.00  0.00    +0.020 A 
ATOM     11  C   UNL     1      -0.023   1.126   0.082  0.00  0.00    +0.012 A 
ATOM     12  C   UNL     1       1.163   1.806  -0.100  0.00  0.00    +0.004 A 
ENDBRANCH   1  10
BRANCH   5  13
ATOM     13  C   UNL     1      -4.100   2.876  -0.377  0.00  0.00    +0.051 A 
ATOM     14  C   UNL     1      -3.775   3.837   0.571  0.00  0.00    +0.026 A 
ATOM     15  C   UNL     1      -4.103   5.160   0.350  0.00  0.00    +0.005 A 
ATOM     16  C   UNL     1      -4.763   5.527  -0.807  0.00  0.00    -0.050 A 
ATOM     17  C   UNL     1      -5.094   4.571  -1.751  0.00  0.00    +0.005 A 
ATOM     18  C   UNL     1      -4.764   3.247  -1.538  0.00  0.00    +0.026 A 
ATOM     19  C   UNL     1      -5.125   6.971  -1.042  0.00  0.00    +0.044 C 
ENDBRANCH   5  13
BRANCH   4  20
ATOM     20  S   UNL     1      -6.380   0.583   0.145  0.00  0.00    -0.076 S 
BRANCH  20  21
ATOM     21  C   UNL     1      -6.771  -1.152   0.480  0.00  0.00    +0.173 C 
BRANCH  21  22
ATOM     22  C   UNL     1      -8.265  -1.319   0.589  0.00  0.00    +0.231 C 
ATOM     23  O   UNL     1      -8.993  -0.359   0.453  0.00  0.00    -0.274 OA
ATOM     24  N   UNL     1      -8.791  -2.535   0.837  0.00  0.00    -0.240 N 
ATOM     25  C   UNL     1     -10.127  -2.684   0.934  0.00  0.00    +0.306 C 
ATOM     26  O   UNL     1     -10.857  -1.722   0.798  0.00  0.00    -0.252 OA
ATOM     27  N   UNL     1     -10.653  -3.899   1.182  0.00  0.00    -0.299 N 
ATOM     28  H   UNL     1      -8.208  -3.303   0.945  0.00  0.00    +0.159 HD
ATOM     29  H   UNL     1     -10.071  -4.667   1.290  0.00  0.00    +0.150 HD
BRANCH  27  30
ATOM     30  C   UNL     1     -12.106  -4.061   1.288  0.00  0.00    +0.108 C 
BRANCH  30  31
ATOM     31  C   UNL     1     -12.436  -5.528   1.571  0.00  0.00    -0.000 C 
ATOM     32  C   UNL     1     -11.884  -5.919   2.943  0.00  0.00    +0.009 C 
ATOM     33  C   UNL     1     -13.954  -5.721   1.558  0.00  0.00    +0.009 C 
ENDBRANCH  30  31
ENDBRANCH  27  30
ENDBRANCH  21  22
ENDBRANCH  20  21
ENDBRANCH   4  20
TORSDOF 7
