REMARK  Name = ZINC49990575
REMARK  5 active torsions:
REMARK  status: ('A' for Active; 'I' for Inactive)
REMARK    1  A    between atoms: C_1  and  C_2
REMARK    2  A    between atoms: C_5  and  N_9
REMARK    3  A    between atoms: C_6  and  C_8
REMARK    4  A    between atoms: N_9  and  C_10
REMARK    5  A    between atoms: C_12  and  C_20
REMARK                            x       y       z     vdW  Elec       q    Type
REMARK                         _______ _______ _______ _____ _____    ______ ____
ROOT
ATOM      1  N   UNL     1       0.058  -4.168  -0.021  0.00  0.00    -0.287 N 
ATOM      2  C   UNL     1       1.344  -4.864   0.062  0.00  0.00    +0.137 C 
ATOM      3  C   UNL     1      -1.038  -4.654   0.673  0.00  0.00    +0.143 A 
ATOM      4  C   UNL     1      -2.274  -3.990   0.580  0.00  0.00    +0.092 A 
ATOM      5  C   UNL     1      -3.363  -4.502   1.292  0.00  0.00    +0.027 A 
ATOM      6  C   UNL     1      -3.178  -5.642   2.058  0.00  0.00    -0.025 A 
ATOM      7  C   UNL     1      -1.932  -6.242   2.101  0.00  0.00    +0.047 A 
ATOM      8  N   UNL     1      -0.917  -5.741   1.414  0.00  0.00    -0.235 NA
ATOM      9  C   UNL     1      -1.989  -7.461   3.000  0.00  0.00    +0.056 C 
ATOM     10  C   UNL     1      -3.272  -7.287   3.839  0.00  0.00    +0.011 C 
ATOM     11  C   UNL     1      -4.152  -6.412   2.921  0.00  0.00    +0.037 C 
ENDROOT
BRANCH   1  16
ATOM     12  C   UNL     1      -0.435   0.514  -3.183  0.00  0.00    +0.044 C 
ATOM     13  C   UNL     1      -0.304  -0.730  -2.343  0.00  0.00    -0.050 A 
ATOM     14  C   UNL     1      -0.546  -1.970  -2.905  0.00  0.00    +0.005 A 
ATOM     15  C   UNL     1      -0.426  -3.112  -2.138  0.00  0.00    +0.024 A 
ATOM     16  C   UNL     1      -0.063  -3.014  -0.800  0.00  0.00    +0.038 A 
ATOM     17  C   UNL     1       0.179  -1.767  -0.239  0.00  0.00    -0.029 A 
ATOM     18  C   UNL     1       0.063  -0.629  -1.014  0.00  0.00    +0.008 A 
ATOM     19  C   UNL     1       0.573  -1.656   1.211  0.00  0.00    +0.045 C 
ENDBRANCH   1  16
BRANCH   4  20
ATOM     20  C   UNL     1      -2.414  -2.814  -0.225  0.00  0.00    +0.103 C 
ATOM     21  N   UNL     1      -2.525  -1.882  -0.864  0.00  0.00    -0.191 NA
ENDBRANCH   4  20
TORSDOF 2
