REMARK  Name = ZINC27496232
REMARK  18 active torsions:
REMARK  status: ('A' for Active; 'I' for Inactive)
REMARK    1  A    between atoms: C_1  and  C_2
REMARK    2  A    between atoms: C_2  and  C_3
REMARK    3  A    between atoms: C_2  and  C_4
REMARK    4  A    between atoms: C_2  and  C_5
REMARK    5  A    between atoms: C_7  and  C_15
REMARK    6  A    between atoms: C_9  and  C_11
REMARK    7  A    between atoms: C_11  and  C_12
REMARK    8  A    between atoms: C_11  and  C_13
REMARK    9  A    between atoms: C_11  and  C_14
REMARK   10  A    between atoms: C_18  and  C_21
REMARK   11  A    between atoms: C_24  and  C_32
REMARK   12  A    between atoms: C_26  and  C_28
REMARK   13  A    between atoms: C_28  and  C_29
REMARK   14  A    between atoms: C_28  and  C_30
REMARK   15  A    between atoms: C_28  and  C_31
REMARK   16  A    between atoms: C_32  and  C_33
REMARK   17  A    between atoms: C_32  and  C_34
REMARK   18  A    between atoms: C_32  and  C_35
REMARK                            x       y       z     vdW  Elec       q    Type
REMARK                         _______ _______ _______ _____ _____    ______ ____
ROOT
ATOM      1  C   UNL     1      -7.004   3.211  -0.994  0.00  0.00    +0.017 C 
ATOM      2  C   UNL     1      -5.780   2.589  -0.864  0.00  0.00    -0.002 C 
ATOM      3  C   UNL     1      -5.273   1.226  -1.052  0.00  0.00    +0.016 C 
ATOM      4  C   UNL     1      -3.972   1.624  -0.684  0.00  0.00    +0.088 C 
ATOM      5  C   UNL     1      -4.419   3.011  -0.472  0.00  0.00    +0.016 C 
ATOM      6  S   UNL     1      -3.682   4.477   0.018  0.00  0.00    -0.055 S 
ATOM      7  S   UNL     1      -6.002  -0.302  -1.542  0.00  0.00    -0.055 S 
ENDROOT
BRANCH   4   8
ATOM      8  C   UNL     1      -2.742   0.962  -0.563  0.00  0.00    -0.005 C 
ATOM      9  C   UNL     1      -2.223   0.254  -1.643  0.00  0.00    -0.022 C 
ATOM     10  C   UNL     1      -0.996  -0.554  -1.529  0.00  0.00    +0.050 C 
ATOM     11  C   UNL     1      -0.725  -1.420  -2.521  0.00  0.00    +0.111 C 
ATOM     12  O   UNL     1      -1.532  -1.560  -3.580  0.00  0.00    -0.463 OA
ATOM     13  C   UNL     1      -2.470  -0.648  -3.868  0.00  0.00    +0.111 C 
ATOM     14  C   UNL     1      -2.865   0.273  -2.971  0.00  0.00    +0.050 C 
BRANCH  13  15
ATOM     15  C   UNL     1      -3.100  -0.655  -5.236  0.00  0.00    +0.020 C 
ATOM     16  C   UNL     1      -4.226   0.381  -5.284  0.00  0.00    +0.019 C 
ATOM     17  C   UNL     1      -2.043  -0.308  -6.287  0.00  0.00    +0.019 C 
ATOM     18  C   UNL     1      -3.672  -2.043  -5.528  0.00  0.00    +0.019 C 
ENDBRANCH  13  15
BRANCH  11  19
ATOM     19  C   UNL     1       0.525  -2.258  -2.439  0.00  0.00    +0.020 C 
ATOM     20  C   UNL     1       1.279  -1.925  -1.150  0.00  0.00    +0.019 C 
ATOM     21  C   UNL     1       0.146  -3.740  -2.439  0.00  0.00    +0.019 C 
ATOM     22  C   UNL     1       1.419  -1.960  -3.644  0.00  0.00    +0.019 C 
ENDBRANCH  11  19
ENDBRANCH   4   8
BRANCH   1  25
ATOM     23  C   UNL     1      -6.302   6.831  -1.228  0.00  0.00    +0.111 A 
ATOM     24  C   UNL     1      -6.106   5.490  -1.396  0.00  0.00    +0.050 A 
ATOM     25  C   UNL     1      -7.099   4.621  -0.880  0.00  0.00    -0.018 A 
ATOM     26  C   UNL     1      -8.195   5.257  -0.246  0.00  0.00    +0.050 A 
ATOM     27  C   UNL     1      -8.178   6.620  -0.189  0.00  0.00    +0.111 A 
ATOM     28  O   UNL     1      -7.277   7.272  -0.665  0.00  0.00    -0.463 OA
BRANCH  23  30
ATOM     29  C   UNL     1      -5.217   7.686  -3.288  0.00  0.00    +0.019 C 
ATOM     30  C   UNL     1      -5.270   7.791  -1.762  0.00  0.00    +0.020 C 
ATOM     31  C   UNL     1      -5.647   9.219  -1.362  0.00  0.00    +0.019 C 
ATOM     32  C   UNL     1      -3.899   7.443  -1.179  0.00  0.00    +0.019 C 
ENDBRANCH  23  30
BRANCH  27  33
ATOM     33  C   UNL     1      -9.322   7.337   0.481  0.00  0.00    +0.020 C 
ATOM     34  C   UNL     1      -9.411   6.898   1.944  0.00  0.00    +0.019 C 
ATOM     35  C   UNL     1      -9.086   8.847   0.416  0.00  0.00    +0.019 C 
ATOM     36  C   UNL     1     -10.629   6.994  -0.235  0.00  0.00    +0.019 C 
ENDBRANCH  27  33
ENDBRANCH   1  25
TORSDOF 6
