REMARK  Name = ZINC13145584
REMARK  4 active torsions:
REMARK  status: ('A' for Active; 'I' for Inactive)
REMARK    1  A    between atoms: C_1  and  C_2
REMARK    2  A    between atoms: C_2  and  N_57
REMARK    3  A    between atoms: C_15  and  C_17
REMARK    4  A    between atoms: C_18  and  C_19
REMARK                            x       y       z     vdW  Elec       q    Type
REMARK                         _______ _______ _______ _____ _____    ______ ____
ROOT
ATOM      1  C   UNL     1       0.815   1.492  -0.250  0.00  0.00    -0.060 C 
ATOM      2  C   UNL     1       0.113   1.962  -1.526  0.00  0.00    +0.088 C 
ATOM      3  N   UNL     1      -0.806   3.062  -1.200  0.00  0.00    -0.318 N 
ATOM      4  C   UNL     1      -1.813   2.630  -0.221  0.00  0.00    +0.088 C 
ATOM      5  C   UNL     1      -1.111   2.160   1.055  0.00  0.00    -0.060 C 
ATOM      6  C   UNL     1      -1.407   3.560  -2.342  0.00  0.00    +0.134 A 
ATOM      7  C   UNL     1      -1.664   4.956  -2.470  0.00  0.00    +0.051 A 
ATOM      8  C   UNL     1      -1.361   6.030  -1.524  0.00  0.00    -0.025 A 
ATOM      9  C   UNL     1      -1.703   7.283  -1.890  0.00  0.00    -0.004 A 
ATOM     10  S   UNL     1      -2.433   7.113  -3.497  0.00  0.00    -0.073 S 
ATOM     11  C   UNL     1      -2.277   5.355  -3.676  0.00  0.00    +0.114 A 
ATOM     12  N   UNL     1      -2.595   4.484  -4.611  0.00  0.00    -0.221 NA
ATOM     13  C   UNL     1      -2.337   3.191  -4.437  0.00  0.00    +0.156 A 
ATOM     14  N   UNL     1      -1.755   2.747  -3.323  0.00  0.00    -0.213 NA
ATOM     15  C   UNL     1      -1.507   8.543  -1.103  0.00  0.00    +0.043 C 
ATOM     16  C   UNL     1      -1.190   8.163   0.350  0.00  0.00    +0.005 C 
ATOM     17  C   UNL     1      -0.111   7.077   0.350  0.00  0.00    +0.005 C 
ATOM     18  C   UNL     1      -0.694   5.766  -0.177  0.00  0.00    +0.037 C 
ATOM     19  N   UNL     1      -0.206   1.040   0.717  0.00  0.00    +0.382 N 
ATOM     20  H   UNL     1      -0.756   0.284   0.294  0.00  0.00    -0.082 HD
ENDROOT
BRANCH  19  22
ATOM     21  C   UNL     1      -0.610   0.327   3.028  0.00  0.00    -0.017 C 
ATOM     22  C   UNL     1       0.448   0.532   1.942  0.00  0.00    -0.082 C 
ENDBRANCH  19  22
BRANCH  13  23
ATOM     23  C   UNL     1      -2.700   2.233  -5.493  0.00  0.00    +0.049 C 
ATOM     24  C   UNL     1      -3.287   2.667  -6.622  0.00  0.00    +0.011 C 
BRANCH  24  25
ATOM     25  C   UNL     1      -3.650   1.708  -7.679  0.00  0.00    -0.025 A 
ATOM     26  C   UNL     1      -3.381   0.347  -7.515  0.00  0.00    +0.009 A 
ATOM     27  C   UNL     1      -3.728  -0.546  -8.507  0.00  0.00    +0.016 A 
ATOM     28  C   UNL     1      -4.333  -0.095  -9.668  0.00  0.00    +0.018 A 
ATOM     29  C   UNL     1      -4.598   1.254  -9.840  0.00  0.00    +0.016 A 
ATOM     30  C   UNL     1      -4.261   2.157  -8.854  0.00  0.00    +0.009 A 
ATOM     31 BR   UNL     1      -4.799  -1.326 -11.026  0.00  0.00    -0.050 Br
ENDBRANCH  24  25
ENDBRANCH  13  23
TORSDOF 3
