REMARK  Name = ZINC24955486
REMARK  11 active torsions:
REMARK  status: ('A' for Active; 'I' for Inactive)
REMARK    1  A    between atoms: C_1  and  C_2
REMARK    2  A    between atoms: C_2  and  C_4
REMARK    3  A    between atoms: C_2  and  N_10
REMARK    4  A    between atoms: C_4  and  C_5
REMARK    5  A    between atoms: N_10  and  C_11
REMARK    6  A    between atoms: N_10  and  C_20
REMARK    7  A    between atoms: C_11  and  C_12
REMARK    8  A    between atoms: C_15  and  O_18
REMARK    9  A    between atoms: O_18  and  C_19
REMARK   10  A    between atoms: C_20  and  C_21
REMARK   11  A    between atoms: C_27  and  C_32
REMARK                            x       y       z     vdW  Elec       q    Type
REMARK                         _______ _______ _______ _____ _____    ______ ____
ROOT
ATOM      1  N   UNL     1       2.575   5.611   0.434  0.00  0.00    +0.389 N 
ATOM      2  H   UNL     1       2.080   6.012   1.331  0.00  0.00    -0.080 HD
ENDROOT
BRANCH   1   4
ATOM      3  C   UNL     1       2.307   5.634  -2.000  0.00  0.00    -0.013 C 
ATOM      4  C   UNL     1       1.586   5.581  -0.651  0.00  0.00    -0.066 C 
BRANCH   4   5
ATOM      5  C   UNL     1       0.653   6.787  -0.525  0.00  0.00    +0.027 C 
BRANCH   5   6
ATOM      6  C   UNL     1      -0.188   6.644   0.717  0.00  0.00    -0.012 A 
ATOM      7  C   UNL     1       0.120   6.963   1.998  0.00  0.00    +0.011 A 
ATOM      8  C   UNL     1      -0.819   6.742   2.988  0.00  0.00    +0.008 A 
ATOM      9  C   UNL     1      -2.020   6.214   2.649  0.00  0.00    +0.045 A 
ATOM     10  S   UNL     1      -1.851   6.017   0.883  0.00  0.00    -0.102 S 
ENDBRANCH   5   6
ENDBRANCH   4   5
ENDBRANCH   1   4
BRANCH   1  11
ATOM     11  C   UNL     1       3.696   6.500   0.102  0.00  0.00    -0.042 C 
BRANCH  11  12
ATOM     12  C   UNL     1       3.231   7.933   0.148  0.00  0.00    -0.064 A 
ATOM     13  C   UNL     1       2.952   8.606  -1.027  0.00  0.00    +0.005 A 
ATOM     14  C   UNL     1       2.520   9.918  -0.987  0.00  0.00    +0.046 A 
ATOM     15  C   UNL     1       2.378  10.563   0.233  0.00  0.00    +0.120 A 
ATOM     16  C   UNL     1       2.665   9.888   1.410  0.00  0.00    +0.046 A 
ATOM     17  C   UNL     1       3.090   8.574   1.365  0.00  0.00    +0.005 A 
BRANCH  15  18
ATOM     18  O   UNL     1       1.959  11.855   0.274  0.00  0.00    -0.495 OA
ATOM     19  C   UNL     1       1.682  12.489  -0.977  0.00  0.00    +0.277 C 
ENDBRANCH  15  18
ENDBRANCH  11  12
ENDBRANCH   1  11
BRANCH   1  20
ATOM     20  C   UNL     1       3.052   4.258   0.749  0.00  0.00    -0.002 C 
BRANCH  20  21
ATOM     21  C   UNL     1       1.885   3.396   1.156  0.00  0.00    +0.094 A 
ATOM     22  N   UNL     1       2.090   2.083   1.435  0.00  0.00    -0.312 N 
ATOM     23  H   UNL     1       3.101   1.657   1.363  0.00  0.00    +0.170 HD
ATOM     24  C   UNL     1       1.075   1.279   1.802  0.00  0.00    +0.260 A 
ATOM     25  O   UNL     1       1.276   0.102   2.050  0.00  0.00    -0.267 OA
ATOM     26  C   UNL     1      -0.245   1.825   1.893  0.00  0.00    +0.083 A 
ATOM     27  C   UNL     1      -1.494   1.166   2.259  0.00  0.00    +0.039 A 
ATOM     28  C   UNL     1      -2.636   1.898   2.275  0.00  0.00    +0.059 A 
ATOM     29  S   UNL     1      -2.088   3.528   1.806  0.00  0.00    -0.076 S 
ATOM     30  C   UNL     1      -0.360   3.192   1.591  0.00  0.00    +0.116 A 
ATOM     31  N   UNL     1       0.693   3.924   1.235  0.00  0.00    -0.229 NA
BRANCH  27  32
ATOM     32  C   UNL     1      -1.514  -0.270   2.605  0.00  0.00    +0.136 A 
ATOM     33  C   UNL     1      -2.083  -0.816   3.713  0.00  0.00    +0.050 A 
ATOM     34  C   UNL     1      -1.868  -2.207   3.637  0.00  0.00    +0.042 A 
ATOM     35  C   UNL     1      -1.179  -2.438   2.503  0.00  0.00    +0.196 A 
ATOM     36  O   UNL     1      -0.966  -1.265   1.882  0.00  0.00    -0.463 OA
ENDBRANCH  27  32
ENDBRANCH  20  21
ENDBRANCH   1  20
TORSDOF 9
