REMARK  Name = ZINC34991371
REMARK  14 active torsions:
REMARK  status: ('A' for Active; 'I' for Inactive)
REMARK    1  A    between atoms: C_1  and  C_2
REMARK    2  A    between atoms: C_2  and  N_3
REMARK    3  A    between atoms: N_3  and  C_4
REMARK    4  A    between atoms: N_3  and  C_6
REMARK    5  A    between atoms: C_4  and  C_5
REMARK    6  A    between atoms: C_6  and  C_7
REMARK    7  A    between atoms: C_7  and  C_8
REMARK    8  A    between atoms: C_8  and  C_9
REMARK    9  A    between atoms: C_9  and  C_11
REMARK   10  A    between atoms: C_9  and  N_12
REMARK   11  A    between atoms: N_12  and  C_13
REMARK   12  A    between atoms: C_13  and  C_14
REMARK   13  A    between atoms: C_17  and  O_21
REMARK   14  A    between atoms: O_21  and  C_22
REMARK                            x       y       z     vdW  Elec       q    Type
REMARK                         _______ _______ _______ _____ _____    ______ ____
ROOT
ATOM      1  N   UNL     1       3.585  -4.256  -3.656  0.00  0.00    +0.383 N 
ATOM      2  H   UNL     1       3.715  -3.279  -3.442  0.00  0.00    -0.085 HD
ATOM      3  H   UNL     1       3.897  -4.815  -2.876  0.00  0.00    -0.085 HD
ENDROOT
BRANCH   1   4
ATOM      4  C   UNL     1       2.162  -4.517  -3.908  0.00  0.00    -0.075 C 
ATOM      5  C   UNL     1       1.946  -6.019  -4.109  0.00  0.00    -0.014 C 
BRANCH   4   6
ATOM      6  C   UNL     1       1.336  -4.039  -2.711  0.00  0.00    -0.018 C 
BRANCH   6   7
ATOM      7  C   UNL     1       1.453  -2.519  -2.586  0.00  0.00    -0.020 C 
BRANCH   7   8
ATOM      8  C   UNL     1       0.628  -2.041  -1.389  0.00  0.00    -0.079 C 
BRANCH   8   9
ATOM      9  N   UNL     1       0.826  -0.598  -1.203  0.00  0.00    +0.379 N 
ATOM     10  H   UNL     1       1.813  -0.402  -1.119  0.00  0.00    -0.082 HD
BRANCH   9  12
ATOM     11  C   UNL     1       0.597   1.616  -2.224  0.00  0.00    -0.017 C 
ATOM     12  C   UNL     1       0.280   0.126  -2.359  0.00  0.00    -0.082 C 
ENDBRANCH   9  12
BRANCH   9  13
ATOM     13  C   UNL     1       0.136  -0.162   0.018  0.00  0.00    -0.082 C 
ATOM     14  C   UNL     1       0.810  -0.793   1.238  0.00  0.00    -0.017 C 
ENDBRANCH   9  13
ENDBRANCH   8   9
ENDBRANCH   7   8
ENDBRANCH   6   7
ENDBRANCH   4   6
ENDBRANCH   1   4
BRANCH   1  15
ATOM     15  C   UNL     1       4.365  -4.604  -4.851  0.00  0.00    -0.046 C 
BRANCH  15  16
ATOM     16  C   UNL     1       5.826  -4.336  -4.593  0.00  0.00    -0.063 A 
ATOM     17  C   UNL     1       6.361  -3.094  -4.881  0.00  0.00    +0.005 A 
ATOM     18  C   UNL     1       7.700  -2.846  -4.646  0.00  0.00    +0.047 A 
ATOM     19  C   UNL     1       8.507  -3.843  -4.120  0.00  0.00    +0.134 A 
ATOM     20  C   UNL     1       7.968  -5.089  -3.831  0.00  0.00    +0.060 A 
ATOM     21  C   UNL     1       6.627  -5.331  -4.063  0.00  0.00    +0.020 A 
ATOM     22 BR   UNL     1       9.065  -6.452  -3.114  0.00  0.00    -0.047 Br
BRANCH  19  23
ATOM     23  O   UNL     1       9.825  -3.601  -3.888  0.00  0.00    -0.494 OA
ATOM     24  C   UNL     1      10.311  -2.297  -4.210  0.00  0.00    +0.277 C 
ENDBRANCH  19  23
ENDBRANCH  15  16
ENDBRANCH   1  15
TORSDOF 10
