REMARK  Name = ZINC47136591
REMARK  5 active torsions:
REMARK  status: ('A' for Active; 'I' for Inactive)
REMARK    1  A    between atoms: C_7  and  C_11
REMARK    2  A    between atoms: C_11  and  C_13
REMARK    3  A    between atoms: C_11  and  C_26
REMARK    4  A    between atoms: C_13  and  N_14
REMARK    5  A    between atoms: N_14  and  C_15
REMARK                            x       y       z     vdW  Elec       q    Type
REMARK                         _______ _______ _______ _____ _____    ______ ____
ROOT
ATOM      1  C   UNL     1       0.666  -3.275  -0.021  0.00  0.00    +0.065 C 
ENDROOT
BRANCH   1   8
ATOM      2  C   UNL     1      -0.017   1.362   0.009  0.00  0.00    +0.001 A 
ATOM      3  C   UNL     1       1.170   2.083   0.002  0.00  0.00    +0.002 A 
ATOM      4  C   UNL     1       2.386   1.436  -0.013  0.00  0.00    +0.026 A 
ATOM      5  C   UNL     1       2.428   0.046  -0.021  0.00  0.00    +0.047 A 
ATOM      6  C   UNL     1       1.223  -0.681  -0.013  0.00  0.00    +0.003 A 
ATOM      7  C   UNL     1       0.002  -0.004   0.002  0.00  0.00    +0.010 A 
ATOM      8  C   UNL     1       1.604  -2.095  -0.025  0.00  0.00    -0.014 A 
ATOM      9  C   UNL     1       2.945  -2.141  -0.038  0.00  0.00    +0.088 A 
ATOM     10  N   UNL     1       3.455  -0.871  -0.036  0.00  0.00    -0.360 N 
ATOM     11  H   UNL     1       4.399  -0.650  -0.044  0.00  0.00    +0.165 HD
ENDBRANCH   1   8
BRANCH   1  12
ATOM     12  C   UNL     1       0.923  -4.117   1.202  0.00  0.00    -0.039 A 
ATOM     13  C   UNL     1       2.171  -4.675   1.408  0.00  0.00    +0.005 A 
ATOM     14  C   UNL     1       2.407  -5.447   2.530  0.00  0.00    +0.015 A 
ATOM     15  C   UNL     1       1.394  -5.660   3.448  0.00  0.00    +0.018 A 
ATOM     16  C   UNL     1       0.145  -5.102   3.241  0.00  0.00    +0.015 A 
ATOM     17  C   UNL     1      -0.088  -4.326   2.122  0.00  0.00    +0.005 A 
ATOM     18 BR   UNL     1       1.716  -6.716   4.983  0.00  0.00    -0.050 Br
ENDBRANCH   1  12
BRANCH   1  19
ATOM     19  C   UNL     1       0.901  -4.117  -1.277  0.00  0.00    +0.097 C 
BRANCH  19  20
ATOM     20  N   UNL     1      -0.091  -5.199  -1.335  0.00  0.00    -0.277 NA
ATOM     21  H   UNL     1      -0.063  -5.760  -0.496  0.00  0.00    +0.126 HD
BRANCH  20  22
ATOM     22  C   UNL     1       0.104  -6.029  -2.530  0.00  0.00    +0.278 C 
ATOM     23  C   UNL     1      -0.238  -7.465  -2.223  0.00  0.00    +0.022 A 
ATOM     24  C   UNL     1       0.261  -8.389  -1.335  0.00  0.00    +0.009 A 
ATOM     25  C   UNL     1      -0.278  -9.663  -1.288  0.00  0.00    +0.000 A 
ATOM     26  C   UNL     1      -1.318 -10.012  -2.132  0.00  0.00    +0.001 A 
ATOM     27  C   UNL     1      -1.827  -9.093  -3.026  0.00  0.00    +0.015 A 
ATOM     28  C   UNL     1      -1.289  -7.807  -3.079  0.00  0.00    +0.067 A 
ATOM     29  C   UNL     1      -1.598  -6.623  -3.901  0.00  0.00    +0.341 C 
ATOM     30  O   UNL     1      -2.463  -6.572  -4.753  0.00  0.00    -0.245 OA
ATOM     31  O   UNL     1      -0.783  -5.606  -3.570  0.00  0.00    -0.438 OA
ENDBRANCH  20  22
ENDBRANCH  19  20
ENDBRANCH   1  19
TORSDOF 5
