REMARK  Name = ZINC35926793
REMARK  8 active torsions:
REMARK  status: ('A' for Active; 'I' for Inactive)
REMARK    1  A    between atoms: C_1  and  C_2
REMARK    2  A    between atoms: C_2  and  C_3
REMARK    3  A    between atoms: C_3  and  C_4
REMARK    4  A    between atoms: C_4  and  N_5
REMARK    5  A    between atoms: C_20  and  C_22
REMARK    6  A    between atoms: C_22  and  N_23
REMARK    7  A    between atoms: N_26  and  C_29
REMARK    8  A    between atoms: C_34  and  C_35
REMARK                            x       y       z     vdW  Elec       q    Type
REMARK                         _______ _______ _______ _____ _____    ______ ____
ROOT
ATOM      1  N   UNL     1      -2.000  -4.750  -2.409  0.00  0.00    -0.299 N 
ATOM      2  C   UNL     1      -3.037  -3.889  -2.379  0.00  0.00    +0.302 C 
ATOM      3  O   UNL     1      -2.833  -2.696  -2.270  0.00  0.00    -0.253 OA
ATOM      4  N   UNL     1      -4.299  -4.352  -2.472  0.00  0.00    -0.283 N 
ATOM      5  C   UNL     1      -4.568  -5.797  -2.480  0.00  0.00    +0.128 C 
ATOM      6  C   UNL     1      -5.560  -6.118  -1.356  0.00  0.00    +0.127 C 
ATOM      7  N   UNL     1      -6.693  -5.186  -1.449  0.00  0.00    -0.298 N 
ATOM      8  C   UNL     1      -6.424  -3.741  -1.440  0.00  0.00    +0.127 C 
ATOM      9  C   UNL     1      -5.433  -3.420  -2.559  0.00  0.00    +0.128 C 
ATOM     10  C   UNL     1      -7.975  -5.656  -1.542  0.00  0.00    +0.198 A 
ATOM     11  N   UNL     1      -8.207  -6.992  -1.433  0.00  0.00    -0.295 N 
ATOM     12  H   UNL     1      -7.469  -7.604  -1.290  0.00  0.00    +0.172 HD
ATOM     13  C   UNL     1      -9.469  -7.463  -1.524  0.00  0.00    +0.253 A 
ATOM     14  O   UNL     1      -9.696  -8.658  -1.427  0.00  0.00    -0.268 OA
ATOM     15  C   UNL     1     -10.518  -6.549  -1.731  0.00  0.00    +0.091 A 
ATOM     16  C   UNL     1     -10.225  -5.221  -1.833  0.00  0.00    +0.034 A 
ATOM     17  N   UNL     1      -8.964  -4.805  -1.732  0.00  0.00    -0.223 NA
ATOM     18  H   UNL     1      -2.163  -5.706  -2.423  0.00  0.00    +0.150 HD
ENDROOT
BRANCH   1  19
ATOM     19  C   UNL     1      -0.626  -4.242  -2.418  0.00  0.00    +0.106 C 
BRANCH  19  20
ATOM     20  C   UNL     1       0.352  -5.417  -2.452  0.00  0.00    +0.018 C 
BRANCH  20  22
ATOM     21  C   UNL     1       2.766  -6.062  -2.496  0.00  0.00    +0.004 C 
ATOM     22  C   UNL     1       1.787  -4.886  -2.463  0.00  0.00    -0.002 C 
ENDBRANCH  20  22
ENDBRANCH  19  20
ENDBRANCH   1  19
BRANCH  16  23
ATOM     23  C   UNL     1     -11.331  -4.221  -2.055  0.00  0.00    -0.022 C 
BRANCH  23  24
ATOM     24  N   UNL     1     -11.434  -3.337  -0.887  0.00  0.00    +0.385 N 
ATOM     25  C   UNL     1     -10.202  -2.547  -0.763  0.00  0.00    -0.059 C 
ATOM     26  C   UNL     1     -10.260  -1.709   0.519  0.00  0.00    +0.086 C 
ATOM     27  N   UNL     1     -11.494  -0.909   0.496  0.00  0.00    -0.333 N 
ATOM     28  C   UNL     1     -12.763  -1.599   0.215  0.00  0.00    +0.086 C 
ATOM     29  C   UNL     1     -12.586  -2.442  -1.052  0.00  0.00    -0.059 C 
ATOM     30  H   UNL     1     -11.558  -3.894  -0.055  0.00  0.00    -0.081 HD
BRANCH  27  31
ATOM     31  C   UNL     1     -11.463   0.467   0.737  0.00  0.00    +0.033 A 
ATOM     32  C   UNL     1     -11.301   1.354  -0.320  0.00  0.00    +0.023 A 
ATOM     33  C   UNL     1     -11.271   2.713  -0.079  0.00  0.00    +0.002 A 
ATOM     34  C   UNL     1     -11.401   3.192   1.212  0.00  0.00    +0.000 A 
ATOM     35  C   UNL     1     -11.561   2.311   2.266  0.00  0.00    +0.005 A 
ATOM     36  C   UNL     1     -11.599   0.951   2.031  0.00  0.00    -0.029 A 
ATOM     37  C   UNL     1     -11.781  -0.008   3.180  0.00  0.00    +0.045 C 
ENDBRANCH  27  31
ENDBRANCH  23  24
ENDBRANCH  16  23
TORSDOF 6
