REMARK  Name = ZINC39969084
REMARK  9 active torsions:
REMARK  status: ('A' for Active; 'I' for Inactive)
REMARK    1  A    between atoms: C_1  and  O_2
REMARK    2  A    between atoms: O_2  and  C_3
REMARK    3  A    between atoms: C_8  and  C_13
REMARK    4  A    between atoms: C_13  and  C_34
REMARK    5  A    between atoms: C_14  and  C_15
REMARK    6  A    between atoms: C_18  and  O_22
REMARK    7  A    between atoms: O_22  and  C_23
REMARK    8  A    between atoms: C_23  and  C_24
REMARK    9  A    between atoms: C_27  and  N_30
REMARK                            x       y       z     vdW  Elec       q    Type
REMARK                         _______ _______ _______ _____ _____    ______ ____
ROOT
ATOM      1  C   UNL     1       3.206  -6.249  -5.205  0.00  0.00    -0.021 A 
ATOM      2  C   UNL     1       3.890  -5.727  -4.102  0.00  0.00    +0.031 A 
ATOM      3  C   UNL     1       5.141  -6.207  -3.779  0.00  0.00    +0.085 A 
ATOM      4  C   UNL     1       5.723  -7.209  -4.548  0.00  0.00    +0.157 A 
ATOM      5  C   UNL     1       5.047  -7.731  -5.645  0.00  0.00    +0.085 A 
ATOM      6  C   UNL     1       3.794  -7.260  -5.973  0.00  0.00    +0.031 A 
ATOM      7 CL   UNL     1       5.781  -8.981  -6.601  0.00  0.00    -0.080 Cl
ATOM      8 CL   UNL     1       5.991  -5.561  -2.410  0.00  0.00    -0.080 Cl
ENDROOT
BRANCH   1  10
ATOM      9  C   UNL     1       1.595  -4.425  -5.423  0.00  0.00    +0.072 C 
ATOM     10  C   UNL     1       1.871  -5.740  -5.553  0.00  0.00    +0.026 C 
BRANCH   9  16
ATOM     11  C   UNL     1       2.025   0.790  -3.431  0.00  0.00    +0.122 A 
ATOM     12  C   UNL     1       2.157   1.114  -4.845  0.00  0.00    +0.048 A 
ATOM     13  C   UNL     1       2.374   0.166  -5.775  0.00  0.00    +0.031 A 
ATOM     14  C   UNL     1       2.484  -1.244  -5.370  0.00  0.00    +0.061 A 
ATOM     15  N   UNL     1       2.687  -2.337  -6.047  0.00  0.00    -0.359 N 
ATOM     16  C   UNL     1       2.698  -3.453  -5.094  0.00  0.00    +0.216 C 
ATOM     17  N   UNL     1       2.475  -2.866  -3.767  0.00  0.00    -0.359 N 
ATOM     18  C   UNL     1       2.350  -1.576  -3.926  0.00  0.00    +0.064 A 
ATOM     19  C   UNL     1       2.119  -0.484  -2.978  0.00  0.00    +0.073 A 
ATOM     20  H   UNL     1       2.807  -2.402  -7.008  0.00  0.00    +0.162 HD
ATOM     21  H   UNL     1       2.429  -3.348  -2.926  0.00  0.00    +0.162 HD
BRANCH  11  23
ATOM     22  C   UNL     1       1.714   3.116  -3.068  0.00  0.00    +0.277 C 
ATOM     23  O   UNL     1       1.806   1.791  -2.542  0.00  0.00    -0.495 OA
ENDBRANCH  11  23
ENDBRANCH   9  16
BRANCH   9  24
ATOM     24  C   UNL     1       0.254  -3.955  -5.596  0.00  0.00    +0.099 C 
ATOM     25  N   UNL     1      -0.810  -3.581  -5.734  0.00  0.00    -0.191 NA
ENDBRANCH   9  24
ENDBRANCH   1  10
BRANCH   4  26
ATOM     26  O   UNL     1       6.956  -7.679  -4.226  0.00  0.00    -0.484 OA
BRANCH  26  27
ATOM     27  C   UNL     1       7.013  -8.787  -3.324  0.00  0.00    +0.264 C 
BRANCH  27  28
ATOM     28  C   UNL     1       8.452  -9.167  -3.086  0.00  0.00    -0.010 A 
ATOM     29  C   UNL     1       9.066 -10.094  -3.907  0.00  0.00    +0.009 A 
ATOM     30  C   UNL     1      10.386 -10.443  -3.689  0.00  0.00    +0.033 A 
ATOM     31  C   UNL     1      11.091  -9.864  -2.650  0.00  0.00    +0.126 A 
ATOM     32  C   UNL     1      10.477  -8.937  -1.830  0.00  0.00    +0.033 A 
ATOM     33  C   UNL     1       9.158  -8.585  -2.051  0.00  0.00    +0.009 A 
BRANCH  31  34
ATOM     34  N   UNL     1      12.504 -10.239  -2.416  0.00  0.00    +0.056 N 
ATOM     35  O   UNL     1      13.041 -11.050  -3.133  0.00  0.00    -0.126 OA
ATOM     36  O   UNL     1      13.120  -9.733  -1.507  0.00  0.00    -0.126 OA
ENDBRANCH  31  34
ENDBRANCH  27  28
ENDBRANCH  26  27
ENDBRANCH   4  26
TORSDOF 8
