REMARK  Name = ZINC40172492
REMARK  10 active torsions:
REMARK  status: ('A' for Active; 'I' for Inactive)
REMARK    1  A    between atoms: C_1  and  C_2
REMARK    2  A    between atoms: C_2  and  S_3
REMARK    3  A    between atoms: S_3  and  C_4
REMARK    4  A    between atoms: N_8  and  C_9
REMARK    5  A    between atoms: C_9  and  C_11
REMARK    6  A    between atoms: C_9  and  C_12
REMARK    7  A    between atoms: N_14  and  C_15
REMARK    8  A    between atoms: C_16  and  C_32
REMARK    9  A    between atoms: C_17  and  C_26
REMARK   10  A    between atoms: C_18  and  C_20
REMARK                            x       y       z     vdW  Elec       q    Type
REMARK                         _______ _______ _______ _____ _____    ______ ____
ROOT
ATOM      1  C   UNL     1       1.223  -4.025   6.922  0.00  0.00    +0.211 A 
ATOM      2  C   UNL     1       1.607  -3.918   8.249  0.00  0.00    +0.121 A 
ATOM      3  C   UNL     1       0.512  -4.527   9.027  0.00  0.00    +0.047 A 
ATOM      4  C   UNL     1      -0.414  -4.936   8.106  0.00  0.00    +0.146 A 
ATOM      5  O   UNL     1       0.025  -4.623   6.872  0.00  0.00    -0.439 OA
ENDROOT
BRANCH   4   6
ATOM      6  C   UNL     1      -1.691  -5.606   8.416  0.00  0.00    +0.018 A 
ATOM      7  C   UNL     1      -2.526  -5.098   9.415  0.00  0.00    +0.011 A 
ATOM      8  C   UNL     1      -3.718  -5.729   9.699  0.00  0.00    +0.001 A 
ATOM      9  C   UNL     1      -4.088  -6.864   8.998  0.00  0.00    +0.000 A 
ATOM     10  C   UNL     1      -3.267  -7.373   8.008  0.00  0.00    +0.001 A 
ATOM     11  C   UNL     1      -2.074  -6.748   7.709  0.00  0.00    +0.011 A 
ENDBRANCH   4   6
BRANCH   3  12
ATOM     12  C   UNL     1       0.432  -4.668  10.498  0.00  0.00    -0.013 A 
ATOM     13  C   UNL     1       0.472  -5.933  11.084  0.00  0.00    +0.008 A 
ATOM     14  C   UNL     1       0.396  -6.057  12.456  0.00  0.00    +0.001 A 
ATOM     15  C   UNL     1       0.282  -4.930  13.251  0.00  0.00    +0.000 A 
ATOM     16  C   UNL     1       0.242  -3.673  12.675  0.00  0.00    +0.001 A 
ATOM     17  C   UNL     1       0.322  -3.535  11.305  0.00  0.00    +0.008 A 
ENDBRANCH   3  12
BRANCH   1  20
ATOM     18  C   UNL     1       1.461  -3.740   4.587  0.00  0.00    +0.242 C 
ATOM     19  O   UNL     1       0.383  -4.271   4.421  0.00  0.00    -0.273 OA
ATOM     20  N   UNL     1       1.950  -3.582   5.832  0.00  0.00    -0.253 N 
ATOM     21  H   UNL     1       2.812  -3.157   5.965  0.00  0.00    +0.158 HD
BRANCH  18  22
ATOM     22  C   UNL     1       2.254  -3.258   3.399  0.00  0.00    +0.175 C 
ATOM     23  C   UNL     1       3.604  -3.977   3.361  0.00  0.00    +0.041 C 
BRANCH  22  28
ATOM     24  C   UNL     1       1.084  -2.621   1.256  0.00  0.00    +0.194 A 
ATOM     25  N   UNL     1       0.466  -3.261   0.293  0.00  0.00    -0.121 NA
ATOM     26  N   UNL     1       0.493  -4.629   0.596  0.00  0.00    -0.113 NA
ATOM     27  C   UNL     1       1.126  -4.780   1.733  0.00  0.00    +0.216 A 
ATOM     28  N   UNL     1       1.513  -3.544   2.168  0.00  0.00    -0.279 N 
ATOM     29  N   UNL     1       1.367  -5.985   2.380  0.00  0.00    -0.328 N 
ATOM     30  H   UNL     1       1.055  -6.816   1.988  0.00  0.00    +0.145 HD
ATOM     31  H   UNL     1       1.847  -5.996   3.222  0.00  0.00    +0.145 HD
BRANCH  24  32
ATOM     32  S   UNL     1       1.326  -0.879   1.352  0.00  0.00    -0.086 S 
BRANCH  32  34
ATOM     33  C   UNL     1       0.666   1.282  -0.190  0.00  0.00    +0.016 C 
ATOM     34  C   UNL     1       0.528  -0.241  -0.147  0.00  0.00    +0.074 C 
ENDBRANCH  32  34
ENDBRANCH  24  32
ENDBRANCH  22  28
ENDBRANCH  18  22
ENDBRANCH   1  20
BRANCH   2  35
ATOM     35  C   UNL     1       2.814  -3.339   8.758  0.00  0.00    +0.105 C 
ATOM     36  N   UNL     1       3.772  -2.880   9.161  0.00  0.00    -0.191 NA
ENDBRANCH   2  35
TORSDOF 8
