REMARK  Name = ZINC43140186
REMARK  7 active torsions:
REMARK  status: ('A' for Active; 'I' for Inactive)
REMARK    1  A    between atoms: C_1  and  C_2
REMARK    2  A    between atoms: C_2  and  C_4
REMARK    3  A    between atoms: C_2  and  N_12
REMARK    4  A    between atoms: N_15  and  C_16
REMARK    5  A    between atoms: N_15  and  C_17
REMARK    6  A    between atoms: C_17  and  C_18
REMARK    7  A    between atoms: C_23  and  O_24
REMARK                            x       y       z     vdW  Elec       q    Type
REMARK                         _______ _______ _______ _____ _____    ______ ____
ROOT
ATOM      1  N   UNL     1       0.629  -0.500   1.229  0.00  0.00    -0.293 N 
ATOM      2  C   UNL     1      -0.119  -0.712   2.330  0.00  0.00    +0.303 C 
ATOM      3  O   UNL     1      -1.314  -0.491   2.305  0.00  0.00    -0.253 OA
ATOM      4  N   UNL     1       0.458  -1.169   3.460  0.00  0.00    -0.284 N 
ATOM      5  C   UNL     1       1.898  -1.435   3.490  0.00  0.00    +0.134 C 
ATOM      6  H   UNL     1       1.583  -0.677   1.250  0.00  0.00    +0.151 HD
ENDROOT
BRANCH   1   8
ATOM      7  C   UNL     1      -0.037   1.525   0.032  0.00  0.00    +0.033 C 
ATOM      8  C   UNL     1       0.002  -0.004   0.002  0.00  0.00    +0.103 C 
BRANCH   8   9
ATOM      9  C   UNL     1       0.800  -0.463  -1.191  0.00  0.00    -0.009 A 
ATOM     10  C   UNL     1       2.154  -0.715  -1.061  0.00  0.00    +0.008 A 
ATOM     11  C   UNL     1       2.886  -1.136  -2.155  0.00  0.00    +0.020 A 
ATOM     12  C   UNL     1       2.266  -1.305  -3.380  0.00  0.00    +0.042 A 
ATOM     13  C   UNL     1       0.912  -1.053  -3.510  0.00  0.00    +0.040 A 
ATOM     14  C   UNL     1       0.178  -0.636  -2.414  0.00  0.00    +0.047 A 
ATOM     15 CL   UNL     1      -1.522  -0.326  -2.575  0.00  0.00    -0.083 Cl
ATOM     16 CL   UNL     1       3.187  -1.833  -4.754  0.00  0.00    -0.083 Cl
ENDBRANCH   8   9
ENDBRANCH   1   8
BRANCH   4  17
ATOM     17  C   UNL     1      -0.355  -1.399   4.656  0.00  0.00    +0.147 C 
BRANCH  17  18
ATOM     18  C   UNL     1      -0.872  -2.814   4.648  0.00  0.00    +0.011 A 
ATOM     19  C   UNL     1      -2.164  -3.076   4.235  0.00  0.00    +0.009 A 
ATOM     20  C   UNL     1      -2.639  -4.374   4.228  0.00  0.00    +0.001 A 
ATOM     21  C   UNL     1      -1.823  -5.414   4.633  0.00  0.00    +0.004 A 
ATOM     22  C   UNL     1      -0.530  -5.158   5.046  0.00  0.00    +0.046 A 
ATOM     23  C   UNL     1      -0.049  -3.856   5.049  0.00  0.00    +0.122 A 
BRANCH  23  24
ATOM     24  O   UNL     1       1.224  -3.602   5.450  0.00  0.00    -0.506 OA
ATOM     25  H   UNL     1       1.312  -3.430   6.398  0.00  0.00    +0.292 HD
ENDBRANCH  23  24
ENDBRANCH  17  18
ENDBRANCH   4  17
TORSDOF 5
