REMARK  Name = ZINC43218846
REMARK  9 active torsions:
REMARK  status: ('A' for Active; 'I' for Inactive)
REMARK    1  A    between atoms: C_1  and  C_2
REMARK    2  A    between atoms: C_2  and  C_3
REMARK    3  A    between atoms: C_3  and  C_4
REMARK    4  A    between atoms: C_4  and  N_5
REMARK    5  A    between atoms: C_10  and  C_27
REMARK    6  A    between atoms: C_13  and  C_18
REMARK    7  A    between atoms: C_13  and  C_24
REMARK    8  A    between atoms: C_32  and  O_33
REMARK    9  A    between atoms: O_33  and  C_34
REMARK                            x       y       z     vdW  Elec       q    Type
REMARK                         _______ _______ _______ _____ _____    ______ ____
ROOT
ATOM      1  N   UNL     1      -3.155  -2.993   0.782  0.00  0.00    -0.242 N 
ATOM      2  C   UNL     1      -4.089  -3.375   1.713  0.00  0.00    +0.224 C 
ATOM      3  O   UNL     1      -4.041  -3.226   2.915  0.00  0.00    -0.275 OA
ATOM      4  C   UNL     1      -5.142  -3.993   0.941  0.00  0.00    +0.077 C 
ATOM      5  C   UNL     1      -6.558  -4.368   1.062  0.00  0.00    -0.023 C 
ATOM      6  N   UNL     1      -7.018  -4.542  -0.355  0.00  0.00    +0.398 N 
ATOM      7  C   UNL     1      -5.884  -4.140  -1.250  0.00  0.00    +0.074 C 
ATOM      8  C   UNL     1      -5.131  -3.116  -0.374  0.00  0.00    +0.090 C 
ATOM      9  C   UNL     1      -3.633  -3.041  -0.497  0.00  0.00    +0.225 C 
ATOM     10  O   UNL     1      -2.985  -3.029  -1.521  0.00  0.00    -0.275 OA
ATOM     11  H   UNL     1      -7.259  -5.508  -0.521  0.00  0.00    -0.083 HD
ATOM     12  H   UNL     1      -7.818  -3.953  -0.530  0.00  0.00    -0.083 HD
ENDROOT
BRANCH   5  13
ATOM     13  C   UNL     1      -7.338  -3.272   1.741  0.00  0.00    -0.018 A 
ATOM     14  C   UNL     1      -7.954  -2.293   0.987  0.00  0.00    +0.021 A 
ATOM     15  C   UNL     1      -8.670  -1.286   1.610  0.00  0.00    +0.018 A 
ATOM     16  C   UNL     1      -8.770  -1.258   2.989  0.00  0.00    +0.019 A 
ATOM     17  C   UNL     1      -8.156  -2.236   3.747  0.00  0.00    +0.047 A 
ATOM     18  C   UNL     1      -7.442  -3.249   3.124  0.00  0.00    +0.122 A 
ATOM     19 BR   UNL     1      -9.512   0.053   0.574  0.00  0.00    -0.050 Br
BRANCH  18  20
ATOM     20  O   UNL     1      -6.840  -4.214   3.868  0.00  0.00    -0.495 OA
ATOM     21  C   UNL     1      -6.989  -4.127   5.287  0.00  0.00    +0.277 C 
ENDBRANCH  18  20
ENDBRANCH   5  13
BRANCH   7  22
ATOM     22  C   UNL     1      -5.022  -5.329  -1.586  0.00  0.00    -0.047 A 
ATOM     23  C   UNL     1      -5.172  -6.512  -0.888  0.00  0.00    +0.003 A 
ATOM     24  C   UNL     1      -4.381  -7.603  -1.196  0.00  0.00    +0.000 A 
ATOM     25  C   UNL     1      -3.439  -7.510  -2.204  0.00  0.00    +0.000 A 
ATOM     26  C   UNL     1      -3.289  -6.327  -2.903  0.00  0.00    +0.000 A 
ATOM     27  C   UNL     1      -4.083  -5.238  -2.598  0.00  0.00    +0.003 A 
ENDBRANCH   7  22
BRANCH   7  28
ATOM     28  C   UNL     1      -6.401  -3.481  -2.503  0.00  0.00    +0.350 C 
ATOM     29  O   UNL     1      -7.601  -3.367  -2.681  0.00  0.00    -0.248 OA
ATOM     30  O   UNL     1      -5.618  -3.063  -3.339  0.00  0.00    -0.248 OA
ENDBRANCH   7  28
BRANCH   1  31
ATOM     31  C   UNL     1      -1.794  -2.574   1.124  0.00  0.00    +0.116 C 
BRANCH  31  32
ATOM     32  C   UNL     1      -1.770  -1.062   1.360  0.00  0.00    +0.019 C 
BRANCH  32  34
ATOM     33  C   UNL     1      -0.325   0.887   1.953  0.00  0.00    +0.004 C 
ATOM     34  C   UNL     1      -0.348  -0.624   1.717  0.00  0.00    -0.002 C 
ENDBRANCH  32  34
ENDBRANCH  31  32
ENDBRANCH   1  31
TORSDOF 7
