REMARK  Name = ZINC35501233
REMARK  8 active torsions:
REMARK  status: ('A' for Active; 'I' for Inactive)
REMARK    1  A    between atoms: C_1  and  N_2
REMARK    2  A    between atoms: N_2  and  C_3
REMARK    3  A    between atoms: C_3  and  C_5
REMARK    4  A    between atoms: C_3  and  C_12
REMARK    5  A    between atoms: C_14  and  O_21
REMARK    6  A    between atoms: C_15  and  O_19
REMARK    7  A    between atoms: O_19  and  C_20
REMARK    8  A    between atoms: O_21  and  C_22
REMARK                            x       y       z     vdW  Elec       q    Type
REMARK                         _______ _______ _______ _____ _____    ______ ____
ROOT
ATOM      1  C   UNL     1       0.690  -0.478  -1.207  0.00  0.00    -0.009 C 
ENDROOT
BRANCH   1   2
ATOM      2  C   UNL     1       0.603  -1.981  -1.277  0.00  0.00    -0.057 A 
ATOM      3  C   UNL     1       0.741  -2.736  -0.128  0.00  0.00    +0.003 A 
ATOM      4  C   UNL     1       0.662  -4.114  -0.192  0.00  0.00    +0.014 A 
ATOM      5  C   UNL     1       0.444  -4.738  -1.407  0.00  0.00    +0.013 A 
ATOM      6  C   UNL     1       0.306  -3.982  -2.557  0.00  0.00    +0.014 A 
ATOM      7  C   UNL     1       0.380  -2.604  -2.491  0.00  0.00    +0.003 A 
ATOM      8  I   UNL     1       0.325  -6.827  -1.506  0.00  0.00    -0.044 I 
ENDBRANCH   1   2
BRANCH   1   9
ATOM      9  C   UNL     1       2.137  -0.060  -1.158  0.00  0.00    -0.035 A 
ATOM     10  C   UNL     1       2.747   0.172   0.061  0.00  0.00    +0.053 A 
ATOM     11  C   UNL     1       4.077   0.556   0.108  0.00  0.00    +0.162 A 
ATOM     12  C   UNL     1       4.797   0.708  -1.074  0.00  0.00    +0.163 A 
ATOM     13  C   UNL     1       4.181   0.475  -2.292  0.00  0.00    +0.069 A 
ATOM     14  C   UNL     1       2.853   0.086  -2.332  0.00  0.00    +0.047 A 
ATOM     15 CL   UNL     1       2.083  -0.213  -3.859  0.00  0.00    -0.083 Cl
BRANCH  12  16
ATOM     16  O   UNL     1       6.103   1.086  -1.032  0.00  0.00    -0.491 OA
ATOM     17  C   UNL     1       6.779   1.222  -2.284  0.00  0.00    +0.277 C 
ENDBRANCH  12  16
BRANCH  11  18
ATOM     18  O   UNL     1       4.679   0.785   1.306  0.00  0.00    -0.491 OA
ATOM     19  C   UNL     1       3.879   0.610   2.477  0.00  0.00    +0.277 C 
ENDBRANCH  11  18
ENDBRANCH   1   9
BRANCH   1  21
ATOM     20  C   UNL     1      -0.018   1.465   0.010  0.00  0.00    -0.099 C 
ATOM     21  N   UNL     1       0.002  -0.004   0.002  0.00  0.00    +0.384 N 
ATOM     22  H   UNL     1       0.490  -0.338   0.820  0.00  0.00    -0.085 HD
ATOM     23  H   UNL     1      -0.945  -0.353   0.009  0.00  0.00    -0.085 HD
ENDBRANCH   1  21
TORSDOF 5
