REMARK  Name = ZINC27246967
REMARK  12 active torsions:
REMARK  status: ('A' for Active; 'I' for Inactive)
REMARK    1  A    between atoms: C_1  and  C_2
REMARK    2  A    between atoms: C_2  and  C_3
REMARK    3  A    between atoms: C_2  and  C_4
REMARK    4  A    between atoms: C_4  and  C_5
REMARK    5  A    between atoms: C_5  and  C_6
REMARK    6  A    between atoms: C_6  and  C_7
REMARK    7  A    between atoms: C_6  and  C_14
REMARK    8  A    between atoms: C_6  and  O_29
REMARK    9  A    between atoms: C_10  and  O_13
REMARK   10  A    between atoms: C_14  and  C_16
REMARK   11  A    between atoms: C_14  and  C_23
REMARK   12  A    between atoms: C_16  and  N_17
REMARK                            x       y       z     vdW  Elec       q    Type
REMARK                         _______ _______ _______ _____ _____    ______ ____
ROOT
ATOM      1  C   UNL     1      -0.255  -0.033   0.114  0.00  0.00    +0.096 C 
ENDROOT
BRANCH   1   2
ATOM      2  C   UNL     1       0.601  -0.234   1.338  0.00  0.00    -0.015 A 
ATOM      3  C   UNL     1       0.879   0.837   2.168  0.00  0.00    +0.010 A 
ATOM      4  C   UNL     1       1.659   0.654   3.294  0.00  0.00    +0.046 A 
ATOM      5  C   UNL     1       2.173  -0.601   3.584  0.00  0.00    +0.117 A 
ATOM      6  C   UNL     1       1.897  -1.672   2.746  0.00  0.00    +0.046 A 
ATOM      7  C   UNL     1       1.112  -1.486   1.625  0.00  0.00    +0.010 A 
BRANCH   5   8
ATOM      8  O   UNL     1       2.946  -0.782   4.687  0.00  0.00    -0.507 OA
ATOM      9  H   UNL     1       3.353  -1.778   4.917  0.00  0.00    +0.292 HD
ENDBRANCH   5   8
ENDBRANCH   1   2
BRANCH   1  10
ATOM     10  O   UNL     1      -0.304  -1.248  -0.637  0.00  0.00    -0.383 OA
ATOM     11  H   UNL     1       0.623  -1.689  -1.031  0.00  0.00    +0.211 HD
ENDBRANCH   1  10
BRANCH   1  12
ATOM     12  C   UNL     1      -1.671   0.360   0.541  0.00  0.00    +0.040 C 
BRANCH  12  13
ATOM     13  C   UNL     1      -2.281  -0.764   1.380  0.00  0.00    +0.006 C 
BRANCH  13  15
ATOM     14  C   UNL     1      -4.590  -0.257   0.569  0.00  0.00    +0.007 C 
ATOM     15  C   UNL     1      -3.697  -0.370   1.806  0.00  0.00    -0.017 C 
ATOM     16  C   UNL     1      -4.261  -1.437   2.747  0.00  0.00    +0.007 C 
ENDBRANCH  13  15
ENDBRANCH  12  13
ENDBRANCH   1  12
BRANCH   1  17
ATOM     17  C   UNL     1       0.344   1.077  -0.751  0.00  0.00    +0.039 C 
BRANCH  17  18
ATOM     18  C   UNL     1      -0.513   1.279  -1.974  0.00  0.00    -0.043 A 
ATOM     19  C   UNL     1      -0.593   0.287  -2.934  0.00  0.00    +0.004 A 
ATOM     20  C   UNL     1      -1.383   0.471  -4.053  0.00  0.00    +0.000 A 
ATOM     21  C   UNL     1      -2.086   1.649  -4.218  0.00  0.00    +0.000 A 
ATOM     22  C   UNL     1      -2.002   2.643  -3.261  0.00  0.00    +0.000 A 
ATOM     23  C   UNL     1      -1.216   2.458  -2.139  0.00  0.00    +0.004 A 
ENDBRANCH  17  18
BRANCH  17  24
ATOM     24  C   UNL     1       1.759   0.683  -1.180  0.00  0.00    -0.068 C 
BRANCH  24  25
ATOM     25  N   UNL     1       2.370   1.789  -1.929  0.00  0.00    +0.380 N 
ATOM     26  C   UNL     1       3.494   1.313  -2.746  0.00  0.00    -0.079 C 
ATOM     27  C   UNL     1       4.011   2.458  -3.620  0.00  0.00    -0.019 C 
ATOM     28  C   UNL     1       4.460   3.615  -2.724  0.00  0.00    -0.004 C 
ATOM     29  C   UNL     1       3.284   4.060  -1.849  0.00  0.00    -0.019 C 
ATOM     30  C   UNL     1       2.788   2.869  -1.027  0.00  0.00    -0.079 C 
ATOM     31  H   UNL     1       1.610   2.198  -2.611  0.00  0.00    -0.082 HD
ENDBRANCH  24  25
ENDBRANCH  17  24
ENDBRANCH   1  17
TORSDOF 10
