REMARK  Name = ZINC36027627
REMARK  14 active torsions:
REMARK  status: ('A' for Active; 'I' for Inactive)
REMARK    1  A    between atoms: C_1  and  C_2
REMARK    2  A    between atoms: C_2  and  C_3
REMARK    3  A    between atoms: C_3  and  N_4
REMARK    4  A    between atoms: N_10  and  C_15
REMARK    5  A    between atoms: C_12  and  C_14
REMARK    6  A    between atoms: C_15  and  C_16
REMARK    7  A    between atoms: C_17  and  C_34
REMARK    8  A    between atoms: C_18  and  C_27
REMARK    9  A    between atoms: N_23  and  C_24
REMARK   10  A    between atoms: C_24  and  C_25
REMARK   11  A    between atoms: C_32  and  C_33
REMARK   12  A    between atoms: C_34  and  O_36
REMARK   13  A    between atoms: O_36  and  C_37
REMARK   14  A    between atoms: C_37  and  C_38
REMARK                            x       y       z     vdW  Elec       q    Type
REMARK                         _______ _______ _______ _____ _____    ______ ____
ROOT
ATOM      1  C   UNL     1       1.944  -8.807  -0.515  0.00  0.00    +0.041 C 
ATOM      2  C   UNL     1       1.735 -10.128  -0.702  0.00  0.00    +0.080 C 
ATOM      3  C   UNL     1       0.924 -10.868   0.343  0.00  0.00    +0.144 C 
ATOM      4  N   UNL     1       0.426 -10.080   1.483  0.00  0.00    -0.288 N 
ATOM      5  C   UNL     1       0.719  -8.765   1.530  0.00  0.00    +0.307 C 
ATOM      6  O   UNL     1       0.313  -8.106   2.467  0.00  0.00    -0.252 OA
ATOM      7  N   UNL     1       1.446  -8.162   0.581  0.00  0.00    -0.254 N 
ATOM      8  H   UNL     1      -0.099 -10.497   2.183  0.00  0.00    +0.151 HD
ENDROOT
BRANCH   3   9
ATOM      9  C   UNL     1      -0.265 -11.488  -0.346  0.00  0.00    -0.020 A 
ATOM     10  C   UNL     1      -1.452 -10.787  -0.440  0.00  0.00    +0.006 A 
ATOM     11  C   UNL     1      -2.542 -11.356  -1.072  0.00  0.00    +0.000 A 
ATOM     12  C   UNL     1      -2.445 -12.626  -1.610  0.00  0.00    +0.000 A 
ATOM     13  C   UNL     1      -1.257 -13.326  -1.517  0.00  0.00    +0.004 A 
ATOM     14  C   UNL     1      -0.165 -12.755  -0.889  0.00  0.00    -0.045 A 
ATOM     15  C   UNL     1       1.131 -13.517  -0.792  0.00  0.00    +0.044 C 
ENDBRANCH   3   9
BRANCH   2  16
ATOM     16  C   UNL     1       2.256 -10.799  -1.833  0.00  0.00    +0.339 C 
ATOM     17  O   UNL     1       1.557 -10.966  -2.816  0.00  0.00    -0.245 OA
BRANCH  16  18
ATOM     18  O   UNL     1       3.526 -11.252  -1.824  0.00  0.00    -0.462 OA
BRANCH  18  19
ATOM     19  C   UNL     1       4.021 -11.821  -3.038  0.00  0.00    +0.229 C 
ATOM     20  C   UNL     1       5.504 -12.163  -2.873  0.00  0.00    +0.048 C 
ENDBRANCH  18  19
ENDBRANCH  16  18
ENDBRANCH   2  16
BRANCH   1  21
ATOM     21  C   UNL     1       2.746  -8.033  -1.530  0.00  0.00    +0.136 C 
BRANCH  21  28
ATOM     22  N   UNL     1       8.812  -8.088  -0.623  0.00  0.00    -0.299 N 
ATOM     23  C   UNL     1       8.035  -7.015  -0.873  0.00  0.00    +0.303 C 
ATOM     24  O   UNL     1       8.523  -6.010  -1.353  0.00  0.00    -0.253 OA
ATOM     25  N   UNL     1       6.718  -7.056  -0.590  0.00  0.00    -0.280 N 
ATOM     26  C   UNL     1       6.131  -8.211   0.107  0.00  0.00    +0.125 C 
ATOM     27  C   UNL     1       4.919  -8.698  -0.694  0.00  0.00    +0.104 C 
ATOM     28  N   UNL     1       4.000  -7.574  -0.916  0.00  0.00    -0.294 NA
ATOM     29  C   UNL     1       4.629  -6.524  -1.727  0.00  0.00    +0.107 C 
ATOM     30  C   UNL     1       5.830  -5.945  -0.963  0.00  0.00    +0.088 C 
ATOM     31  C   UNL     1       6.587  -4.962  -1.860  0.00  0.00    +0.029 C 
ATOM     32  H   UNL     1       8.440  -8.862  -0.173  0.00  0.00    +0.150 HD
BRANCH  22  33
ATOM     33  C   UNL     1      10.219  -8.085  -1.033  0.00  0.00    +0.105 C 
BRANCH  33  35
ATOM     34  C   UNL     1      12.338  -9.408  -1.063  0.00  0.00    +0.005 C 
ATOM     35  C   UNL     1      10.869  -9.411  -0.635  0.00  0.00    +0.015 C 
ENDBRANCH  33  35
ENDBRANCH  22  33
ENDBRANCH  21  28
ENDBRANCH   1  21
BRANCH   7  36
ATOM     36  C   UNL     1       1.716  -6.730   0.722  0.00  0.00    +0.141 C 
BRANCH  36  37
ATOM     37  C   UNL     1       0.561  -5.942   0.159  0.00  0.00    -0.015 C 
ATOM     38  C   UNL     1      -0.066  -5.071   0.909  0.00  0.00    +0.005 C 
ENDBRANCH  36  37
ENDBRANCH   7  36
TORSDOF 10
