REMARK  Name = ZINC25382041
REMARK  9 active torsions:
REMARK  status: ('A' for Active; 'I' for Inactive)
REMARK    1  A    between atoms: C_1  and  C_2
REMARK    2  A    between atoms: C_10  and  C_31
REMARK    3  A    between atoms: C_11  and  C_12
REMARK    4  A    between atoms: C_12  and  C_13
REMARK    5  A    between atoms: N_15  and  C_16
REMARK    6  A    between atoms: C_16  and  C_17
REMARK    7  A    between atoms: C_17  and  C_19
REMARK    8  A    between atoms: C_17  and  N_24
REMARK    9  A    between atoms: C_27  and  C_30
REMARK                            x       y       z     vdW  Elec       q    Type
REMARK                         _______ _______ _______ _____ _____    ______ ____
ROOT
ATOM      1  C   UNL     1       3.769   6.579   1.511  0.00  0.00    +0.217 C 
ATOM      2  O   UNL     1       3.190   6.060   2.441  0.00  0.00    -0.275 OA
ATOM      3  N   UNL     1       4.899   7.282   1.728  0.00  0.00    -0.316 N 
ATOM      4  H   UNL     1       5.423   7.753   0.883  0.00  0.00    +0.149 HD
ENDROOT
BRANCH   1   5
ATOM      5  C   UNL     1       3.226   6.439   0.112  0.00  0.00    +0.133 C 
BRANCH   5  16
ATOM      6  C   UNL     1       3.359   3.562  -0.176  0.00  0.00    +0.045 C 
ATOM      7  C   UNL     1       2.034   4.256   0.007  0.00  0.00    -0.036 A 
ATOM      8  C   UNL     1       0.833   3.523   0.043  0.00  0.00    +0.004 A 
ATOM      9  C   UNL     1       0.825   2.125  -0.088  0.00  0.00    +0.010 A 
ATOM     10  C   UNL     1      -0.358   1.452  -0.047  0.00  0.00    +0.001 A 
ATOM     11  C   UNL     1      -1.563   2.133   0.118  0.00  0.00    +0.002 A 
ATOM     12  C   UNL     1      -1.591   3.486   0.254  0.00  0.00    +0.028 A 
ATOM     13  C   UNL     1      -0.390   4.217   0.218  0.00  0.00    +0.072 A 
ATOM     14  N   UNL     1      -0.388   5.548   0.344  0.00  0.00    -0.252 NA
ATOM     15  C   UNL     1       0.729   6.233   0.311  0.00  0.00    +0.043 A 
ATOM     16  C   UNL     1       1.966   5.613   0.144  0.00  0.00    -0.014 A 
ATOM     17  C   UNL     1       0.674   7.732   0.459  0.00  0.00    +0.066 C 
ENDBRANCH   5  16
ENDBRANCH   1   5
BRANCH   3  18
ATOM     18  C   UNL     1       5.427   7.418   3.087  0.00  0.00    +0.094 C 
BRANCH  18  19
ATOM     19  C   UNL     1       6.773   8.145   3.041  0.00  0.00    -0.013 C 
BRANCH  19  20
ATOM     20  N   UNL     1       6.618   9.417   2.324  0.00  0.00    +0.386 N 
ATOM     21  C   UNL     1       5.537  10.222   2.907  0.00  0.00    -0.078 C 
ATOM     22  C   UNL     1       5.308  11.469   2.050  0.00  0.00    -0.015 C 
ATOM     23  C   UNL     1       6.601  12.286   1.990  0.00  0.00    -0.018 C 
ATOM     24  C   UNL     1       7.723  11.410   1.423  0.00  0.00    -0.015 C 
ATOM     25  C   UNL     1       7.882  10.165   2.299  0.00  0.00    -0.078 C 
ATOM     26  C   UNL     1       6.396  13.502   1.085  0.00  0.00    +0.007 C 
ATOM     27  H   UNL     1       6.342   9.190   1.283  0.00  0.00    -0.081 HD
ENDBRANCH  19  20
BRANCH  19  28
ATOM     28  C   UNL     1       7.783   7.285   2.326  0.00  0.00    -0.022 A 
ATOM     29  C   UNL     1       8.753   6.495   2.847  0.00  0.00    +0.009 A 
ATOM     30  C   UNL     1       9.572   5.785   1.990  0.00  0.00    +0.008 A 
ATOM     31  C   UNL     1       9.389   5.908   0.653  0.00  0.00    +0.045 A 
ATOM     32  S   UNL     1       8.018   7.050   0.572  0.00  0.00    -0.103 S 
ENDBRANCH  19  28
ENDBRANCH  18  19
ENDBRANCH   3  18
TORSDOF 6
