REMARK  Name = ZINC08918491
REMARK  6 active torsions:
REMARK  status: ('A' for Active; 'I' for Inactive)
REMARK    1  A    between atoms: C_1  and  C_2
REMARK    2  A    between atoms: C_12  and  N_67
REMARK    3  A    between atoms: C_17  and  C_18
REMARK    4  A    between atoms: C_17  and  N_67
REMARK    5  A    between atoms: C_24  and  C_37
REMARK    6  A    between atoms: C_29  and  C_36
REMARK                            x       y       z     vdW  Elec       q    Type
REMARK                         _______ _______ _______ _____ _____    ______ ____
ROOT
ATOM      1  N   UNL     1       2.707   0.407  -1.321  0.00  0.00    +0.385 N 
ATOM      2  H   UNL     1       2.905   0.814  -2.243  0.00  0.00    -0.085 HD
ATOM      3  H   UNL     1       1.853  -0.161  -1.375  0.00  0.00    -0.085 HD
ENDROOT
BRANCH   1  15
ATOM      4  C   UNL     1      -4.030   5.093  -0.571  0.00  0.00    +0.044 C 
ATOM      5  C   UNL     1      -2.994   3.999  -0.546  0.00  0.00    -0.050 A 
ATOM      6  C   UNL     1      -3.411   2.679  -0.598  0.00  0.00    +0.005 A 
ATOM      7  C   UNL     1      -2.518   1.621  -0.580  0.00  0.00    +0.026 A 
ATOM      8  C   UNL     1      -1.164   1.939  -0.513  0.00  0.00    +0.047 A 
ATOM      9  C   UNL     1      -0.743   3.292  -0.455  0.00  0.00    +0.003 A 
ATOM     10  C   UNL     1      -1.666   4.342  -0.475  0.00  0.00    +0.013 A 
ATOM     11  C   UNL     1       0.704   3.258  -0.386  0.00  0.00    -0.021 A 
ATOM     12  C   UNL     1       1.071   1.959  -0.400  0.00  0.00    +0.006 A 
ATOM     13  N   UNL     1      -0.042   1.163  -0.472  0.00  0.00    -0.359 N 
ATOM     14  H   UNL     1      -0.033   0.193  -0.495  0.00  0.00    +0.166 HD
ATOM     15  C   UNL     1       2.507   1.493  -0.343  0.00  0.00    -0.024 C 
ATOM     16  C   UNL     1       3.419   2.675  -0.693  0.00  0.00    -0.009 C 
ATOM     17  C   UNL     1       3.028   3.888   0.156  0.00  0.00    +0.003 C 
ATOM     18  C   UNL     1       1.667   4.416  -0.311  0.00  0.00    +0.037 C 
ENDBRANCH   1  15
BRANCH   1  19
ATOM     19  C   UNL     1       3.836  -0.449  -0.913  0.00  0.00    -0.066 C 
BRANCH  19  20
ATOM     20  C   UNL     1       4.019  -1.563  -1.944  0.00  0.00    +0.091 C 
ATOM     21  C   UNL     1       5.105  -2.549  -1.492  0.00  0.00    +0.064 C 
ATOM     22  C   UNL     1       4.624  -3.671  -0.666  0.00  0.00    -0.019 C 
ATOM     23  C   UNL     1       4.351  -4.863  -1.114  0.00  0.00    -0.064 C 
ATOM     24  C   UNL     1       4.008  -5.925  -0.091  0.00  0.00    +0.012 C 
ATOM     25  C   UNL     1       4.827  -7.184  -0.377  0.00  0.00    +0.007 C 
ATOM     26  C   UNL     1       4.792  -7.580  -1.847  0.00  0.00    +0.001 C 
ATOM     27  C   UNL     1       5.298  -6.452  -2.746  0.00  0.00    +0.011 C 
ATOM     28  C   UNL     1       4.429  -5.214  -2.564  0.00  0.00    -0.007 C 
ATOM     29  C   UNL     1       4.832  -4.075  -3.469  0.00  0.00    +0.056 C 
ATOM     30  C   UNL     1       5.705  -3.001  -2.833  0.00  0.00    +0.185 C 
ATOM     31  O   UNL     1       5.572  -1.808  -3.681  0.00  0.00    -0.461 OA
ATOM     32  C   UNL     1       4.590  -1.007  -3.237  0.00  0.00    +0.309 C 
ATOM     33  O   UNL     1       4.213   0.009  -3.784  0.00  0.00    -0.251 OA
ATOM     34  C   UNL     1       3.021  -5.588  -3.049  0.00  0.00    +0.016 C 
ATOM     35  C   UNL     1       2.517  -6.225  -0.010  0.00  0.00    +0.012 C 
ENDBRANCH  19  20
ENDBRANCH   1  19
TORSDOF 3
