REMARK  Name = ZINC31416230
REMARK  9 active torsions:
REMARK  status: ('A' for Active; 'I' for Inactive)
REMARK    1  A    between atoms: C_1  and  C_2
REMARK    2  A    between atoms: C_5  and  C_7
REMARK    3  A    between atoms: C_9  and  C_32
REMARK    4  A    between atoms: C_10  and  C_12
REMARK    5  A    between atoms: N_14  and  C_15
REMARK    6  A    between atoms: C_19  and  N_21
REMARK    7  A    between atoms: C_22  and  C_24
REMARK    8  A    between atoms: C_24  and  C_26
REMARK    9  A    between atoms: C_24  and  N_27
REMARK                            x       y       z     vdW  Elec       q    Type
REMARK                         _______ _______ _______ _____ _____    ______ ____
ROOT
ATOM      1  C   UNL     1      -7.666   4.461   7.507  0.00  0.00    +0.035 A 
ATOM      2  C   UNL     1      -8.998   4.468   7.113  0.00  0.00    +0.023 A 
ATOM      3  C   UNL     1      -9.986   4.809   8.016  0.00  0.00    +0.004 A 
ATOM      4  C   UNL     1      -9.652   5.146   9.314  0.00  0.00    +0.023 A 
ATOM      5  C   UNL     1      -8.322   5.142   9.714  0.00  0.00    +0.035 A 
ATOM      6  C   UNL     1      -7.328   4.793   8.811  0.00  0.00    +0.046 A 
ENDROOT
BRANCH   1   9
ATOM      7  C   UNL     1      -5.454   4.697   6.665  0.00  0.00    +0.257 C 
ATOM      8  O   UNL     1      -5.256   5.591   7.467  0.00  0.00    -0.269 OA
ATOM      9  N   UNL     1      -6.667   4.114   6.592  0.00  0.00    -0.281 N 
ATOM     10  H   UNL     1      -6.871   3.365   5.813  0.00  0.00    +0.155 HD
BRANCH   7  14
ATOM     11  C   UNL     1      -2.675   3.179   4.010  0.00  0.00    +0.144 A 
ATOM     12  N   UNL     1      -2.265   4.161   4.812  0.00  0.00    -0.240 NA
ATOM     13  C   UNL     1      -3.064   4.707   5.684  0.00  0.00    +0.058 A 
ATOM     14  C   UNL     1      -4.375   4.255   5.781  0.00  0.00    +0.097 A 
ATOM     15  S   UNL     1      -4.378   2.987   4.519  0.00  0.00    -0.059 S 
ATOM     16  C   UNL     1      -2.573   5.817   6.578  0.00  0.00    +0.067 C 
BRANCH  11  21
ATOM     17  C   UNL     1       1.063   1.721   1.009  0.00  0.00    +0.086 C 
ATOM     18  C   UNL     1      -0.293   1.806   1.660  0.00  0.00    +0.103 A 
ATOM     19  C   UNL     1      -1.363   1.044   1.351  0.00  0.00    +0.045 A 
ATOM     20  C   UNL     1      -2.416   1.448   2.191  0.00  0.00    +0.052 A 
ATOM     21  C   UNL     1      -1.927   2.450   2.978  0.00  0.00    +0.160 A 
ATOM     22  O   UNL     1      -0.635   2.650   2.646  0.00  0.00    -0.458 OA
ENDBRANCH  11  21
ENDBRANCH   7  14
ENDBRANCH   1   9
BRANCH   5  23
ATOM     23  N   UNL     1      -7.986   5.483  11.029  0.00  0.00    -0.284 N 
ATOM     24  C   UNL     1      -8.799   5.134  12.045  0.00  0.00    +0.242 C 
ATOM     25  O   UNL     1      -9.863   4.599  11.814  0.00  0.00    -0.273 OA
ATOM     26  H   UNL     1      -7.057   6.036  11.233  0.00  0.00    +0.155 HD
BRANCH  24  27
ATOM     27  C   UNL     1      -8.388   5.410  13.469  0.00  0.00    +0.190 C 
ATOM     28  C   UNL     1      -8.183   6.914  13.658  0.00  0.00    +0.042 C 
BRANCH  27  29
ATOM     29  N   UNL     1      -9.435   4.941  14.379  0.00  0.00    -0.260 N 
ATOM     30  C   UNL     1     -10.534   5.631  14.748  0.00  0.00    +0.109 A 
ATOM     31  C   UNL     1     -11.246   4.852  15.595  0.00  0.00    +0.041 A 
ATOM     32  C   UNL     1     -10.559   3.643  15.748  0.00  0.00    +0.134 A 
ATOM     33  N   UNL     1      -9.476   3.693  15.015  0.00  0.00    -0.179 NA
ENDBRANCH  27  29
ENDBRANCH  24  27
ENDBRANCH   5  23
TORSDOF 6
