REMARK  Name = ZINC19113388
REMARK  8 active torsions:
REMARK  status: ('A' for Active; 'I' for Inactive)
REMARK    1  A    between atoms: C_1  and  C_2
REMARK    2  A    between atoms: C_9  and  C_16
REMARK    3  A    between atoms: N_12  and  C_13
REMARK    4  A    between atoms: C_13  and  C_14
REMARK    5  A    between atoms: C_16  and  N_55
REMARK    6  A    between atoms: C_17  and  C_18
REMARK    7  A    between atoms: C_17  and  C_24
REMARK    8  A    between atoms: C_17  and  N_55
REMARK                            x       y       z     vdW  Elec       q    Type
REMARK                         _______ _______ _______ _____ _____    ______ ____
ROOT
ATOM      1  C   UNL     1       4.959   1.184  -0.038  0.00  0.00    -0.040 C 
ENDROOT
BRANCH   1  10
ATOM      2  C   UNL     1      -2.496   0.971   0.019  0.00  0.00    +0.044 C 
ATOM      3  C   UNL     1      -1.203   1.746   0.017  0.00  0.00    -0.050 A 
ATOM      4  C   UNL     1      -1.233   3.134   0.030  0.00  0.00    +0.005 A 
ATOM      5  C   UNL     1      -0.063   3.862   0.023  0.00  0.00    +0.027 A 
ATOM      6  C   UNL     1       1.161   3.202   0.008  0.00  0.00    +0.052 A 
ATOM      7  C   UNL     1       1.188   1.795   0.000  0.00  0.00    -0.001 A 
ATOM      8  C   UNL     1      -0.013   1.076   0.008  0.00  0.00    +0.013 A 
ATOM      9  C   UNL     1       2.481   1.109  -0.015  0.00  0.00    +0.017 A 
ATOM     10  C   UNL     1       3.611   1.858  -0.022  0.00  0.00    +0.001 A 
ATOM     11  C   UNL     1       3.530   3.267  -0.013  0.00  0.00    +0.253 A 
ATOM     12  O   UNL     1       4.558   3.922  -0.019  0.00  0.00    -0.267 OA
ATOM     13  N   UNL     1       2.347   3.906   0.001  0.00  0.00    -0.304 N 
BRANCH  13  14
ATOM     14  C   UNL     1       2.317   5.370   0.008  0.00  0.00    +0.152 C 
BRANCH  14  15
ATOM     15  C   UNL     1       2.294   5.879  -1.410  0.00  0.00    -0.013 C 
ATOM     16  C   UNL     1       1.344   6.694  -1.798  0.00  0.00    +0.005 C 
ENDBRANCH  14  15
ENDBRANCH  13  14
ENDBRANCH   1  10
BRANCH   1  17
ATOM     17  N   UNL     1       5.432   1.084  -1.431  0.00  0.00    +0.389 N 
ATOM     18  H   UNL     1       5.509   2.027  -1.831  0.00  0.00    -0.084 HD
ATOM     19  H   UNL     1       4.760   0.534  -1.979  0.00  0.00    -0.084 HD
BRANCH  17  20
ATOM     20  C   UNL     1       6.752   0.427  -1.478  0.00  0.00    -0.010 C 
BRANCH  20  21
ATOM     21  C   UNL     1       6.569  -1.069  -1.498  0.00  0.00    -0.057 A 
ATOM     22  C   UNL     1       5.546  -1.630  -2.240  0.00  0.00    +0.002 A 
ATOM     23  C   UNL     1       5.381  -3.002  -2.263  0.00  0.00    +0.000 A 
ATOM     24  C   UNL     1       6.232  -3.813  -1.535  0.00  0.00    +0.000 A 
ATOM     25  C   UNL     1       7.251  -3.251  -0.789  0.00  0.00    +0.000 A 
ATOM     26  C   UNL     1       7.420  -1.879  -0.771  0.00  0.00    +0.002 A 
ENDBRANCH  20  21
BRANCH  20  27
ATOM     27  C   UNL     1       7.477   0.861  -2.726  0.00  0.00    -0.057 A 
ATOM     28  C   UNL     1       6.787   0.991  -3.917  0.00  0.00    +0.002 A 
ATOM     29  C   UNL     1       7.451   1.395  -5.060  0.00  0.00    +0.000 A 
ATOM     30  C   UNL     1       8.807   1.657  -5.015  0.00  0.00    +0.000 A 
ATOM     31  C   UNL     1       9.499   1.522  -3.826  0.00  0.00    +0.000 A 
ATOM     32  C   UNL     1       8.834   1.124  -2.681  0.00  0.00    +0.002 A 
ENDBRANCH  20  27
ENDBRANCH  17  20
ENDBRANCH   1  17
TORSDOF 7
