REMARK  Name = ZINC19762104
REMARK  9 active torsions:
REMARK  status: ('A' for Active; 'I' for Inactive)
REMARK    1  A    between atoms: C_1  and  C_2
REMARK    2  A    between atoms: C_2  and  C_3
REMARK    3  A    between atoms: C_3  and  C_5
REMARK    4  A    between atoms: C_3  and  O_6
REMARK    5  A    between atoms: O_6  and  C_7
REMARK    6  A    between atoms: C_7  and  C_9
REMARK    7  A    between atoms: C_10  and  C_35
REMARK    8  A    between atoms: C_14  and  C_16
REMARK    9  A    between atoms: C_26  and  C_29
REMARK                            x       y       z     vdW  Elec       q    Type
REMARK                         _______ _______ _______ _____ _____    ______ ____
ROOT
ATOM      1  C   UNL     1      -2.459   1.214  -0.394  0.00  0.00    +0.065 C 
ATOM      2  C   UNL     1      -2.340  -0.125  -0.391  0.00  0.00    +0.016 C 
ATOM      3  N   UNL     1      -1.168  -0.715  -0.006  0.00  0.00    -0.321 N 
ATOM      4  C   UNL     1       0.002  -0.004   0.002  0.00  0.00    +0.016 C 
ATOM      5  C   UNL     1      -0.016   1.346   0.009  0.00  0.00    +0.024 C 
ATOM      6  C   UNL     1      -1.323   2.098   0.032  0.00  0.00    +0.093 C 
ATOM      7  C   UNL     1       1.178   2.088   0.002  0.00  0.00    +0.162 C 
ATOM      8  O   UNL     1       1.126   3.301   0.021  0.00  0.00    -0.292 OA
ATOM      9  C   UNL     1       2.519   1.406  -0.029  0.00  0.00    +0.088 C 
ATOM     10  C   UNL     1       2.374   0.052  -0.732  0.00  0.00    +0.032 C 
ATOM     11  C   UNL     1       1.306  -0.763  -0.001  0.00  0.00    +0.059 C 
ATOM     12  C   UNL     1      -3.505  -0.981  -0.815  0.00  0.00    +0.061 C 
ATOM     13  H   UNL     1      -1.159  -1.771   0.301  0.00  0.00    +0.152 HD
ENDROOT
BRANCH   6  14
ATOM     14  C   UNL     1      -1.579   2.603   1.429  0.00  0.00    -0.021 A 
ATOM     15  C   UNL     1      -1.684   1.710   2.479  0.00  0.00    +0.005 A 
ATOM     16  C   UNL     1      -1.918   2.173   3.760  0.00  0.00    +0.000 A 
ATOM     17  C   UNL     1      -2.047   3.530   3.992  0.00  0.00    +0.001 A 
ATOM     18  C   UNL     1      -1.942   4.424   2.943  0.00  0.00    +0.015 A 
ATOM     19  C   UNL     1      -1.702   3.961   1.661  0.00  0.00    +0.022 A 
ATOM     20 BR   UNL     1      -1.551   5.184   0.227  0.00  0.00    -0.050 Br
ENDBRANCH   6  14
BRANCH  10  21
ATOM     21  C   UNL     1       3.689  -0.683  -0.691  0.00  0.00    -0.044 A 
ATOM     22  C   UNL     1       4.278  -0.978   0.524  0.00  0.00    +0.004 A 
ATOM     23  C   UNL     1       5.482  -1.656   0.562  0.00  0.00    +0.000 A 
ATOM     24  C   UNL     1       6.101  -2.030  -0.615  0.00  0.00    +0.000 A 
ATOM     25  C   UNL     1       5.515  -1.731  -1.831  0.00  0.00    +0.000 A 
ATOM     26  C   UNL     1       4.309  -1.057  -1.869  0.00  0.00    +0.004 A 
ENDBRANCH  10  21
BRANCH   1  27
ATOM     27  C   UNL     1      -3.679   1.801  -0.803  0.00  0.00    +0.338 C 
ATOM     28  O   UNL     1      -4.608   1.095  -1.149  0.00  0.00    -0.245 OA
BRANCH  27  29
ATOM     29  O   UNL     1      -3.813   3.143  -0.811  0.00  0.00    -0.458 OA
BRANCH  29  30
ATOM     30  C   UNL     1      -5.073   3.667  -1.237  0.00  0.00    +0.173 C 
ATOM     31  C   UNL     1      -5.999   3.814  -0.028  0.00  0.00    +0.052 C 
BRANCH  30  33
ATOM     32  C   UNL     1      -4.040   4.871  -3.167  0.00  0.00    +0.007 C 
ATOM     33  C   UNL     1      -4.863   5.036  -1.888  0.00  0.00    +0.041 C 
ENDBRANCH  30  33
ENDBRANCH  29  30
ENDBRANCH  27  29
ENDBRANCH   1  27
TORSDOF 6
