REMARK  Name = ZINC59946873
REMARK  6 active torsions:
REMARK  status: ('A' for Active; 'I' for Inactive)
REMARK    1  A    between atoms: C_1  and  C_2
REMARK    2  A    between atoms: C_5  and  S_8
REMARK    3  A    between atoms: S_8  and  N_11
REMARK    4  A    between atoms: C_18  and  N_19
REMARK    5  A    between atoms: N_19  and  C_20
REMARK    6  A    between atoms: C_20  and  C_21
REMARK                            x       y       z     vdW  Elec       q    Type
REMARK                         _______ _______ _______ _____ _____    ______ ____
ROOT
ATOM      1  N   UNL     1       1.672  -5.053  -0.499  0.00  0.00    -0.128 NA
ATOM      2  C   UNL     1       2.026  -6.315  -0.590  0.00  0.00    +0.094 C 
ATOM      3  C   UNL     1       1.075  -7.318  -0.915  0.00  0.00    +0.031 C 
ATOM      4  C   UNL     1       1.448  -8.612  -1.008  0.00  0.00    +0.017 C 
ATOM      5  C   UNL     1       2.768  -9.033  -0.791  0.00  0.00    +0.019 C 
ATOM      6  C   UNL     1       3.752  -8.161  -0.476  0.00  0.00    +0.026 C 
ATOM      7  C   UNL     1       3.433  -6.731  -0.362  0.00  0.00    +0.015 C 
ATOM      8  C   UNL     1       4.390  -5.823  -0.053  0.00  0.00    +0.060 C 
ATOM      9 BR   UNL     1       3.184 -10.872  -0.945  0.00  0.00    -0.050 Br
ENDROOT
BRANCH   1  10
ATOM     10  S   UNL     1       0.096  -4.614  -0.758  0.00  0.00    +0.099 S 
ATOM     11  O   UNL     1      -0.664  -5.189   0.296  0.00  0.00    -0.146 OA
ATOM     12  O   UNL     1      -0.179  -4.878  -2.127  0.00  0.00    -0.146 OA
BRANCH  10  17
ATOM     13  C   UNL     1      -0.233   1.369  -0.055  0.00  0.00    +0.044 C 
ATOM     14  C   UNL     1      -0.151  -0.125  -0.230  0.00  0.00    -0.050 A 
ATOM     15  C   UNL     1       0.121  -0.661  -1.475  0.00  0.00    +0.005 A 
ATOM     16  C   UNL     1       0.196  -2.032  -1.636  0.00  0.00    +0.029 A 
ATOM     17  C   UNL     1       0.001  -2.867  -0.552  0.00  0.00    +0.112 A 
ATOM     18  C   UNL     1      -0.270  -2.331   0.693  0.00  0.00    +0.029 A 
ATOM     19  C   UNL     1      -0.342  -0.960   0.855  0.00  0.00    +0.005 A 
ENDBRANCH  10  17
ENDBRANCH   1  10
BRANCH   8  20
ATOM     20  N   UNL     1       4.114  -4.456  -0.149  0.00  0.00    -0.407 NA
ATOM     21  H   UNL     1       3.224  -4.324  -0.607  0.00  0.00    +0.123 HD
ATOM     22  H   UNL     1       4.079  -4.054   0.775  0.00  0.00    +0.123 HD
BRANCH  20  23
ATOM     23  C   UNL     1       5.169  -3.796  -0.930  0.00  0.00    +0.118 C 
BRANCH  23  24
ATOM     24  C   UNL     1       4.871  -2.323  -1.034  0.00  0.00    -0.032 A 
ATOM     25  C   UNL     1       4.109  -1.844  -2.083  0.00  0.00    +0.005 A 
ATOM     26  C   UNL     1       3.836  -0.492  -2.178  0.00  0.00    +0.000 A 
ATOM     27  C   UNL     1       4.324   0.381  -1.223  0.00  0.00    +0.000 A 
ATOM     28  C   UNL     1       5.085  -0.099  -0.174  0.00  0.00    +0.000 A 
ATOM     29  C   UNL     1       5.355  -1.451  -0.077  0.00  0.00    +0.005 A 
ENDBRANCH  23  24
ENDBRANCH  20  23
ENDBRANCH   8  20
TORSDOF 5
