REMARK  Name = ZINC52075717
REMARK  11 active torsions:
REMARK  status: ('A' for Active; 'I' for Inactive)
REMARK    1  A    between atoms: C_3  and  O_10
REMARK    2  A    between atoms: C_6  and  C_7
REMARK    3  A    between atoms: C_7  and  C_8
REMARK    4  A    between atoms: O_10  and  C_11
REMARK    5  A    between atoms: C_11  and  C_12
REMARK    6  A    between atoms: C_12  and  C_14
REMARK    7  A    between atoms: C_12  and  O_27
REMARK    8  A    between atoms: C_14  and  N_15
REMARK    9  A    between atoms: N_15  and  C_16
REMARK   10  A    between atoms: N_15  and  C_24
REMARK   11  A    between atoms: C_16  and  C_17
REMARK                            x       y       z     vdW  Elec       q    Type
REMARK                         _______ _______ _______ _____ _____    ______ ____
ROOT
ATOM      1  C   UNL     1       6.051   2.602  -0.022  0.00  0.00    +0.135 C 
ENDROOT
BRANCH   1   2
ATOM      2  O   UNL     1       6.175   3.415   1.147  0.00  0.00    -0.390 OA
ATOM      3  H   UNL     1       6.284   2.912   1.965  0.00  0.00    +0.210 HD
ENDBRANCH   1   2
BRANCH   1   4
ATOM      4  C   UNL     1       4.828   1.693   0.115  0.00  0.00    +0.258 C 
BRANCH   4   5
ATOM      5  O   UNL     1       3.643   2.491   0.148  0.00  0.00    -0.489 OA
BRANCH   5   8
ATOM      6  C   UNL     1       0.068   1.874   0.428  0.00  0.00    +0.008 A 
ATOM      7  C   UNL     1       1.270   2.545   0.307  0.00  0.00    +0.046 A 
ATOM      8  C   UNL     1       2.459   1.833   0.268  0.00  0.00    +0.121 A 
ATOM      9  C   UNL     1       2.440   0.448   0.352  0.00  0.00    +0.046 A 
ATOM     10  C   UNL     1       1.236  -0.218   0.473  0.00  0.00    +0.008 A 
ATOM     11  C   UNL     1       0.051   0.494   0.511  0.00  0.00    -0.033 A 
BRANCH  11  12
ATOM     12  C   UNL     1      -1.261  -0.235   0.644  0.00  0.00    +0.153 C 
BRANCH  12  13
ATOM     13  C   UNL     1      -1.783  -0.555  -0.695  0.00  0.00    +0.067 C 
ATOM     14  N   UNL     1      -2.185  -0.801  -1.728  0.00  0.00    -0.196 NA
ENDBRANCH  12  13
ENDBRANCH  11  12
ENDBRANCH   5   8
ENDBRANCH   4   5
ENDBRANCH   1   4
BRANCH   1  15
ATOM     15  C   UNL     1       7.308   1.745  -0.183  0.00  0.00    -0.043 C 
BRANCH  15  16
ATOM     16  N   UNL     1       8.482   2.618  -0.315  0.00  0.00    +0.386 N 
ATOM     17  H   UNL     1       8.336   3.265  -1.076  0.00  0.00    -0.081 HD
BRANCH  16  18
ATOM     18  C   UNL     1       8.679   3.366   0.933  0.00  0.00    -0.068 C 
ATOM     19  C   UNL     1       8.531   4.888   0.876  0.00  0.00    -0.017 C 
ATOM     20  C   UNL     1       9.917   4.259   1.034  0.00  0.00    -0.017 C 
ENDBRANCH  16  18
BRANCH  16  21
ATOM     21  C   UNL     1       9.672   1.800  -0.589  0.00  0.00    -0.043 C 
BRANCH  21  22
ATOM     22  C   UNL     1       9.521   1.128  -1.929  0.00  0.00    -0.064 A 
ATOM     23  C   UNL     1       9.036  -0.164  -2.003  0.00  0.00    +0.003 A 
ATOM     24  C   UNL     1       8.898  -0.782  -3.232  0.00  0.00    +0.020 A 
ATOM     25  C   UNL     1       9.246  -0.106  -4.388  0.00  0.00    +0.041 A 
ATOM     26  C   UNL     1       9.732   1.187  -4.314  0.00  0.00    +0.020 A 
ATOM     27  C   UNL     1       9.864   1.806  -3.085  0.00  0.00    +0.003 A 
ATOM     28 CL   UNL     1       9.073  -0.881  -5.932  0.00  0.00    -0.084 Cl
ENDBRANCH  21  22
ENDBRANCH  16  21
ENDBRANCH  15  16
ENDBRANCH   1  15
TORSDOF 11
