REMARK  Name = ZINC40960204
REMARK  8 active torsions:
REMARK  status: ('A' for Active; 'I' for Inactive)
REMARK    1  A    between atoms: C_1  and  C_2
REMARK    2  A    between atoms: C_4  and  O_10
REMARK    3  A    between atoms: C_6  and  C_9
REMARK    4  A    between atoms: O_10  and  C_11
REMARK    5  A    between atoms: C_11  and  C_13
REMARK    6  A    between atoms: C_11  and  C_14
REMARK    7  A    between atoms: N_16  and  N_17
REMARK    8  A    between atoms: C_18  and  C_19
REMARK                            x       y       z     vdW  Elec       q    Type
REMARK                         _______ _______ _______ _____ _____    ______ ____
ROOT
ATOM      1  C   UNL     1       0.965  -4.656  -3.498  0.00  0.00    +0.273 C 
ATOM      2  O   UNL     1       1.385  -3.862  -4.313  0.00  0.00    -0.270 OA
ATOM      3  N   UNL     1       1.218  -5.971  -3.645  0.00  0.00    -0.204 N 
ATOM      4  H   UNL     1       0.882  -6.606  -2.993  0.00  0.00    +0.177 HD
ENDROOT
BRANCH   1   5
ATOM      5  C   UNL     1       0.159  -4.171  -2.320  0.00  0.00    +0.257 C 
ATOM      6  C   UNL     1      -1.229  -4.813  -2.352  0.00  0.00    +0.062 C 
BRANCH   5   7
ATOM      7  O   UNL     1       0.028  -2.749  -2.386  0.00  0.00    -0.480 OA
BRANCH   7  11
ATOM      8  C   UNL     1      -0.818  -2.926   2.418  0.00  0.00    +0.045 C 
ATOM      9  C   UNL     1      -0.604  -2.146   1.146  0.00  0.00    -0.028 A 
ATOM     10  C   UNL     1      -0.384  -2.813  -0.043  0.00  0.00    +0.050 A 
ATOM     11  C   UNL     1      -0.189  -2.095  -1.214  0.00  0.00    +0.122 A 
ATOM     12  C   UNL     1      -0.214  -0.708  -1.188  0.00  0.00    +0.050 A 
ATOM     13  C   UNL     1      -0.434  -0.045   0.004  0.00  0.00    -0.028 A 
ATOM     14  C   UNL     1      -0.634  -0.763   1.170  0.00  0.00    +0.047 A 
ATOM     15 CL   UNL     1      -0.917   0.073   2.665  0.00  0.00    -0.083 Cl
ATOM     16  C   UNL     1      -0.461   1.462   0.034  0.00  0.00    +0.045 C 
ENDBRANCH   7  11
ENDBRANCH   5   7
ENDBRANCH   1   5
BRANCH   3  17
ATOM     17  N   UNL     1       1.967  -6.422  -4.740  0.00  0.00    -0.188 NA
ATOM     18  C   UNL     1       2.211  -7.689  -4.882  0.00  0.00    +0.138 C 
BRANCH  18  19
ATOM     19  C   UNL     1       2.999  -8.163  -6.034  0.00  0.00    -0.004 A 
ATOM     20  C   UNL     1       3.490  -7.251  -6.972  0.00  0.00    +0.009 A 
ATOM     21  C   UNL     1       4.226  -7.702  -8.048  0.00  0.00    +0.002 A 
ATOM     22  C   UNL     1       4.480  -9.054  -8.200  0.00  0.00    +0.015 A 
ATOM     23  C   UNL     1       3.997  -9.963  -7.275  0.00  0.00    +0.018 A 
ATOM     24  C   UNL     1       3.263  -9.526  -6.190  0.00  0.00    +0.024 A 
ATOM     25 BR   UNL     1       4.350 -11.808  -7.493  0.00  0.00    -0.050 Br
ENDBRANCH  18  19
ENDBRANCH   3  17
TORSDOF 5
