REMARK  Name = ZINC13712865
REMARK  7 active torsions:
REMARK  status: ('A' for Active; 'I' for Inactive)
REMARK    1  A    between atoms: C_1  and  C_2
REMARK    2  A    between atoms: C_5  and  N_9
REMARK    3  A    between atoms: C_6  and  C_8
REMARK    4  A    between atoms: N_9  and  C_10
REMARK    5  A    between atoms: C_10  and  C_11
REMARK    6  A    between atoms: C_16  and  C_23
REMARK    7  A    between atoms: C_24  and  C_26
REMARK                            x       y       z     vdW  Elec       q    Type
REMARK                         _______ _______ _______ _____ _____    ______ ____
ROOT
ATOM      1  N   UNL     1       1.054  -2.109  -0.004  0.00  0.00    -0.266 N 
ATOM      2  C   UNL     1       1.360  -2.758   1.136  0.00  0.00    +0.223 C 
ATOM      3  O   UNL     1       1.636  -3.939   1.107  0.00  0.00    -0.275 OA
ENDROOT
BRANCH   1   8
ATOM      4  C   UNL     1       0.187   3.497   0.064  0.00  0.00    +0.044 C 
ATOM      5  C   UNL     1       0.417   2.008   0.046  0.00  0.00    -0.050 A 
ATOM      6  C   UNL     1       1.694   1.509  -0.136  0.00  0.00    +0.005 A 
ATOM      7  C   UNL     1       1.909   0.145  -0.153  0.00  0.00    +0.024 A 
ATOM      8  C   UNL     1       0.840  -0.727   0.013  0.00  0.00    +0.040 A 
ATOM      9  C   UNL     1      -0.441  -0.223   0.196  0.00  0.00    -0.029 A 
ATOM     10  C   UNL     1      -0.648   1.143   0.212  0.00  0.00    +0.008 A 
ATOM     11  C   UNL     1      -1.603  -1.165   0.377  0.00  0.00    +0.045 C 
ENDBRANCH   1   8
BRANCH   2  12
ATOM     12  C   UNL     1       1.361  -2.017   2.448  0.00  0.00    +0.076 C 
ATOM     13  C   UNL     1       2.777  -1.525   2.756  0.00  0.00    +0.013 C 
ATOM     14  C   UNL     1       2.777  -0.772   4.088  0.00  0.00    +0.001 C 
ATOM     15  C   UNL     1       2.309  -1.709   5.203  0.00  0.00    +0.000 C 
ATOM     16  C   UNL     1       0.893  -2.200   4.896  0.00  0.00    +0.001 C 
ATOM     17  C   UNL     1       0.893  -2.953   3.564  0.00  0.00    +0.013 C 
ENDBRANCH   2  12
BRANCH   1  18
ATOM     18  C   UNL     1       0.945  -2.852  -1.263  0.00  0.00    +0.154 C 
BRANCH  18  19
ATOM     19  C   UNL     1       2.289  -2.889  -1.942  0.00  0.00    +0.035 A 
ATOM     20  C   UNL     1       3.109  -3.954  -1.760  0.00  0.00    +0.020 A 
ATOM     21  C   UNL     1       4.408  -3.960  -2.434  0.00  0.00    -0.001 A 
ATOM     22  C   UNL     1       5.296  -5.031  -2.284  0.00  0.00    +0.010 A 
ATOM     23  C   UNL     1       6.501  -5.006  -2.927  0.00  0.00    +0.004 A 
ATOM     24  C   UNL     1       6.853  -3.928  -3.728  0.00  0.00    -0.048 A 
ATOM     25  C   UNL     1       5.994  -2.863  -3.890  0.00  0.00    +0.029 A 
ATOM     26  C   UNL     1       4.761  -2.865  -3.245  0.00  0.00    +0.049 A 
ATOM     27  N   UNL     1       3.882  -1.813  -3.389  0.00  0.00    -0.322 N 
ATOM     28  H   UNL     1       4.154  -0.953  -4.019  0.00  0.00    +0.169 HD
ATOM     29  C   UNL     1       2.689  -1.819  -2.771  0.00  0.00    +0.254 A 
ATOM     30  O   UNL     1       1.935  -0.874  -2.925  0.00  0.00    -0.268 OA
ATOM     31  C   UNL     1       8.188  -3.923  -4.427  0.00  0.00    +0.044 C 
ENDBRANCH  18  19
ENDBRANCH   1  18
TORSDOF 4
