REMARK  Name = ZINC04477458
REMARK  6 active torsions:
REMARK  status: ('A' for Active; 'I' for Inactive)
REMARK    1  A    between atoms: C_1  and  C_2
REMARK    2  A    between atoms: C_3  and  C_12
REMARK    3  A    between atoms: C_12  and  C_14
REMARK    4  A    between atoms: C_14  and  N_15
REMARK    5  A    between atoms: C_18  and  C_22
REMARK    6  A    between atoms: C_18  and  C_23
REMARK                            x       y       z     vdW  Elec       q    Type
REMARK                         _______ _______ _______ _____ _____    ______ ____
ROOT
ATOM      1  N   UNL     1      -1.308   8.754   0.850  0.00  0.00    -0.216 N 
ATOM      2  C   UNL     1      -1.665   9.155  -0.386  0.00  0.00    +0.251 C 
ATOM      3  O   UNL     1      -1.220   8.757  -1.441  0.00  0.00    -0.272 OA
ATOM      4  C   UNL     1      -2.738  10.205  -0.182  0.00  0.00    +0.136 C 
ATOM      5  N   UNL     1      -2.869  10.287   1.283  0.00  0.00    -0.281 N 
ATOM      6  C   UNL     1      -1.994   9.404   1.797  0.00  0.00    +0.310 C 
ATOM      7  O   UNL     1      -1.844   9.217   2.989  0.00  0.00    -0.252 OA
ATOM      8  C   UNL     1      -4.058   9.762  -0.816  0.00  0.00    +0.047 C 
ATOM      9  H   UNL     1      -3.468  10.866   1.780  0.00  0.00    +0.152 HD
ENDROOT
BRANCH   4  10
ATOM     10  C   UNL     1      -2.298  11.530  -0.750  0.00  0.00    -0.008 A 
ATOM     11  C   UNL     1      -2.132  12.604   0.068  0.00  0.00    +0.007 A 
ATOM     12  C   UNL     1      -1.726  13.837  -0.439  0.00  0.00    +0.001 A 
ATOM     13  C   UNL     1      -1.482  14.002  -1.768  0.00  0.00    +0.008 A 
ATOM     14  C   UNL     1      -1.641  12.915  -2.644  0.00  0.00    -0.018 A 
ATOM     15  C   UNL     1      -2.050  11.660  -2.127  0.00  0.00    -0.012 A 
ATOM     16  C   UNL     1      -2.216  10.575  -3.005  0.00  0.00    +0.009 A 
ATOM     17  C   UNL     1      -1.971  10.739  -4.333  0.00  0.00    +0.001 A 
ATOM     18  C   UNL     1      -1.564  11.972  -4.841  0.00  0.00    +0.001 A 
ATOM     19  C   UNL     1      -1.399  13.047  -4.022  0.00  0.00    +0.008 A 
ENDBRANCH   4  10
BRANCH   1  20
ATOM     20  C   UNL     1      -0.289   7.737   1.124  0.00  0.00    +0.197 C 
BRANCH  20  21
ATOM     21  C   UNL     1      -0.939   6.379   1.185  0.00  0.00    +0.183 C 
ATOM     22  O   UNL     1      -2.113   6.254   0.901  0.00  0.00    -0.290 OA
BRANCH  21  25
ATOM     23  C   UNL     1       0.563   4.485  -0.755  0.00  0.00    +0.064 C 
ATOM     24  C   UNL     1       0.501   4.382   0.747  0.00  0.00    +0.024 A 
ATOM     25  C   UNL     1      -0.180   5.247   1.576  0.00  0.00    +0.047 A 
ATOM     26  C   UNL     1       0.040   4.759   2.951  0.00  0.00    +0.010 A 
ATOM     27  C   UNL     1      -0.375   5.190   4.208  0.00  0.00    +0.011 A 
ATOM     28  C   UNL     1       0.009   4.489   5.331  0.00  0.00    +0.001 A 
ATOM     29  C   UNL     1       0.815   3.366   5.212  0.00  0.00    +0.002 A 
ATOM     30  C   UNL     1       1.232   2.929   3.974  0.00  0.00    +0.026 A 
ATOM     31  C   UNL     1       0.850   3.620   2.828  0.00  0.00    +0.047 A 
ATOM     32  N   UNL     1       1.103   3.430   1.485  0.00  0.00    -0.358 N 
ATOM     33  H   UNL     1       1.642   2.709   1.122  0.00  0.00    +0.166 HD
ENDBRANCH  21  25
ENDBRANCH  20  21
ENDBRANCH   1  20
TORSDOF 4
