REMARK  Name = ZINC33957450
REMARK  6 active torsions:
REMARK  status: ('A' for Active; 'I' for Inactive)
REMARK    1  A    between atoms: C_1  and  C_2
REMARK    2  A    between atoms: N_6  and  N_7
REMARK    3  A    between atoms: C_8  and  C_10
REMARK    4  A    between atoms: C_13  and  S_16
REMARK    5  A    between atoms: S_16  and  N_19
REMARK    6  A    between atoms: C_30  and  C_37
REMARK                            x       y       z     vdW  Elec       q    Type
REMARK                         _______ _______ _______ _____ _____    ______ ____
ROOT
ATOM      1  C   UNL     1      -0.019   1.532   0.011  0.00  0.00    +0.016 C 
ATOM      2  C   UNL     1       0.002  -0.004   0.002  0.00  0.00    -0.007 C 
ATOM      3  C   UNL     1       0.718  -0.419  -1.278  0.00  0.00    +0.017 C 
ATOM      4  C   UNL     1       2.219  -0.129  -1.203  0.00  0.00    +0.058 C 
ATOM      5  C   UNL     1       2.777  -0.896  -0.020  0.00  0.00    +0.059 C 
ATOM      6  N   UNL     1       3.904  -1.546  -0.097  0.00  0.00    -0.185 NA
ATOM      7  C   UNL     1       1.992  -0.876   1.222  0.00  0.00    +0.024 C 
ATOM      8  C   UNL     1       0.734  -0.440   1.230  0.00  0.00    -0.062 C 
ATOM      9  C   UNL     1       0.038  -0.372   2.569  0.00  0.00    +0.031 C 
ATOM     10  C   UNL     1      -1.346  -0.960   2.479  0.00  0.00    +0.008 C 
ATOM     11  C   UNL     1      -2.176  -0.482   1.300  0.00  0.00    -0.003 C 
ATOM     12  C   UNL     1      -1.439  -0.458  -0.022  0.00  0.00    +0.002 C 
ATOM     13  C   UNL     1      -1.702  -1.719  -0.825  0.00  0.00    +0.005 C 
ATOM     14  C   UNL     1      -3.168  -1.761  -1.293  0.00  0.00    +0.015 C 
ATOM     15  C   UNL     1      -4.066  -1.305  -0.165  0.00  0.00    +0.029 C 
ATOM     16  C   UNL     1      -3.325  -1.480   1.175  0.00  0.00    +0.006 C 
ATOM     17  C   UNL     1      -4.454  -1.283   2.198  0.00  0.00    +0.012 C 
ATOM     18  C   UNL     1      -5.670  -1.961   1.514  0.00  0.00    +0.075 C 
ATOM     19  C   UNL     1      -5.300  -2.158   0.049  0.00  0.00    +0.139 C 
ATOM     20  O   UNL     1      -5.856  -2.841  -0.771  0.00  0.00    -0.297 OA
ATOM     21  C   UNL     1      -4.520   0.138  -0.376  0.00  0.00    +0.019 C 
ENDROOT
BRANCH   6  22
ATOM     22  N   UNL     1       4.388  -2.243   1.017  0.00  0.00    -0.203 N 
ATOM     23  C   UNL     1       5.554  -2.915   0.937  0.00  0.00    +0.263 C 
ATOM     24  O   UNL     1       6.185  -2.916  -0.102  0.00  0.00    -0.268 OA
ATOM     25  H   UNL     1       3.885  -2.242   1.846  0.00  0.00    +0.178 HD
BRANCH  23  26
ATOM     26  C   UNL     1       6.065  -3.650   2.113  0.00  0.00    +0.038 A 
ATOM     27  C   UNL     1       5.340  -3.656   3.306  0.00  0.00    +0.015 A 
ATOM     28  C   UNL     1       5.823  -4.344   4.399  0.00  0.00    +0.029 A 
ATOM     29  C   UNL     1       7.023  -5.028   4.316  0.00  0.00    +0.105 A 
ATOM     30  C   UNL     1       7.746  -5.027   3.136  0.00  0.00    +0.029 A 
ATOM     31  C   UNL     1       7.272  -4.348   2.033  0.00  0.00    +0.015 A 
BRANCH  29  32
ATOM     32  S   UNL     1       7.633  -5.904   5.718  0.00  0.00    +0.056 S 
ATOM     33  O   UNL     1       9.040  -6.009   5.551  0.00  0.00    -0.153 OA
ATOM     34  O   UNL     1       7.044  -5.300   6.862  0.00  0.00    -0.153 OA
BRANCH  32  35
ATOM     35  N   UNL     1       7.030  -7.444   5.633  0.00  0.00    -0.204 NA
ATOM     36  H   UNL     1       7.536  -8.184   6.005  0.00  0.00    +0.144 HD
ATOM     37  H   UNL     1       6.172  -7.606   5.212  0.00  0.00    +0.144 HD
ENDBRANCH  32  35
ENDBRANCH  29  32
ENDBRANCH  23  26
ENDBRANCH   6  22
TORSDOF 4
