REMARK  Name = ZINC39737802
REMARK  6 active torsions:
REMARK  status: ('A' for Active; 'I' for Inactive)
REMARK    1  A    between atoms: C_1  and  C_2
REMARK    2  A    between atoms: C_2  and  C_4
REMARK    3  A    between atoms: C_2  and  S_15
REMARK    4  A    between atoms: C_4  and  C_6
REMARK    5  A    between atoms: S_15  and  C_16
REMARK    6  A    between atoms: N_21  and  C_22
REMARK                            x       y       z     vdW  Elec       q    Type
REMARK                         _______ _______ _______ _____ _____    ______ ____
ROOT
ATOM      1  C   UNL     1      -2.299  -0.051  -1.496  0.00  0.00    +0.241 C 
ATOM      2  N   UNL     1      -2.308   1.401  -1.743  0.00  0.00    -0.259 N 
ATOM      3  N   UNL     1      -1.557   1.603  -2.908  0.00  0.00    -0.283 N 
ATOM      4  C   UNL     1      -1.111   0.489  -3.381  0.00  0.00    +0.183 C 
ATOM      5  N   UNL     1      -1.500  -0.597  -2.606  0.00  0.00    -0.244 N 
ATOM      6  N   UNL     1      -0.337   0.387  -4.529  0.00  0.00    -0.299 N 
ATOM      7  C   UNL     1      -0.922  -0.073  -5.798  0.00  0.00    +0.136 C 
ATOM      8  C   UNL     1      -0.548   0.931  -6.895  0.00  0.00    +0.179 C 
ATOM      9  O   UNL     1       0.867   1.134  -6.885  0.00  0.00    -0.377 OA
ATOM     10  C   UNL     1       1.368   1.701  -5.672  0.00  0.00    +0.179 C 
ATOM     11  C   UNL     1       1.091   0.742  -4.514  0.00  0.00    +0.136 C 
ATOM     12  H   UNL     1      -2.745   2.081  -1.206  0.00  0.00    +0.169 HD
ATOM     13  H   UNL     1      -1.394   2.471  -3.308  0.00  0.00    +0.187 HD
ENDROOT
BRANCH   5  14
ATOM     14  C   UNL     1      -1.192  -1.941  -2.832  0.00  0.00    +0.039 A 
ATOM     15  C   UNL     1      -1.767  -2.929  -2.042  0.00  0.00    +0.023 A 
ATOM     16  C   UNL     1      -1.461  -4.257  -2.269  0.00  0.00    +0.002 A 
ATOM     17  C   UNL     1      -0.584  -4.603  -3.280  0.00  0.00    +0.000 A 
ATOM     18  C   UNL     1      -0.010  -3.622  -4.067  0.00  0.00    +0.002 A 
ATOM     19  C   UNL     1      -0.315  -2.293  -3.850  0.00  0.00    +0.023 A 
ENDBRANCH   5  14
BRANCH   1  20
ATOM     20  S   UNL     1      -1.515  -0.422   0.097  0.00  0.00    -0.107 S 
BRANCH  20  22
ATOM     21  C   UNL     1      -0.008   1.847  -0.150  0.00  0.00    +0.027 C 
ATOM     22  C   UNL     1       0.132   0.328  -0.040  0.00  0.00    +0.117 C 
BRANCH  22  23
ATOM     23  C   UNL     1       0.943  -0.014   1.183  0.00  0.00    +0.174 C 
ATOM     24  O   UNL     1       0.383  -0.280   2.228  0.00  0.00    -0.291 OA
BRANCH  23  25
ATOM     25  C   UNL     1       2.352  -0.026   1.115  0.00  0.00    +0.024 C 
ATOM     26  C   UNL     1       3.237  -0.322   2.136  0.00  0.00    +0.006 A 
ATOM     27  C   UNL     1       3.055  -0.685   3.492  0.00  0.00    +0.010 A 
ATOM     28  C   UNL     1       4.125  -0.922   4.283  0.00  0.00    +0.001 A 
ATOM     29  C   UNL     1       5.445  -0.823   3.814  0.00  0.00    +0.002 A 
ATOM     30  C   UNL     1       5.728  -0.483   2.538  0.00  0.00    +0.026 A 
ATOM     31  C   UNL     1       4.619  -0.208   1.609  0.00  0.00    +0.043 A 
ATOM     32  N   UNL     1       4.601   0.133   0.352  0.00  0.00    -0.380 N 
ATOM     33  C   UNL     1       3.212   0.277  -0.092  0.00  0.00    +0.152 C 
ATOM     34  H   UNL     1       5.385   0.267  -0.203  0.00  0.00    +0.160 HD
ENDBRANCH  23  25
ENDBRANCH  22  23
ENDBRANCH  20  22
ENDBRANCH   1  20
TORSDOF 5
