REMARK  Name = ZINC11496726
REMARK  9 active torsions:
REMARK  status: ('A' for Active; 'I' for Inactive)
REMARK    1  A    between atoms: C_1  and  C_2
REMARK    2  A    between atoms: C_7  and  N_12
REMARK    3  A    between atoms: C_9  and  C_11
REMARK    4  A    between atoms: C_13  and  C_15
REMARK    5  A    between atoms: C_15  and  O_16
REMARK    6  A    between atoms: O_16  and  C_17
REMARK    7  A    between atoms: C_17  and  C_19
REMARK    8  A    between atoms: C_19  and  N_20
REMARK    9  A    between atoms: C_21  and  C_23
REMARK                            x       y       z     vdW  Elec       q    Type
REMARK                         _______ _______ _______ _____ _____    ______ ____
ROOT
ATOM      1  C   UNL     1      -0.718   1.572   1.248  0.00  0.00    +0.325 C 
ATOM      2  O   UNL     1      -1.711   2.254   1.150  0.00  0.00    -0.249 OA
ENDROOT
BRANCH   1   3
ATOM      3  O   UNL     1      -0.243   1.247   2.461  0.00  0.00    -0.454 OA
BRANCH   3   4
ATOM      4  C   UNL     1      -0.974   1.750   3.611  0.00  0.00    +0.327 C 
BRANCH   4   6
ATOM      5  N   UNL     1      -0.804   1.637   6.076  0.00  0.00    -0.309 N 
ATOM      6  C   UNL     1      -0.298   1.288   4.876  0.00  0.00    +0.251 C 
ATOM      7  O   UNL     1       0.700   0.602   4.815  0.00  0.00    -0.272 OA
ATOM      8  H   UNL     1      -1.603   2.185   6.125  0.00  0.00    +0.149 HD
BRANCH   5  14
ATOM      9  C   UNL     1      -0.124   2.654  10.866  0.00  0.00    +0.008 C 
ATOM     10  C   UNL     1       0.207   1.686   9.728  0.00  0.00    -0.009 C 
ATOM     11  C   UNL     1      -0.291   0.285  10.090  0.00  0.00    +0.003 C 
ATOM     12  C   UNL     1       0.040  -0.683   8.952  0.00  0.00    +0.002 C 
ATOM     13  C   UNL     1      -0.646  -0.213   7.667  0.00  0.00    +0.022 C 
ATOM     14  C   UNL     1      -0.148   1.187   7.306  0.00  0.00    +0.076 C 
ATOM     15  C   UNL     1      -0.478   2.155   8.444  0.00  0.00    +0.009 C 
ATOM     16  C   UNL     1       0.020   3.556   8.082  0.00  0.00    +0.009 C 
ENDBRANCH   5  14
ENDBRANCH   4   6
ENDBRANCH   3   4
ENDBRANCH   1   3
BRANCH   1  17
ATOM     17  C   UNL     1      -0.013   1.086   0.008  0.00  0.00    +0.225 C 
BRANCH  17  18
ATOM     18  N   UNL     1      -0.721   1.571  -1.179  0.00  0.00    -0.300 N 
ATOM     19  C   UNL     1      -0.268   1.258  -2.409  0.00  0.00    +0.253 C 
ATOM     20  O   UNL     1       0.729   0.573  -2.534  0.00  0.00    -0.270 OA
ATOM     21  H   UNL     1      -1.516   2.118  -1.079  0.00  0.00    +0.150 HD
BRANCH  19  22
ATOM     22  C   UNL     1      -0.978   1.745  -3.599  0.00  0.00    +0.093 A 
ATOM     23  C   UNL     1      -0.678   1.537  -4.910  0.00  0.00    +0.068 A 
ATOM     24  C   UNL     1      -1.493   2.095  -5.912  0.00  0.00    +0.008 A 
ATOM     25  C   UNL     1      -1.347   1.993  -7.320  0.00  0.00    +0.010 A 
ATOM     26  C   UNL     1      -2.230   2.598  -8.155  0.00  0.00    +0.001 A 
ATOM     27  C   UNL     1      -3.304   3.336  -7.671  0.00  0.00    +0.001 A 
ATOM     28  C   UNL     1      -3.483   3.461  -6.308  0.00  0.00    +0.016 A 
ATOM     29  C   UNL     1      -2.594   2.852  -5.447  0.00  0.00    +0.021 A 
ATOM     30  S   UNL     1      -2.452   2.748  -3.681  0.00  0.00    -0.082 S 
ATOM     31 CL   UNL     1       0.707   0.585  -5.344  0.00  0.00    -0.082 Cl
ENDBRANCH  19  22
ENDBRANCH  17  18
ENDBRANCH   1  17
TORSDOF 7
