REMARK  Name = ZINC40056639
REMARK  7 active torsions:
REMARK  status: ('A' for Active; 'I' for Inactive)
REMARK    1  A    between atoms: C_1  and  C_2
REMARK    2  A    between atoms: N_16  and  C_30
REMARK    3  A    between atoms: C_17  and  C_19
REMARK    4  A    between atoms: C_22  and  O_25
REMARK    5  A    between atoms: O_25  and  C_26
REMARK    6  A    between atoms: C_26  and  C_27
REMARK    7  A    between atoms: C_30  and  C_31
REMARK                            x       y       z     vdW  Elec       q    Type
REMARK                         _______ _______ _______ _____ _____    ______ ____
ROOT
ATOM      1  C   UNL     1      -0.018   1.503   0.010  0.00  0.00    +0.045 C 
ATOM      2  C   UNL     1       0.002  -0.004   0.002  0.00  0.00    -0.029 A 
ATOM      3  C   UNL     1       0.006  -0.677  -1.199  0.00  0.00    +0.051 A 
ATOM      4  C   UNL     1       0.026  -2.071  -1.222  0.00  0.00    +0.140 A 
ATOM      5  C   UNL     1       0.047  -2.767  -0.001  0.00  0.00    +0.066 A 
ATOM      6  C   UNL     1       0.040  -2.075   1.209  0.00  0.00    +0.035 A 
ATOM      7  C   UNL     1       0.023  -0.696   1.206  0.00  0.00    +0.045 A 
ATOM      8 CL   UNL     1       0.021   0.175   2.707  0.00  0.00    -0.083 Cl
ATOM      9  C   UNL     1       0.085  -4.251  -0.018  0.00  0.00    +0.199 A 
ATOM     10  O   UNL     1      -0.063  -4.933   0.980  0.00  0.00    -0.287 OA
ATOM     11  C   UNL     1       0.317  -4.817  -1.351  0.00  0.00    +0.072 A 
ATOM     12  C   UNL     1       0.278  -4.030  -2.467  0.00  0.00    +0.199 A 
ATOM     13  O   UNL     1       0.021  -2.708  -2.416  0.00  0.00    -0.450 OA
ATOM     14  C   UNL     1       0.555  -4.877  -3.640  0.00  0.00    +0.283 C 
ATOM     15  O   UNL     1       0.599  -4.483  -4.788  0.00  0.00    -0.267 OA
ATOM     16  N   UNL     1       0.754  -6.154  -3.253  0.00  0.00    -0.281 N 
ATOM     17  C   UNL     1       0.617  -6.213  -1.789  0.00  0.00    +0.145 C 
ENDROOT
BRANCH  17  18
ATOM     18  C   UNL     1       1.905  -6.687  -1.165  0.00  0.00    -0.022 A 
ATOM     19  C   UNL     1       3.117  -6.273  -1.685  0.00  0.00    +0.009 A 
ATOM     20  C   UNL     1       4.298  -6.707  -1.116  0.00  0.00    +0.046 A 
ATOM     21  C   UNL     1       4.268  -7.558  -0.021  0.00  0.00    +0.121 A 
ATOM     22  C   UNL     1       3.050  -7.972   0.499  0.00  0.00    +0.046 A 
ATOM     23  C   UNL     1       1.871  -7.531  -0.070  0.00  0.00    +0.009 A 
BRANCH  21  24
ATOM     24  O   UNL     1       5.429  -7.987   0.541  0.00  0.00    -0.483 OA
BRANCH  24  25
ATOM     25  C   UNL     1       5.321  -8.862   1.666  0.00  0.00    +0.324 C 
BRANCH  25  26
ATOM     26  C   UNL     1       6.700  -9.229   2.151  0.00  0.00    +0.248 C 
ATOM     27  O   UNL     1       7.678  -8.785   1.589  0.00  0.00    -0.272 OA
ATOM     28  N   UNL     1       6.845 -10.050   3.209  0.00  0.00    -0.327 N 
ATOM     29  H   UNL     1       6.063 -10.405   3.659  0.00  0.00    +0.145 HD
ATOM     30  H   UNL     1       7.733 -10.287   3.521  0.00  0.00    +0.145 HD
ENDBRANCH  25  26
ENDBRANCH  24  25
ENDBRANCH  21  24
ENDBRANCH  17  18
BRANCH  16  31
ATOM     31  C   UNL     1       1.053  -7.284  -4.136  0.00  0.00    +0.140 C 
BRANCH  31  32
ATOM     32  C   UNL     1       2.568  -7.415  -4.302  0.00  0.00    +0.136 C 
ATOM     33  C   UNL     1       2.905  -8.584  -5.261  0.00  0.00    +0.035 C 
ATOM     34  C   UNL     1       4.302  -8.147  -5.779  0.00  0.00    +0.031 C 
ATOM     35  C   UNL     1       4.170  -6.609  -5.820  0.00  0.00    +0.160 C 
ATOM     36  O   UNL     1       3.104  -6.242  -4.934  0.00  0.00    -0.375 OA
ENDBRANCH  31  32
ENDBRANCH  16  31
TORSDOF 6
