REMARK  Name = ZINC12824546
REMARK  6 active torsions:
REMARK  status: ('A' for Active; 'I' for Inactive)
REMARK    1  A    between atoms: C_1  and  C_2
REMARK    2  A    between atoms: C_2  and  C_4
REMARK    3  A    between atoms: C_2  and  O_25
REMARK    4  A    between atoms: C_9  and  N_10
REMARK    5  A    between atoms: N_10  and  S_11
REMARK    6  A    between atoms: S_11  and  C_14
REMARK                            x       y       z     vdW  Elec       q    Type
REMARK                         _______ _______ _______ _____ _____    ______ ____
ROOT
ATOM      1  S   UNL     1       3.948   2.403  -0.000  0.00  0.00    +0.072 S 
ATOM      2  O   UNL     1       3.734   3.714   0.504  0.00  0.00    -0.150 OA
ATOM      3  O   UNL     1       4.928   1.529   0.542  0.00  0.00    -0.150 OA
ENDROOT
BRANCH   1   4
ATOM      4  C   UNL     1       2.404   1.562   0.114  0.00  0.00    +0.112 A 
ATOM      5  C   UNL     1       1.226   2.284   0.141  0.00  0.00    +0.032 A 
ATOM      6  C   UNL     1       0.010   1.631   0.229  0.00  0.00    +0.051 A 
ATOM      7  C   UNL     1      -0.023   0.248   0.290  0.00  0.00    +0.162 A 
ATOM      8  C   UNL     1       1.159  -0.478   0.265  0.00  0.00    +0.164 A 
ATOM      9  C   UNL     1       2.375   0.180   0.176  0.00  0.00    +0.078 A 
ATOM     10  O   UNL     1       1.116  -1.840   0.327  0.00  0.00    -0.488 OA
ATOM     11  C   UNL     1       0.679  -2.395   1.569  0.00  0.00    +0.232 C 
ATOM     12  C   UNL     1      -0.839  -2.456   1.628  0.00  0.00    +0.082 C 
ATOM     13  C   UNL     1      -1.475  -1.075   1.614  0.00  0.00    +0.232 C 
ATOM     14  O   UNL     1      -1.216  -0.410   0.376  0.00  0.00    -0.488 OA
ENDBRANCH   1   4
BRANCH   1  15
ATOM     15  N   UNL     1       4.298   2.567  -1.610  0.00  0.00    -0.216 N 
ATOM     16  H   UNL     1       5.104   2.168  -1.974  0.00  0.00    +0.174 HD
BRANCH  15  22
ATOM     17  C   UNL     1       3.243   2.876  -3.759  0.00  0.00    +0.003 A 
ATOM     18  C   UNL     1       2.384   3.580  -4.579  0.00  0.00    +0.008 A 
ATOM     19  C   UNL     1       1.722   4.694  -4.096  0.00  0.00    +0.000 A 
ATOM     20  C   UNL     1       1.915   5.104  -2.789  0.00  0.00    +0.002 A 
ATOM     21  C   UNL     1       2.768   4.400  -1.962  0.00  0.00    +0.025 A 
ATOM     22  C   UNL     1       3.434   3.281  -2.444  0.00  0.00    +0.054 A 
BRANCH  17  24
ATOM     23  C   UNL     1       3.177   0.403  -3.939  0.00  0.00    +0.043 C 
ATOM     24  C   UNL     1       3.969   1.665  -4.288  0.00  0.00    +0.143 C 
BRANCH  24  25
ATOM     25  O   UNL     1       4.097   1.770  -5.708  0.00  0.00    -0.387 OA
ATOM     26  H   UNL     1       3.252   1.824  -6.176  0.00  0.00    +0.210 HD
ENDBRANCH  24  25
ENDBRANCH  17  24
ENDBRANCH  15  22
ENDBRANCH   1  15
TORSDOF 5
