REMARK  Name = ZINC20505005
REMARK  3 active torsions:
REMARK  status: ('A' for Active; 'I' for Inactive)
REMARK    1  A    between atoms: C_6  and  C_7
REMARK    2  A    between atoms: C_7  and  N_8
REMARK    3  A    between atoms: N_8  and  C_9
REMARK                            x       y       z     vdW  Elec       q    Type
REMARK                         _______ _______ _______ _____ _____    ______ ____
ROOT
ATOM      1  C   UNL     1       3.709  -0.718  -0.046  0.00  0.00    +0.137 C 
ENDROOT
BRANCH   1   7
ATOM      2  C   UNL     1       1.208  -0.680  -0.016  0.00  0.00    +0.009 A 
ATOM      3  C   UNL     1       0.002  -0.004   0.002  0.00  0.00    +0.050 A 
ATOM      4  C   UNL     1      -0.017   1.382   0.010  0.00  0.00    +0.162 A 
ATOM      5  C   UNL     1       1.180   2.090   0.002  0.00  0.00    +0.162 A 
ATOM      6  C   UNL     1       2.386   1.406  -0.016  0.00  0.00    +0.054 A 
ATOM      7  C   UNL     1       2.397   0.023  -0.026  0.00  0.00    -0.027 A 
ATOM      8  O   UNL     1       1.184   3.451   0.018  0.00  0.00    -0.485 OA
ATOM      9  C   UNL     1      -0.040   4.103  -0.340  0.00  0.00    +0.270 C 
ATOM     10  C   UNL     1      -1.188   3.413   0.408  0.00  0.00    +0.270 C 
ATOM     11  O   UNL     1      -1.211   2.034   0.019  0.00  0.00    -0.485 OA
ENDBRANCH   1   7
BRANCH   1  12
ATOM     12  N   UNL     1       4.119  -0.950  -1.438  0.00  0.00    -0.337 N 
ATOM     13  H   UNL     1       3.486  -0.593  -2.264  0.00  0.00    +0.146 HD
BRANCH  12  14
ATOM     14  C   UNL     1       5.336  -1.637  -1.495  0.00  0.00    +0.065 A 
ATOM     15  C   UNL     1       6.476  -1.081  -0.927  0.00  0.00    +0.065 A 
ATOM     16  C   UNL     1       7.676  -1.765  -0.981  0.00  0.00    +0.042 A 
ATOM     17  C   UNL     1       7.745  -2.997  -1.607  0.00  0.00    +0.044 A 
ATOM     18  C   UNL     1       6.612  -3.550  -2.178  0.00  0.00    +0.042 A 
ATOM     19  C   UNL     1       5.408  -2.874  -2.123  0.00  0.00    +0.065 A 
ATOM     20 CL   UNL     1       3.988  -3.569  -2.839  0.00  0.00    -0.082 Cl
ATOM     21 CL   UNL     1       9.255  -3.850  -1.677  0.00  0.00    -0.083 Cl
ATOM     22 CL   UNL     1       6.392   0.467  -0.147  0.00  0.00    -0.082 Cl
ENDBRANCH  12  14
ENDBRANCH   1  12
TORSDOF 3
