REMARK  Name = ZINC43735316
REMARK  9 active torsions:
REMARK  status: ('A' for Active; 'I' for Inactive)
REMARK    1  A    between atoms: C_1  and  C_2
REMARK    2  A    between atoms: C_2  and  C_3
REMARK    3  A    between atoms: C_3  and  C_5
REMARK    4  A    between atoms: C_3  and  C_6
REMARK    5  A    between atoms: C_6  and  C_8
REMARK    6  A    between atoms: C_6  and  N_12
REMARK    7  A    between atoms: C_8  and  O_10
REMARK    8  A    between atoms: O_10  and  C_11
REMARK    9  A    between atoms: C_24  and  C_26
REMARK                            x       y       z     vdW  Elec       q    Type
REMARK                         _______ _______ _______ _____ _____    ______ ____
ROOT
ATOM      1  N   UNL     1      -0.648  -2.558  -3.621  0.00  0.00    -0.286 N 
ATOM      2  C   UNL     1      -1.127  -2.823  -2.389  0.00  0.00    +0.304 C 
ATOM      3  O   UNL     1      -0.419  -2.660  -1.414  0.00  0.00    -0.253 OA
ATOM      4  N   UNL     1      -2.390  -3.268  -2.238  0.00  0.00    -0.273 N 
ATOM      5  C   UNL     1      -2.967  -3.460  -0.899  0.00  0.00    +0.116 C 
ATOM      6  C   UNL     1      -3.269  -4.949  -0.690  0.00  0.00    +0.076 C 
ATOM      7  C   UNL     1      -3.949  -5.487  -1.924  0.00  0.00    +0.066 A 
ATOM      8  C   UNL     1      -3.929  -4.881  -3.131  0.00  0.00    +0.064 A 
ATOM      9  N   UNL     1      -4.642  -5.662  -3.986  0.00  0.00    -0.346 N 
ATOM     10  H   UNL     1      -4.803  -5.489  -4.927  0.00  0.00    +0.167 HD
ATOM     11  C   UNL     1      -5.083  -6.725  -3.275  0.00  0.00    +0.197 A 
ATOM     12  N   UNL     1      -4.664  -6.610  -2.042  0.00  0.00    -0.240 NA
ATOM     13  C   UNL     1      -3.231  -3.569  -3.411  0.00  0.00    +0.159 C 
ATOM     14  H   UNL     1      -1.190  -2.747  -4.403  0.00  0.00    +0.151 HD
ENDROOT
BRANCH  13  15
ATOM     15  C   UNL     1      -4.247  -2.474  -3.608  0.00  0.00    +0.017 A 
ATOM     16  C   UNL     1      -5.564  -2.679  -3.240  0.00  0.00    +0.009 A 
ATOM     17  C   UNL     1      -6.498  -1.676  -3.420  0.00  0.00    +0.003 A 
ATOM     18  C   UNL     1      -6.117  -0.465  -3.969  0.00  0.00    +0.041 A 
ATOM     19  C   UNL     1      -4.800  -0.257  -4.338  0.00  0.00    +0.159 A 
ATOM     20  C   UNL     1      -3.862  -1.262  -4.153  0.00  0.00    +0.164 A 
ATOM     21  F   UNL     1      -2.575  -1.059  -4.508  0.00  0.00    -0.202 F 
ATOM     22  F   UNL     1      -4.427   0.925  -4.875  0.00  0.00    -0.202 F 
ENDBRANCH  13  15
BRANCH   1  23
ATOM     23  C   UNL     1       0.691  -1.986  -3.779  0.00  0.00    +0.186 C 
BRANCH  23  24
ATOM     24  C   UNL     1       1.730  -3.109  -3.776  0.00  0.00    +0.017 C 
ATOM     25  C   UNL     1       1.654  -3.871  -2.452  0.00  0.00    +0.010 C 
BRANCH  24  27
ATOM     26  C   UNL     1       2.554  -5.121  -5.008  0.00  0.00    +0.004 C 
ATOM     27  C   UNL     1       1.445  -4.069  -4.934  0.00  0.00    +0.002 C 
ENDBRANCH  24  27
ENDBRANCH  23  24
BRANCH  23  28
ATOM     28  C   UNL     1       0.766  -1.235  -5.083  0.00  0.00    +0.328 C 
ATOM     29  O   UNL     1      -0.200  -1.184  -5.807  0.00  0.00    -0.249 OA
BRANCH  28  30
ATOM     30  O   UNL     1       1.906  -0.624  -5.442  0.00  0.00    -0.467 OA
ATOM     31  C   UNL     1       1.905   0.069  -6.691  0.00  0.00    +0.280 C 
ENDBRANCH  28  30
ENDBRANCH  23  28
ENDBRANCH   1  23
TORSDOF 6
