REMARK  Name = ZINC38649648
REMARK  8 active torsions:
REMARK  status: ('A' for Active; 'I' for Inactive)
REMARK    1  A    between atoms: C_4  and  C_7
REMARK    2  A    between atoms: C_7  and  C_9
REMARK    3  A    between atoms: C_7  and  O_20
REMARK    4  A    between atoms: C_9  and  C_11
REMARK    5  A    between atoms: O_20  and  C_21
REMARK    6  A    between atoms: C_21  and  C_23
REMARK    7  A    between atoms: C_23  and  C_24
REMARK    8  A    between atoms: C_24  and  N_25
REMARK                            x       y       z     vdW  Elec       q    Type
REMARK                         _______ _______ _______ _____ _____    ______ ____
ROOT
ATOM      1  C   UNL     1       3.711  -0.707  -0.038  0.00  0.00    +0.277 C 
ENDROOT
BRANCH   1   5
ATOM      2  C   UNL     1      -0.017   1.378   0.010  0.00  0.00    +0.000 A 
ATOM      3  C   UNL     1       1.171   2.086   0.002  0.00  0.00    +0.000 A 
ATOM      4  C   UNL     1       2.377   1.411  -0.013  0.00  0.00    +0.008 A 
ATOM      5  C   UNL     1       2.396   0.029  -0.020  0.00  0.00    +0.000 A 
ATOM      6  C   UNL     1       1.208  -0.679  -0.012  0.00  0.00    +0.008 A 
ATOM      7  C   UNL     1       0.002  -0.004   0.002  0.00  0.00    +0.000 A 
ENDBRANCH   1   5
BRANCH   1   8
ATOM      8  C   UNL     1       4.074  -1.053  -1.459  0.00  0.00    +0.206 C 
ATOM      9  O   UNL     1       3.871  -2.173  -1.881  0.00  0.00    -0.288 OA
BRANCH   8  10
ATOM     10  C   UNL     1       4.650  -0.076  -2.298  0.00  0.00    +0.027 C 
ATOM     11  C   UNL     1       5.033  -0.228  -3.618  0.00  0.00    +0.006 A 
ATOM     12  C   UNL     1       4.987  -1.322  -4.514  0.00  0.00    +0.010 A 
ATOM     13  C   UNL     1       5.442  -1.186  -5.780  0.00  0.00    +0.001 A 
ATOM     14  C   UNL     1       5.973   0.020  -6.264  0.00  0.00    +0.002 A 
ATOM     15  C   UNL     1       6.062   1.124  -5.491  0.00  0.00    +0.026 A 
ATOM     16  C   UNL     1       5.588   1.062  -4.098  0.00  0.00    +0.043 A 
ATOM     17  N   UNL     1       5.555   1.954  -3.151  0.00  0.00    -0.380 N 
ATOM     18  C   UNL     1       4.972   1.359  -1.944  0.00  0.00    +0.152 C 
ATOM     19  H   UNL     1       5.864   2.870  -3.231  0.00  0.00    +0.160 HD
ENDBRANCH   8  10
ENDBRANCH   1   8
BRANCH   1  20
ATOM     20  O   UNL     1       3.596  -1.907   0.731  0.00  0.00    -0.448 OA
BRANCH  20  21
ATOM     21  C   UNL     1       3.892  -1.824   2.037  0.00  0.00    +0.310 C 
ATOM     22  O   UNL     1       4.238  -0.769   2.513  0.00  0.00    -0.251 OA
BRANCH  21  23
ATOM     23  C   UNL     1       3.794  -3.049   2.910  0.00  0.00    +0.139 C 
BRANCH  23  24
ATOM     24  C   UNL     1       4.183  -2.684   4.345  0.00  0.00    +0.114 C 
BRANCH  24  25
ATOM     25  N   UNL     1       4.087  -3.874   5.194  0.00  0.00    -0.327 N 
ATOM     26  C   UNL     1       4.391  -3.790   6.535  0.00  0.00    +0.150 C 
ATOM     27  N   UNL     1       4.757  -2.661   7.054  0.00  0.00    -0.113 NA
ATOM     28  S   UNL     1       5.030  -2.970   8.676  0.00  0.00    +0.101 S 
ATOM     29  O   UNL     1       6.424  -2.828   8.915  0.00  0.00    -0.146 OA
ATOM     30  O   UNL     1       4.034  -2.285   9.421  0.00  0.00    -0.146 OA
ATOM     31  C   UNL     1       4.649  -4.700   8.724  0.00  0.00    +0.123 A 
ATOM     32  C   UNL     1       4.298  -4.979   7.395  0.00  0.00    +0.043 A 
ATOM     33  C   UNL     1       3.928  -6.298   7.089  0.00  0.00    +0.013 A 
ATOM     34  C   UNL     1       3.913  -7.262   8.073  0.00  0.00    +0.001 A 
ATOM     35  C   UNL     1       4.260  -6.955   9.376  0.00  0.00    +0.002 A 
ATOM     36  C   UNL     1       4.638  -5.657   9.695  0.00  0.00    +0.030 A 
ATOM     37  H   UNL     1       3.810  -4.722   4.812  0.00  0.00    +0.148 HD
ENDBRANCH  24  25
ENDBRANCH  23  24
ENDBRANCH  21  23
ENDBRANCH  20  21
ENDBRANCH   1  20
TORSDOF 8
