REMARK  Name = ZINC44452667
REMARK  8 active torsions:
REMARK  status: ('A' for Active; 'I' for Inactive)
REMARK    1  A    between atoms: C_1  and  C_2
REMARK    2  A    between atoms: C_2  and  N_3
REMARK    3  A    between atoms: N_3  and  C_4
REMARK    4  A    between atoms: N_3  and  C_6
REMARK    5  A    between atoms: C_4  and  C_5
REMARK    6  A    between atoms: C_9  and  C_12
REMARK    7  A    between atoms: N_14  and  C_15
REMARK    8  A    between atoms: C_16  and  C_23
REMARK                            x       y       z     vdW  Elec       q    Type
REMARK                         _______ _______ _______ _____ _____    ______ ____
ROOT
ATOM      1  C   UNL     1       8.296  -2.017   2.033  0.00  0.00    +0.085 A 
ATOM      2  C   UNL     1       9.122  -2.478   3.043  0.00  0.00    +0.069 A 
ATOM      3  C   UNL     1      10.544  -2.616   2.733  0.00  0.00    -0.023 A 
ATOM      4  C   UNL     1      10.869  -2.266   1.476  0.00  0.00    -0.004 A 
ATOM      5  S   UNL     1       9.331  -1.781   0.735  0.00  0.00    -0.077 S 
ATOM      6  C   UNL     1      12.342  -2.422   1.212  0.00  0.00    +0.043 C 
ATOM      7  C   UNL     1      12.981  -2.517   2.615  0.00  0.00    +0.010 C 
ATOM      8  C   UNL     1      11.812  -3.064   3.458  0.00  0.00    +0.037 C 
ENDROOT
BRANCH   2   9
ATOM      9  C   UNL     1       8.593  -2.814   4.367  0.00  0.00    +0.254 C 
ATOM     10  O   UNL     1       8.209  -3.945   4.599  0.00  0.00    -0.270 OA
ATOM     11  N   UNL     1       8.533  -1.871   5.328  0.00  0.00    -0.236 N 
ATOM     12  C   UNL     1       8.046  -2.180   6.546  0.00  0.00    +0.304 C 
ATOM     13  O   UNL     1       7.662  -3.310   6.778  0.00  0.00    -0.253 OA
ATOM     14  N   UNL     1       7.986  -1.237   7.507  0.00  0.00    -0.313 N 
ATOM     15  H   UNL     1       8.839  -0.970   5.142  0.00  0.00    +0.159 HD
ATOM     16  H   UNL     1       8.293  -0.336   7.321  0.00  0.00    +0.146 HD
ATOM     17  H   UNL     1       7.636  -1.459   8.383  0.00  0.00    +0.146 HD
ENDBRANCH   2   9
BRANCH   1  20
ATOM     18  C   UNL     1       6.277  -1.353   0.991  0.00  0.00    +0.249 C 
ATOM     19  O   UNL     1       6.891  -1.132  -0.035  0.00  0.00    -0.270 OA
ATOM     20  N   UNL     1       6.928  -1.804   2.082  0.00  0.00    -0.275 N 
ATOM     21  H   UNL     1       6.439  -1.981   2.900  0.00  0.00    +0.156 HD
BRANCH  18  25
ATOM     22  C   UNL     1       2.084  -0.702   1.140  0.00  0.00    +0.030 A 
ATOM     23  C   UNL     1       2.785  -0.448  -0.036  0.00  0.00    +0.024 A 
ATOM     24  C   UNL     1       4.144  -0.658  -0.087  0.00  0.00    +0.015 A 
ATOM     25  C   UNL     1       4.821  -1.127   1.043  0.00  0.00    +0.037 A 
ATOM     26  C   UNL     1       4.114  -1.381   2.222  0.00  0.00    +0.015 A 
ATOM     27  C   UNL     1       2.756  -1.163   2.269  0.00  0.00    +0.024 A 
BRANCH  22  28
ATOM     28  N   UNL     1       0.711  -0.489   1.189  0.00  0.00    -0.330 N 
BRANCH  28  30
ATOM     29  C   UNL     1      -0.019   1.526   0.010  0.00  0.00    +0.024 C 
ATOM     30  C   UNL     1       0.002  -0.004   0.002  0.00  0.00    +0.102 C 
ENDBRANCH  28  30
BRANCH  28  31
ATOM     31  C   UNL     1      -0.028  -0.750   2.427  0.00  0.00    +0.102 C 
ATOM     32  C   UNL     1      -0.511  -2.202   2.437  0.00  0.00    +0.024 C 
ENDBRANCH  28  31
ENDBRANCH  22  28
ENDBRANCH  18  25
ENDBRANCH   1  20
TORSDOF 6
