REMARK  Name = ZINC63515315
REMARK  6 active torsions:
REMARK  status: ('A' for Active; 'I' for Inactive)
REMARK    1  A    between atoms: C_4  and  C_7
REMARK    2  A    between atoms: C_9  and  C_25
REMARK    3  A    between atoms: C_9  and  O_31
REMARK    4  A    between atoms: N_10  and  C_14
REMARK    5  A    between atoms: C_14  and  C_15
REMARK    6  A    between atoms: C_15  and  C_16
REMARK                            x       y       z     vdW  Elec       q    Type
REMARK                         _______ _______ _______ _____ _____    ______ ____
ROOT
ATOM      1  C   UNL     1       3.711  -0.707  -0.038  0.00  0.00    +0.263 C 
ATOM      2  C   UNL     1       4.081  -1.144  -1.475  0.00  0.00    +0.206 C 
ATOM      3  N   UNL     1       4.693  -2.469  -1.251  0.00  0.00    -0.231 N 
ATOM      4  C   UNL     1       4.381  -2.858  -0.000  0.00  0.00    +0.406 C 
ATOM      5  O   UNL     1       4.764  -3.900   0.494  0.00  0.00    -0.226 OA
ATOM      6  O   UNL     1       3.602  -1.972   0.643  0.00  0.00    -0.437 OA
ENDROOT
BRANCH   1  10
ATOM      7  C   UNL     1      -0.017   1.378   0.010  0.00  0.00    +0.000 A 
ATOM      8  C   UNL     1       1.171   2.086   0.002  0.00  0.00    +0.000 A 
ATOM      9  C   UNL     1       2.377   1.411  -0.013  0.00  0.00    +0.007 A 
ATOM     10  C   UNL     1       2.396   0.029  -0.020  0.00  0.00    -0.002 A 
ATOM     11  C   UNL     1       1.208  -0.679  -0.012  0.00  0.00    +0.007 A 
ATOM     12  C   UNL     1       0.002  -0.004   0.002  0.00  0.00    +0.000 A 
ENDBRANCH   1  10
BRANCH   2  13
ATOM     13  C   UNL     1       2.848  -1.262  -2.333  0.00  0.00    +0.006 A 
ATOM     14  C   UNL     1       2.166  -2.463  -2.403  0.00  0.00    +0.008 A 
ATOM     15  C   UNL     1       1.035  -2.571  -3.190  0.00  0.00    +0.000 A 
ATOM     16  C   UNL     1       0.586  -1.478  -3.908  0.00  0.00    +0.000 A 
ATOM     17  C   UNL     1       1.267  -0.277  -3.838  0.00  0.00    +0.000 A 
ATOM     18  C   UNL     1       2.395  -0.168  -3.047  0.00  0.00    +0.008 A 
ENDBRANCH   2  13
BRANCH   2  19
ATOM     19  O   UNL     1       5.022  -0.240  -2.056  0.00  0.00    -0.364 OA
ATOM     20  H   UNL     1       5.285  -0.471  -2.957  0.00  0.00    +0.213 HD
ENDBRANCH   2  19
BRANCH   3  21
ATOM     21  C   UNL     1       5.497  -3.223  -2.216  0.00  0.00    +0.119 C 
BRANCH  21  22
ATOM     22  C   UNL     1       6.972  -2.849  -2.055  0.00  0.00    +0.052 C 
BRANCH  22  23
ATOM     23  C   UNL     1       7.798  -3.625  -3.047  0.00  0.00    -0.040 C 
ATOM     24  C   UNL     1       8.205  -3.209  -4.268  0.00  0.00    -0.001 A 
ATOM     25  C   UNL     1       8.006  -1.958  -5.010  0.00  0.00    +0.010 A 
ATOM     26  C   UNL     1       8.547  -1.834  -6.243  0.00  0.00    +0.001 A 
ATOM     27  C   UNL     1       9.291  -2.867  -6.830  0.00  0.00    +0.002 A 
ATOM     28  C   UNL     1       9.517  -4.045  -6.210  0.00  0.00    +0.026 A 
ATOM     29  C   UNL     1       8.995  -4.285  -4.909  0.00  0.00    +0.043 A 
ATOM     30  N   UNL     1       9.074  -5.325  -4.115  0.00  0.00    -0.380 N 
ATOM     31  C   UNL     1       8.347  -5.024  -2.877  0.00  0.00    +0.144 C 
ATOM     32  H   UNL     1       9.539  -6.153  -4.312  0.00  0.00    +0.160 HD
ENDBRANCH  22  23
ENDBRANCH  21  22
ENDBRANCH   3  21
TORSDOF 6
