REMARK  Name = ZINC36609426
REMARK  12 active torsions:
REMARK  status: ('A' for Active; 'I' for Inactive)
REMARK    1  A    between atoms: C_1  and  C_2
REMARK    2  A    between atoms: C_2  and  C_3
REMARK    3  A    between atoms: C_2  and  C_4
REMARK    4  A    between atoms: C_2  and  N_5
REMARK    5  A    between atoms: C_6  and  C_8
REMARK    6  A    between atoms: C_8  and  C_10
REMARK    7  A    between atoms: C_8  and  N_19
REMARK    8  A    between atoms: C_13  and  N_16
REMARK    9  A    between atoms: N_19  and  C_20
REMARK   10  A    between atoms: C_26  and  C_28
REMARK   11  A    between atoms: C_30  and  N_35
REMARK   12  A    between atoms: C_33  and  O_34
REMARK                            x       y       z     vdW  Elec       q    Type
REMARK                         _______ _______ _______ _____ _____    ______ ____
ROOT
ATOM      1  N   UNL     1       4.001  -0.498  -2.730  0.00  0.00    -0.251 N 
ATOM      2  C   UNL     1       4.465  -1.621  -2.146  0.00  0.00    +0.255 C 
ATOM      3  O   UNL     1       5.383  -2.236  -2.655  0.00  0.00    -0.269 OA
ENDROOT
BRANCH   1   4
ATOM      4  C   UNL     1       4.683   0.057  -3.818  0.00  0.00    +0.038 A 
ATOM      5  C   UNL     1       5.893   0.710  -3.621  0.00  0.00    +0.023 A 
ATOM      6  C   UNL     1       6.564   1.257  -4.697  0.00  0.00    +0.002 A 
ATOM      7  C   UNL     1       6.032   1.156  -5.969  0.00  0.00    +0.000 A 
ATOM      8  C   UNL     1       4.827   0.507  -6.169  0.00  0.00    +0.002 A 
ATOM      9  C   UNL     1       4.154  -0.047  -5.098  0.00  0.00    +0.023 A 
ENDBRANCH   1   4
BRANCH   2  10
ATOM     10  C   UNL     1       3.860  -2.103  -0.890  0.00  0.00    +0.081 A 
ATOM     11  C   UNL     1       2.570  -1.704  -0.533  0.00  0.00    +0.049 A 
ATOM     12  C   UNL     1       2.010  -2.158   0.641  0.00  0.00    +0.127 A 
ATOM     13  C   UNL     1       2.722  -3.009   1.471  0.00  0.00    +0.036 A 
ATOM     14  C   UNL     1       3.998  -3.411   1.131  0.00  0.00    +0.048 A 
ATOM     15  C   UNL     1       4.574  -2.969  -0.051  0.00  0.00    +0.129 A 
BRANCH  12  16
ATOM     16  N   UNL     1       0.643  -1.734   1.018  0.00  0.00    +0.056 N 
ATOM     17  O   UNL     1      -0.013  -1.063   0.256  0.00  0.00    -0.126 OA
ATOM     18  O   UNL     1       0.183  -2.058   2.088  0.00  0.00    -0.126 OA
ENDBRANCH  12  16
BRANCH  15  19
ATOM     19  O   UNL     1       5.826  -3.368  -0.389  0.00  0.00    -0.506 OA
ATOM     20  H   UNL     1       6.526  -2.789  -0.058  0.00  0.00    +0.292 HD
ENDBRANCH  15  19
ENDBRANCH   2  10
BRANCH   1  21
ATOM     21  C   UNL     1       2.783   0.140  -2.226  0.00  0.00    +0.197 C 
BRANCH  21  22
ATOM     22  C   UNL     1       2.526   1.410  -2.995  0.00  0.00    -0.018 A 
ATOM     23  C   UNL     1       3.373   2.492  -2.846  0.00  0.00    +0.008 A 
ATOM     24  C   UNL     1       3.137   3.657  -3.552  0.00  0.00    +0.033 A 
ATOM     25  C   UNL     1       2.054   3.740  -4.406  0.00  0.00    +0.126 A 
ATOM     26  C   UNL     1       1.207   2.658  -4.556  0.00  0.00    +0.033 A 
ATOM     27  C   UNL     1       1.446   1.492  -3.854  0.00  0.00    +0.008 A 
BRANCH  25  28
ATOM     28  N   UNL     1       1.801   4.988  -5.161  0.00  0.00    +0.056 N 
ATOM     29  O   UNL     1       2.542   5.935  -5.030  0.00  0.00    -0.126 OA
ATOM     30  O   UNL     1       0.854   5.061  -5.909  0.00  0.00    -0.126 OA
ENDBRANCH  25  28
ENDBRANCH  21  22
BRANCH  21  32
ATOM     31  N   UNL     1       1.954   1.060  -0.084  0.00  0.00    -0.309 N 
ATOM     32  C   UNL     1       2.954   0.464  -0.764  0.00  0.00    +0.239 C 
ATOM     33  O   UNL     1       3.991   0.189  -0.199  0.00  0.00    -0.273 OA
ATOM     34  H   UNL     1       1.124   1.280  -0.536  0.00  0.00    +0.149 HD
BRANCH  31  36
ATOM     35  C   UNL     1       3.305   2.326   1.513  0.00  0.00    +0.031 C 
ATOM     36  C   UNL     1       2.120   1.375   1.337  0.00  0.00    +0.026 C 
ATOM     37  C   UNL     1       2.381   0.085   2.118  0.00  0.00    +0.031 C 
ATOM     38  C   UNL     1       0.848   2.041   1.864  0.00  0.00    +0.031 C 
ENDBRANCH  31  36
ENDBRANCH  21  32
ENDBRANCH   1  21
TORSDOF 9
