REMARK  Name = ZINC58421137
REMARK  6 active torsions:
REMARK  status: ('A' for Active; 'I' for Inactive)
REMARK    1  A    between atoms: C_1  and  C_2
REMARK    2  A    between atoms: C_6  and  C_26
REMARK    3  A    between atoms: C_10  and  C_12
REMARK    4  A    between atoms: C_12  and  O_13
REMARK    5  A    between atoms: O_13  and  C_14
REMARK    6  A    between atoms: C_17  and  C_20
REMARK                            x       y       z     vdW  Elec       q    Type
REMARK                         _______ _______ _______ _____ _____    ______ ____
ROOT
ATOM      1  C   UNL     1       0.008   1.528  -0.006  0.00  0.00    +0.028 C 
ATOM      2  C   UNL     1       0.015  -0.002  -0.007  0.00  0.00    +0.073 C 
ATOM      3  C   UNL     1       0.633  -0.512  -1.313  0.00  0.00    +0.023 C 
ATOM      4  C   UNL     1       0.765  -2.035  -1.250  0.00  0.00    +0.016 C 
ATOM      5  C   UNL     1       1.692  -2.421  -0.095  0.00  0.00    +0.092 C 
ATOM      6  C   UNL     1       1.087  -1.933   1.225  0.00  0.00    +0.121 C 
ATOM      7  N   UNL     1       0.819  -0.492   1.122  0.00  0.00    -0.295 N 
ATOM      8  C   UNL     1       1.304   0.365   2.042  0.00  0.00    +0.253 C 
ATOM      9  O   UNL     1       0.994   1.537   2.003  0.00  0.00    -0.272 OA
ENDROOT
BRANCH   5  10
ATOM     10  C   UNL     1       3.041  -1.781  -0.298  0.00  0.00    +0.215 C 
ATOM     11  O   UNL     1       3.242  -1.084  -1.270  0.00  0.00    -0.276 OA
ATOM     12  N   UNL     1       4.024  -1.982   0.602  0.00  0.00    -0.329 N 
ATOM     13  H   UNL     1       3.864  -2.539   1.379  0.00  0.00    +0.145 HD
ATOM     14  H   UNL     1       4.893  -1.570   0.471  0.00  0.00    +0.145 HD
ENDBRANCH   5  10
BRANCH   8  15
ATOM     15  C   UNL     1       2.232  -0.133   3.120  0.00  0.00    +0.324 C 
BRANCH  15  16
ATOM     16  O   UNL     1       2.606   0.956   3.967  0.00  0.00    -0.483 OA
BRANCH  16  17
ATOM     17  C   UNL     1       3.447   0.675   4.997  0.00  0.00    +0.121 A 
ATOM     18  C   UNL     1       3.907  -0.620   5.186  0.00  0.00    +0.046 A 
ATOM     19  C   UNL     1       4.761  -0.903   6.234  0.00  0.00    +0.009 A 
ATOM     20  C   UNL     1       5.158   0.104   7.094  0.00  0.00    -0.024 A 
ATOM     21  C   UNL     1       4.701   1.396   6.909  0.00  0.00    +0.009 A 
ATOM     22  C   UNL     1       3.851   1.685   5.859  0.00  0.00    +0.046 A 
BRANCH  20  23
ATOM     23  C   UNL     1       6.090  -0.207   8.237  0.00  0.00    +0.133 C 
ATOM     24  S   UNL     1       5.288   0.220   9.810  0.00  0.00    -0.142 S 
ATOM     25  C   UNL     1       6.576  -0.094  11.048  0.00  0.00    +0.071 C 
ATOM     26  C   UNL     1       7.771   0.820  10.802  0.00  0.00    +0.021 C 
ATOM     27  C   UNL     1       8.548   0.377   9.568  0.00  0.00    +0.071 C 
ATOM     28  S   UNL     1       7.609   0.775   8.067  0.00  0.00    -0.142 S 
ENDBRANCH  20  23
ENDBRANCH  16  17
ENDBRANCH  15  16
ENDBRANCH   8  15
TORSDOF 5
