REMARK  Name = ZINC43594447
REMARK  2 active torsions:
REMARK  status: ('A' for Active; 'I' for Inactive)
REMARK    1  A    between atoms: C_10  and  C_12
REMARK    2  A    between atoms: C_14  and  C_17
REMARK                            x       y       z     vdW  Elec       q    Type
REMARK                         _______ _______ _______ _____ _____    ______ ____
ROOT
ATOM      1  C   UNL     1      -0.017   1.376   0.010  0.00  0.00    +0.000 A 
ATOM      2  C   UNL     1       1.173   2.080   0.002  0.00  0.00    +0.000 A 
ATOM      3  C   UNL     1       2.374   1.400  -0.015  0.00  0.00    +0.006 A 
ATOM      4  C   UNL     1       2.395   0.013  -0.024  0.00  0.00    -0.018 A 
ATOM      5  C   UNL     1       1.208  -0.688  -0.012  0.00  0.00    -0.041 A 
ATOM      6  C   UNL     1       0.002  -0.004   0.002  0.00  0.00    +0.004 A 
ATOM      7  C   UNL     1       1.180  -2.195  -0.009  0.00  0.00    +0.050 C 
ATOM      8  C   UNL     1       2.541  -2.744  -0.440  0.00  0.00    +0.086 C 
ATOM      9  N   UNL     1       3.585  -2.085   0.361  0.00  0.00    -0.302 NA
ATOM     10  C   UNL     1       3.730  -0.684  -0.048  0.00  0.00    +0.174 C 
ATOM     11  H   UNL     1       3.382  -2.155   1.347  0.00  0.00    +0.123 HD
ENDROOT
BRANCH  10  12
ATOM     12  C   UNL     1       4.674   0.015   0.896  0.00  0.00    +0.249 A 
ATOM     13  N   UNL     1       5.652   0.806   0.552  0.00  0.00    -0.194 NA
ATOM     14  C   UNL     1       6.286   1.253   1.642  0.00  0.00    +0.175 A 
ATOM     15  N   UNL     1       5.716   0.748   2.698  0.00  0.00    -0.061 NA
ATOM     16  O   UNL     1       4.649  -0.065   2.232  0.00  0.00    -0.336 OA
BRANCH  14  17
ATOM     17  C   UNL     1       7.468   2.187   1.646  0.00  0.00    +0.060 C 
ATOM     18  C   UNL     1       8.659   1.501   2.319  0.00  0.00    +0.011 C 
ATOM     19  C   UNL     1       9.859   2.450   2.323  0.00  0.00    +0.001 C 
ATOM     20  C   UNL     1       9.501   3.721   3.095  0.00  0.00    +0.000 C 
ATOM     21  C   UNL     1       8.310   4.408   2.422  0.00  0.00    +0.001 C 
ATOM     22  C   UNL     1       7.110   3.459   2.418  0.00  0.00    +0.011 C 
ENDBRANCH  14  17
ENDBRANCH  10  12
TORSDOF 2
