REMARK  Name = ZINC11658507
REMARK  8 active torsions:
REMARK  status: ('A' for Active; 'I' for Inactive)
REMARK    1  A    between atoms: C_1  and  O_2
REMARK    2  A    between atoms: O_2  and  C_3
REMARK    3  A    between atoms: C_6  and  C_9
REMARK    4  A    between atoms: C_9  and  C_11
REMARK    5  A    between atoms: C_9  and  N_60
REMARK    6  A    between atoms: C_11  and  N_12
REMARK    7  A    between atoms: C_13  and  C_15
REMARK    8  A    between atoms: C_15  and  C_16
REMARK                            x       y       z     vdW  Elec       q    Type
REMARK                         _______ _______ _______ _____ _____    ______ ____
ROOT
ATOM      1  N   UNL     1      -0.738   2.009   1.164  0.00  0.00    -0.316 N 
ATOM      2  C   UNL     1      -2.071   1.865   1.298  0.00  0.00    +0.215 C 
ATOM      3  O   UNL     1      -2.724   1.394   0.391  0.00  0.00    -0.276 OA
ATOM      4  H   UNL     1      -0.215   2.386   1.889  0.00  0.00    +0.149 HD
ENDROOT
BRANCH   1   5
ATOM      5  C   UNL     1      -0.077   1.596  -0.077  0.00  0.00    +0.093 C 
BRANCH   5   6
ATOM      6  C   UNL     1       1.399   1.993  -0.026  0.00  0.00    -0.020 C 
BRANCH   6  12
ATOM      7  C   UNL     1       1.935   0.060  -1.381  0.00  0.00    -0.078 C 
ATOM      8  C   UNL     1       2.525  -0.381  -2.722  0.00  0.00    -0.019 C 
ATOM      9  C   UNL     1       4.004   0.014  -2.779  0.00  0.00    -0.004 C 
ATOM     10  C   UNL     1       4.128   1.527  -2.579  0.00  0.00    -0.019 C 
ATOM     11  C   UNL     1       3.491   1.913  -1.242  0.00  0.00    -0.078 C 
ATOM     12  N   UNL     1       2.064   1.528  -1.261  0.00  0.00    +0.385 N 
ATOM     13  H   UNL     1       1.610   1.970  -2.070  0.00  0.00    -0.081 HD
ENDBRANCH   6  12
BRANCH   6  17
ATOM     14  C   UNL     1       1.723   6.248   0.202  0.00  0.00    +0.120 A 
ATOM     15  C   UNL     1       1.853   5.479   1.350  0.00  0.00    +0.046 A 
ATOM     16  C   UNL     1       1.748   4.104   1.273  0.00  0.00    +0.005 A 
ATOM     17  C   UNL     1       1.513   3.494   0.055  0.00  0.00    -0.059 A 
ATOM     18  C   UNL     1       1.388   4.258  -1.091  0.00  0.00    +0.005 A 
ATOM     19  C   UNL     1       1.487   5.634  -1.019  0.00  0.00    +0.046 A 
BRANCH  14  21
ATOM     20  C   UNL     1       1.680   8.330  -0.946  0.00  0.00    +0.277 C 
ATOM     21  O   UNL     1       1.825   7.602   0.275  0.00  0.00    -0.495 OA
ENDBRANCH  14  21
ENDBRANCH   6  17
ENDBRANCH   5   6
ENDBRANCH   1   5
BRANCH   2  22
ATOM     22  C   UNL     1      -2.751   2.290   2.574  0.00  0.00    +0.119 C 
BRANCH  22  23
ATOM     23  C   UNL     1      -4.253   2.021   2.466  0.00  0.00    +0.146 C 
ATOM     24  C   UNL     1      -4.953   2.556   3.688  0.00  0.00    +0.231 C 
ATOM     25  O   UNL     1      -5.487   3.643   3.619  0.00  0.00    -0.274 OA
ATOM     26  N   UNL     1      -5.013   1.894   4.839  0.00  0.00    -0.284 N 
ATOM     27  C   UNL     1      -4.561   0.601   5.080  0.00  0.00    +0.048 A 
ATOM     28  C   UNL     1      -4.397   0.169   6.393  0.00  0.00    +0.044 A 
ATOM     29  C   UNL     1      -3.944  -1.109   6.655  0.00  0.00    +0.043 A 
ATOM     30  C   UNL     1      -3.657  -1.978   5.617  0.00  0.00    +0.021 A 
ATOM     31  C   UNL     1      -3.833  -1.568   4.308  0.00  0.00    +0.018 A 
ATOM     32  C   UNL     1      -4.291  -0.289   4.040  0.00  0.00    +0.030 A 
ATOM     33  S   UNL     1      -4.549   0.229   2.372  0.00  0.00    -0.110 S 
ATOM     34 CL   UNL     1      -3.733  -1.629   8.298  0.00  0.00    -0.083 Cl
ATOM     35  H   UNL     1      -5.413   2.362   5.589  0.00  0.00    +0.155 HD
ENDBRANCH  22  23
ENDBRANCH   2  22
TORSDOF 7
