REMARK  Name = ZINC36187804
REMARK  3 active torsions:
REMARK  status: ('A' for Active; 'I' for Inactive)
REMARK    1  A    between atoms: C_12  and  C_15
REMARK    2  A    between atoms: C_15  and  O_17
REMARK    3  A    between atoms: O_17  and  C_18
REMARK                            x       y       z     vdW  Elec       q    Type
REMARK                         _______ _______ _______ _____ _____    ______ ____
ROOT
ATOM      1  C   UNL     1      -0.016   1.355   0.009  0.00  0.00    +0.001 A 
ATOM      2  C   UNL     1       1.157   2.098   0.002  0.00  0.00    +0.001 A 
ATOM      3  C   UNL     1       2.374   1.446  -0.013  0.00  0.00    +0.015 A 
ATOM      4  C   UNL     1       2.405   0.067  -0.021  0.00  0.00    +0.020 A 
ATOM      5  C   UNL     1       1.229  -0.710  -0.013  0.00  0.00    -0.007 A 
ATOM      6  C   UNL     1       0.002  -0.004   0.002  0.00  0.00    +0.009 A 
ATOM      7  C   UNL     1       1.432  -2.161  -0.022  0.00  0.00    -0.026 A 
ATOM      8  C   UNL     1       2.707  -2.605  -0.037  0.00  0.00    +0.008 A 
ATOM      9  S   UNL     1       3.705  -1.142  -0.041  0.00  0.00    -0.092 S 
ATOM     10  C   UNL     1       3.154  -4.034  -0.045  0.00  0.00    +0.124 C 
ATOM     11  N   UNL     1       2.003  -4.880   0.321  0.00  0.00    -0.299 NA
ATOM     12  C   UNL     1       0.820  -4.518  -0.472  0.00  0.00    +0.168 C 
ATOM     13  C   UNL     1       0.278  -3.160  -0.018  0.00  0.00    +0.066 C 
ATOM     14  H   UNL     1       2.225  -5.859   0.214  0.00  0.00    +0.123 HD
ENDROOT
BRANCH  12  15
ATOM     15  C   UNL     1      -0.246  -5.566  -0.287  0.00  0.00    +0.325 C 
ATOM     16  O   UNL     1      -0.211  -6.302   0.672  0.00  0.00    -0.249 OA
BRANCH  15  17
ATOM     17  O   UNL     1      -1.236  -5.684  -1.186  0.00  0.00    -0.460 OA
BRANCH  17  18
ATOM     18  C   UNL     1      -2.213  -6.699  -0.947  0.00  0.00    +0.176 C 
ATOM     19  C   UNL     1      -1.716  -8.024  -1.561  0.00  0.00    +0.044 C 
ATOM     20  C   UNL     1      -2.445  -9.161  -0.898  0.00  0.00    +0.004 C 
ATOM     21  C   UNL     1      -3.696  -9.597  -1.684  0.00  0.00    +0.000 C 
ATOM     22  C   UNL     1      -4.504  -8.405  -2.231  0.00  0.00    +0.000 C 
ATOM     23  C   UNL     1      -4.618  -7.281  -1.237  0.00  0.00    +0.004 C 
ATOM     24  C   UNL     1      -3.485  -6.270  -1.508  0.00  0.00    +0.044 C 
ENDBRANCH  17  18
ENDBRANCH  15  17
ENDBRANCH  12  15
TORSDOF 3
