REMARK  Name = ZINC36385998
REMARK  4 active torsions:
REMARK  status: ('A' for Active; 'I' for Inactive)
REMARK    1  A    between atoms: C_1  and  C_2
REMARK    2  A    between atoms: N_11  and  C_15
REMARK    3  A    between atoms: C_15  and  N_16
REMARK    4  A    between atoms: C_20  and  C_23
REMARK                            x       y       z     vdW  Elec       q    Type
REMARK                         _______ _______ _______ _____ _____    ______ ____
ROOT
ATOM      1  C   UNL     1       3.436   1.482   2.825  0.00  0.00    +0.205 C 
ENDROOT
BRANCH   1  11
ATOM      2  C   UNL     1      -0.019   1.526   0.010  0.00  0.00    +0.010 C 
ATOM      3  C   UNL     1       0.002  -0.004   0.002  0.00  0.00    +0.018 C 
ATOM      4  C   UNL     1      -1.434  -0.534   0.012  0.00  0.00    +0.006 C 
ATOM      5  C   UNL     1      -1.412  -2.064   0.024  0.00  0.00    +0.000 C 
ATOM      6  C   UNL     1      -0.687  -2.556   1.279  0.00  0.00    +0.003 C 
ATOM      7  C   UNL     1       0.752  -2.033   1.273  0.00  0.00    +0.035 C 
ATOM      8  C   UNL     1       0.740  -0.509   1.237  0.00  0.00    +0.115 C 
ATOM      9  C   UNL     1       2.151   0.030   1.266  0.00  0.00    +0.248 C 
ATOM     10  O   UNL     1       3.026  -0.158   0.448  0.00  0.00    -0.273 OA
ATOM     11  N   UNL     1       2.233   0.767   2.394  0.00  0.00    -0.211 N 
ATOM     12  C   UNL     1       1.077   0.763   3.069  0.00  0.00    +0.310 C 
ATOM     13  O   UNL     1       0.904   1.356   4.116  0.00  0.00    -0.252 OA
ATOM     14  N   UNL     1       0.127   0.030   2.458  0.00  0.00    -0.285 N 
ATOM     15  H   UNL     1      -0.782  -0.114   2.764  0.00  0.00    +0.151 HD
ENDBRANCH   1  11
BRANCH   1  16
ATOM     16  N   UNL     1       3.425   2.841   2.268  0.00  0.00    -0.286 NA
ATOM     17  C   UNL     1       3.887   2.841   0.874  0.00  0.00    +0.086 C 
ATOM     18  C   UNL     1       3.725   4.243   0.282  0.00  0.00    +0.016 C 
ATOM     19  C   UNL     1       4.542   5.239   1.110  0.00  0.00    +0.013 C 
ATOM     20  C   UNL     1       4.075   5.184   2.567  0.00  0.00    +0.059 C 
ATOM     21  C   UNL     1       4.226   3.754   3.092  0.00  0.00    +0.096 C 
BRANCH  20  22
ATOM     22  C   UNL     1       4.913   6.118   3.400  0.00  0.00    +0.084 A 
ATOM     23  N   UNL     1       6.202   6.090   3.578  0.00  0.00    -0.244 NA
ATOM     24  C   UNL     1       6.840   6.990   4.354  0.00  0.00    +0.078 A 
ATOM     25  C   UNL     1       8.212   7.111   4.658  0.00  0.00    +0.029 A 
ATOM     26  C   UNL     1       8.655   8.106   5.475  0.00  0.00    +0.002 A 
ATOM     27  C   UNL     1       7.783   9.030   6.034  0.00  0.00    +0.001 A 
ATOM     28  C   UNL     1       6.431   8.944   5.759  0.00  0.00    +0.017 A 
ATOM     29  C   UNL     1       5.974   7.943   4.936  0.00  0.00    +0.039 A 
ATOM     30  S   UNL     1       4.395   7.440   4.304  0.00  0.00    -0.072 S 
ENDBRANCH  20  22
ENDBRANCH   1  16
TORSDOF 3
