REMARK  Name = ZINC36586883
REMARK  15 active torsions:
REMARK  status: ('A' for Active; 'I' for Inactive)
REMARK    1  A    between atoms: C_1  and  C_2
REMARK    2  A    between atoms: C_2  and  C_3
REMARK    3  A    between atoms: C_3  and  C_4
REMARK    4  A    between atoms: C_4  and  N_5
REMARK    5  A    between atoms: C_6  and  C_8
REMARK    6  A    between atoms: C_8  and  C_10
REMARK    7  A    between atoms: C_8  and  N_17
REMARK    8  A    between atoms: C_13  and  O_16
REMARK    9  A    between atoms: N_17  and  C_28
REMARK   10  A    between atoms: C_18  and  C_20
REMARK   11  A    between atoms: C_24  and  O_27
REMARK   12  A    between atoms: C_25  and  O_26
REMARK   13  A    between atoms: C_28  and  C_29
REMARK   14  A    between atoms: C_28  and  C_30
REMARK   15  A    between atoms: C_28  and  C_31
REMARK                            x       y       z     vdW  Elec       q    Type
REMARK                         _______ _______ _______ _____ _____    ______ ____
ROOT
ATOM      1  C   UNL     1       1.410  -6.737  -1.954  0.00  0.00    +0.193 C 
ENDROOT
BRANCH   1   2
ATOM      2  C   UNL     1       2.078  -5.490  -1.434  0.00  0.00    -0.018 A 
ATOM      3  C   UNL     1       3.447  -5.341  -1.550  0.00  0.00    +0.009 A 
ATOM      4  C   UNL     1       4.062  -4.199  -1.073  0.00  0.00    +0.046 A 
ATOM      5  C   UNL     1       3.303  -3.202  -0.478  0.00  0.00    +0.117 A 
ATOM      6  C   UNL     1       1.929  -3.354  -0.363  0.00  0.00    +0.046 A 
ATOM      7  C   UNL     1       1.319  -4.495  -0.846  0.00  0.00    +0.009 A 
BRANCH   5   8
ATOM      8  O   UNL     1       3.905  -2.078  -0.008  0.00  0.00    -0.507 OA
ATOM      9  H   UNL     1       3.971  -1.365  -0.659  0.00  0.00    +0.292 HD
ENDBRANCH   5   8
ENDBRANCH   1   2
BRANCH   1  11
ATOM     10  N   UNL     1       0.365  -7.099   0.259  0.00  0.00    -0.313 N 
ATOM     11  C   UNL     1       1.023  -7.620  -0.796  0.00  0.00    +0.238 C 
ATOM     12  O   UNL     1       1.303  -8.800  -0.813  0.00  0.00    -0.273 OA
ATOM     13  H   UNL     1       0.141  -6.155   0.272  0.00  0.00    +0.149 HD
BRANCH  10  14
ATOM     14  C   UNL     1      -0.011  -7.958   1.385  0.00  0.00    +0.104 C 
BRANCH  14  15
ATOM     15  C   UNL     1      -0.741  -7.124   2.440  0.00  0.00    +0.018 C 
BRANCH  15  17
ATOM     16  C   UNL     1      -1.864  -7.187   4.671  0.00  0.00    +0.004 C 
ATOM     17  C   UNL     1      -1.134  -8.021   3.615  0.00  0.00    -0.002 C 
ENDBRANCH  15  17
ENDBRANCH  14  15
ENDBRANCH  10  14
ENDBRANCH   1  11
BRANCH   1  18
ATOM     18  N   UNL     1       2.337  -7.459  -2.829  0.00  0.00    -0.277 N 
ATOM     19  C   UNL     1       3.165  -8.389  -2.314  0.00  0.00    +0.252 C 
ATOM     20  O   UNL     1       3.612  -8.251  -1.192  0.00  0.00    -0.270 OA
BRANCH  19  21
ATOM     21  C   UNL     1       3.528  -9.576  -3.112  0.00  0.00    +0.082 A 
ATOM     22  C   UNL     1       3.335  -9.578  -4.496  0.00  0.00    +0.017 A 
ATOM     23  C   UNL     1       3.675 -10.688  -5.237  0.00  0.00    +0.005 A 
ATOM     24  C   UNL     1       4.209 -11.807  -4.618  0.00  0.00    +0.049 A 
ATOM     25  C   UNL     1       4.406 -11.820  -3.248  0.00  0.00    +0.159 A 
ATOM     26  C   UNL     1       4.072 -10.704  -2.486  0.00  0.00    +0.171 A 
BRANCH  26  27
ATOM     27  O   UNL     1       4.269 -10.711  -1.143  0.00  0.00    -0.503 OA
ATOM     28  H   UNL     1       3.514 -11.040  -0.637  0.00  0.00    +0.292 HD
ENDBRANCH  26  27
BRANCH  25  29
ATOM     29  O   UNL     1       4.930 -12.922  -2.647  0.00  0.00    -0.503 OA
ATOM     30  H   UNL     1       5.896 -12.915  -2.587  0.00  0.00    +0.292 HD
ENDBRANCH  25  29
ENDBRANCH  19  21
BRANCH  18  31
ATOM     31  C   UNL     1       2.365  -7.168  -4.265  0.00  0.00    +0.030 C 
ATOM     32  C   UNL     1       1.965  -5.710  -4.498  0.00  0.00    +0.031 C 
ATOM     33  C   UNL     1       3.777  -7.403  -4.806  0.00  0.00    +0.031 C 
ATOM     34  C   UNL     1       1.381  -8.089  -4.991  0.00  0.00    +0.031 C 
ENDBRANCH  18  31
ENDBRANCH   1  18
TORSDOF 11
