REMARK  Name = ZINC08892342
REMARK  11 active torsions:
REMARK  status: ('A' for Active; 'I' for Inactive)
REMARK    1  A    between atoms: C_1  and  C_2
REMARK    2  A    between atoms: C_2  and  O_3
REMARK    3  A    between atoms: O_3  and  C_4
REMARK    4  A    between atoms: C_6  and  C_11
REMARK    5  A    between atoms: C_9  and  O_10
REMARK    6  A    between atoms: C_16  and  C_21
REMARK    7  A    between atoms: C_28  and  C_35
REMARK    8  A    between atoms: C_29  and  C_30
REMARK    9  A    between atoms: C_30  and  O_32
REMARK   10  A    between atoms: O_32  and  C_33
REMARK   11  A    between atoms: C_33  and  C_34
REMARK                            x       y       z     vdW  Elec       q    Type
REMARK                         _______ _______ _______ _____ _____    ______ ____
ROOT
ATOM      1  C   UNL     1       2.489   1.043  -0.016  0.00  0.00    +0.092 C 
ATOM      2  C   UNL     1       2.568   0.200  -1.264  0.00  0.00    +0.024 C 
ATOM      3  C   UNL     1       2.362  -1.133  -1.209  0.00  0.00    +0.016 C 
ATOM      4  C   UNL     1       2.445  -1.984  -2.452  0.00  0.00    +0.059 C 
ATOM      5  C   UNL     1       2.019  -1.159  -3.669  0.00  0.00    +0.032 C 
ATOM      6  C   UNL     1       2.934   0.066  -3.769  0.00  0.00    +0.088 C 
ATOM      7  C   UNL     1       2.858   0.840  -2.481  0.00  0.00    +0.162 C 
ATOM      8  O   UNL     1       3.051   2.039  -2.493  0.00  0.00    -0.292 OA
ATOM      9  N   UNL     1       2.077  -1.744  -0.017  0.00  0.00    -0.321 N 
ATOM     10  C   UNL     1       2.382  -1.135   1.168  0.00  0.00    +0.016 C 
ATOM     11  C   UNL     1       2.591   0.191   1.216  0.00  0.00    +0.065 C 
ATOM     12  C   UNL     1       2.483  -1.955   2.428  0.00  0.00    +0.061 C 
ATOM     13  H   UNL     1       1.598  -2.735  -0.007  0.00  0.00    +0.152 HD
ENDROOT
BRANCH   1  16
ATOM     14  C   UNL     1      -0.044   3.845   0.023  0.00  0.00    +0.162 A 
ATOM     15  C   UNL     1       1.163   3.164   0.008  0.00  0.00    +0.054 A 
ATOM     16  C   UNL     1       1.176   1.782   0.000  0.00  0.00    -0.032 A 
ATOM     17  C   UNL     1      -0.013   1.076   0.008  0.00  0.00    +0.008 A 
ATOM     18  C   UNL     1      -1.220   1.749   0.017  0.00  0.00    +0.049 A 
ATOM     19  C   UNL     1      -1.240   3.135   0.030  0.00  0.00    +0.158 A 
BRANCH  19  20
ATOM     20  O   UNL     1      -2.427   3.799   0.044  0.00  0.00    -0.503 OA
ATOM     21  H   UNL     1      -3.372   3.236   0.050  0.00  0.00    +0.292 HD
ENDBRANCH  19  20
BRANCH  14  22
ATOM     22  O   UNL     1      -0.059   5.205   0.030  0.00  0.00    -0.489 OA
BRANCH  22  24
ATOM     23  C   UNL     1       0.990   7.382   0.031  0.00  0.00    +0.048 C 
ATOM     24  C   UNL     1       1.207   5.868   0.021  0.00  0.00    +0.226 C 
ENDBRANCH  22  24
ENDBRANCH  14  22
ENDBRANCH   1  16
BRANCH   5  25
ATOM     25  C   UNL     1       2.151  -1.993  -4.917  0.00  0.00    -0.044 A 
ATOM     26  C   UNL     1       3.384  -2.501  -5.282  0.00  0.00    +0.004 A 
ATOM     27  C   UNL     1       3.505  -3.269  -6.425  0.00  0.00    +0.000 A 
ATOM     28  C   UNL     1       2.394  -3.522  -7.208  0.00  0.00    +0.000 A 
ATOM     29  C   UNL     1       1.162  -3.010  -6.846  0.00  0.00    +0.000 A 
ATOM     30  C   UNL     1       1.041  -2.246  -5.700  0.00  0.00    +0.004 A 
ENDBRANCH   5  25
BRANCH  11  31
ATOM     31  C   UNL     1       2.913   0.797   2.453  0.00  0.00    +0.338 C 
ATOM     32  O   UNL     1       2.998   0.117   3.459  0.00  0.00    -0.245 OA
BRANCH  31  33
ATOM     33  O   UNL     1       3.126   2.128   2.518  0.00  0.00    -0.462 OA
BRANCH  33  34
ATOM     34  C   UNL     1       3.447   2.672   3.800  0.00  0.00    +0.229 C 
ATOM     35  C   UNL     1       3.651   4.183   3.676  0.00  0.00    +0.048 C 
ENDBRANCH  33  34
ENDBRANCH  31  33
ENDBRANCH  11  31
TORSDOF 8
