REMARK  Name = ZINC03441520
REMARK  11 active torsions:
REMARK  status: ('A' for Active; 'I' for Inactive)
REMARK    1  A    between atoms: C_1  and  C_2
REMARK    2  A    between atoms: C_2  and  C_3
REMARK    3  A    between atoms: C_3  and  C_5
REMARK    4  A    between atoms: C_3  and  N_46
REMARK    5  A    between atoms: C_12  and  C_13
REMARK    6  A    between atoms: C_12  and  N_46
REMARK    7  A    between atoms: C_13  and  C_15
REMARK    8  A    between atoms: C_13  and  O_25
REMARK    9  A    between atoms: C_15  and  O_16
REMARK   10  A    between atoms: O_16  and  C_17
REMARK   11  A    between atoms: C_17  and  C_18
REMARK                            x       y       z     vdW  Elec       q    Type
REMARK                         _______ _______ _______ _____ _____    ______ ____
ROOT
ATOM      1  C   UNL     1      -1.537   5.540   2.562  0.00  0.00    -0.048 C 
ENDROOT
BRANCH   1   2
ATOM      2  N   UNL     1      -1.938   5.774   3.962  0.00  0.00    +0.385 N 
ATOM      3  H   UNL     1      -2.877   5.385   4.114  0.00  0.00    -0.085 HD
ATOM      4  H   UNL     1      -1.270   5.309   4.588  0.00  0.00    -0.085 HD
BRANCH   2   5
ATOM      5  C   UNL     1      -1.957   7.219   4.255  0.00  0.00    -0.041 C 
BRANCH   5   6
ATOM      6  C   UNL     1      -0.587   7.658   4.704  0.00  0.00    -0.061 A 
ATOM      7  C   UNL     1       0.158   6.849   5.543  0.00  0.00    +0.003 A 
ATOM      8  C   UNL     1       1.416   7.249   5.951  0.00  0.00    +0.015 A 
ATOM      9  C   UNL     1       1.926   8.464   5.530  0.00  0.00    +0.018 A 
ATOM     10  C   UNL     1       1.179   9.275   4.695  0.00  0.00    +0.015 A 
ATOM     11  C   UNL     1      -0.077   8.872   4.283  0.00  0.00    +0.003 A 
ATOM     12 BR   UNL     1       3.645   9.014   6.094  0.00  0.00    -0.050 Br
ENDBRANCH   5   6
BRANCH   5  14
ATOM     13  C   UNL     1      -4.380   7.178   4.862  0.00  0.00    +0.002 C 
ATOM     14  C   UNL     1      -2.971   7.494   5.367  0.00  0.00    -0.015 C 
ENDBRANCH   5  14
ENDBRANCH   2   5
ENDBRANCH   1   2
BRANCH   1  15
ATOM     15  C   UNL     1      -1.446   4.033   2.311  0.00  0.00    +0.123 C 
BRANCH  15  16
ATOM     16  O   UNL     1      -2.744   3.450   2.439  0.00  0.00    -0.391 OA
ATOM     17  H   UNL     1      -3.397   3.803   1.819  0.00  0.00    +0.210 HD
ENDBRANCH  15  16
BRANCH  15  18
ATOM     18  C   UNL     1      -0.910   3.782   0.900  0.00  0.00    +0.189 C 
BRANCH  18  19
ATOM     19  O   UNL     1      -0.715   2.380   0.707  0.00  0.00    -0.373 OA
BRANCH  19  20
ATOM     20  C   UNL     1      -0.214   2.035  -0.586  0.00  0.00    +0.196 C 
BRANCH  20  21
ATOM     21  C   UNL     1      -0.048   0.540  -0.678  0.00  0.00    -0.004 A 
ATOM     22  C   UNL     1      -0.364  -0.259   0.404  0.00  0.00    +0.007 A 
ATOM     23  C   UNL     1      -0.215  -1.630   0.318  0.00  0.00    +0.000 A 
ATOM     24  C   UNL     1       0.259  -2.203  -0.847  0.00  0.00    +0.001 A 
ATOM     25  C   UNL     1       0.581  -1.405  -1.929  0.00  0.00    +0.020 A 
ATOM     26  C   UNL     1       0.427  -0.032  -1.845  0.00  0.00    +0.046 A 
ATOM     27 CL   UNL     1       0.832   0.972  -3.203  0.00  0.00    -0.083 Cl
ENDBRANCH  20  21
ENDBRANCH  19  20
ENDBRANCH  18  19
ENDBRANCH  15  18
ENDBRANCH   1  15
TORSDOF 10
