REMARK  Name = ZINC07402748
REMARK  4 active torsions:
REMARK  status: ('A' for Active; 'I' for Inactive)
REMARK    1  A    between atoms: C_1  and  C_2
REMARK    2  A    between atoms: C_7  and  N_8
REMARK    3  A    between atoms: N_8  and  S_9
REMARK    4  A    between atoms: S_9  and  C_12
REMARK                            x       y       z     vdW  Elec       q    Type
REMARK                         _______ _______ _______ _____ _____    ______ ____
ROOT
ATOM      1  S   UNL     1      -2.501  -0.453   0.729  0.00  0.00    +0.072 S 
ATOM      2  O   UNL     1      -3.810  -0.951   0.489  0.00  0.00    -0.150 OA
ATOM      3  O   UNL     1      -1.333  -1.154   0.323  0.00  0.00    -0.150 OA
ENDROOT
BRANCH   1   4
ATOM      4  C   UNL     1      -2.365  -0.211   2.469  0.00  0.00    +0.112 A 
ATOM      5  C   UNL     1      -1.121  -0.220   3.070  0.00  0.00    +0.032 A 
ATOM      6  C   UNL     1      -1.006  -0.026   4.435  0.00  0.00    +0.051 A 
ATOM      7  C   UNL     1      -2.144   0.167   5.199  0.00  0.00    +0.162 A 
ATOM      8  C   UNL     1      -3.394   0.171   4.596  0.00  0.00    +0.164 A 
ATOM      9  C   UNL     1      -3.505  -0.019   3.229  0.00  0.00    +0.078 A 
ATOM     10  O   UNL     1      -4.510   0.363   5.358  0.00  0.00    -0.488 OA
ATOM     11  C   UNL     1      -4.835  -0.692   6.266  0.00  0.00    +0.232 C 
ATOM     12  C   UNL     1      -4.058  -0.543   7.565  0.00  0.00    +0.082 C 
ATOM     13  C   UNL     1      -2.559  -0.698   7.364  0.00  0.00    +0.232 C 
ATOM     14  O   UNL     1      -2.045   0.356   6.547  0.00  0.00    -0.488 OA
ENDBRANCH   1   4
BRANCH   1  15
ATOM     15  N   UNL     1      -2.426   1.042   0.019  0.00  0.00    -0.216 N 
ATOM     16  H   UNL     1      -3.171   1.363  -0.513  0.00  0.00    +0.174 HD
BRANCH  15  23
ATOM     17  C   UNL     1      -2.782   3.856   0.230  0.00  0.00    +0.046 C 
ATOM     18  C   UNL     1      -1.419   3.217   0.295  0.00  0.00    -0.027 A 
ATOM     19  C   UNL     1      -0.294   4.003   0.455  0.00  0.00    +0.025 A 
ATOM     20  C   UNL     1       0.958   3.418   0.514  0.00  0.00    +0.041 A 
ATOM     21  C   UNL     1       1.088   2.044   0.413  0.00  0.00    +0.022 A 
ATOM     22  C   UNL     1      -0.033   1.253   0.253  0.00  0.00    +0.026 A 
ATOM     23  C   UNL     1      -1.291   1.839   0.187  0.00  0.00    +0.051 A 
ATOM     24 CL   UNL     1       2.369   4.409   0.715  0.00  0.00    -0.084 Cl
ENDBRANCH  15  23
ENDBRANCH   1  15
TORSDOF 3
