REMARK  Name = ZINC20423510
REMARK  5 active torsions:
REMARK  status: ('A' for Active; 'I' for Inactive)
REMARK    1  A    between atoms: C_1  and  N_2
REMARK    2  A    between atoms: C_10  and  S_11
REMARK    3  A    between atoms: S_11  and  C_12
REMARK    4  A    between atoms: C_12  and  C_13
REMARK    5  A    between atoms: C_13  and  C_15
REMARK                            x       y       z     vdW  Elec       q    Type
REMARK                         _______ _______ _______ _____ _____    ______ ____
ROOT
ATOM      1  C   UNL     1       3.876   5.378  -0.006  0.00  0.00    +0.173 C 
ATOM      2  O   UNL     1       3.455   6.515   0.004  0.00  0.00    -0.291 OA
ENDROOT
BRANCH   1   3
ATOM      3  C   UNL     1       2.935   4.244  -0.004  0.00  0.00    +0.019 A 
ATOM      4  C   UNL     1       3.421   2.934  -0.016  0.00  0.00    +0.012 A 
ATOM      5  C   UNL     1       2.543   1.864  -0.013  0.00  0.00    +0.014 A 
ATOM      6  C   UNL     1       1.176   2.091   0.002  0.00  0.00    +0.049 A 
ATOM      7  C   UNL     1       0.678   3.410   0.014  0.00  0.00    +0.050 A 
ATOM      8  C   UNL     1       1.555   4.481   0.012  0.00  0.00    +0.025 A 
ATOM      9  C   UNL     1      -0.795   3.287   0.027  0.00  0.00    +0.251 C 
ATOM     10  O   UNL     1      -1.584   4.210   0.040  0.00  0.00    -0.270 OA
ATOM     11  N   UNL     1      -1.117   1.980   0.018  0.00  0.00    -0.248 N 
ATOM     12  C   UNL     1      -0.014   1.210   0.009  0.00  0.00    +0.251 C 
ATOM     13  O   UNL     1       0.002  -0.004   0.002  0.00  0.00    -0.270 OA
ATOM     14  H   UNL     1      -2.173   1.674   0.018  0.00  0.00    +0.158 HD
ENDBRANCH   1   3
BRANCH   1  15
ATOM     15  C   UNL     1       5.361   5.125  -0.022  0.00  0.00    +0.157 C 
BRANCH  15  16
ATOM     16  S   UNL     1       6.243   6.705  -0.022  0.00  0.00    -0.080 S 
BRANCH  16  26
ATOM     17  C   UNL     1       9.032   8.391  -0.041  0.00  0.00    +0.151 C 
ATOM     18  N   UNL     1       9.016   6.926  -0.048  0.00  0.00    -0.322 N 
ATOM     19  C   UNL     1      10.122   6.092  -0.063  0.00  0.00    +0.069 A 
ATOM     20  C   UNL     1      11.491   6.312  -0.075  0.00  0.00    +0.028 A 
ATOM     21  C   UNL     1      12.359   5.239  -0.090  0.00  0.00    +0.002 A 
ATOM     22  C   UNL     1      11.871   3.941  -0.092  0.00  0.00    +0.002 A 
ATOM     23  C   UNL     1      10.515   3.704  -0.080  0.00  0.00    +0.030 A 
ATOM     24  C   UNL     1       9.623   4.780  -0.065  0.00  0.00    +0.090 A 
ATOM     25  N   UNL     1       8.267   4.867  -0.047  0.00  0.00    -0.222 NA
ATOM     26  C   UNL     1       7.907   6.127  -0.042  0.00  0.00    +0.170 A 
ENDBRANCH  16  26
ENDBRANCH  15  16
ENDBRANCH   1  15
TORSDOF 4
