REMARK  Name = ZINC63804557
REMARK  8 active torsions:
REMARK  status: ('A' for Active; 'I' for Inactive)
REMARK    1  A    between atoms: C_1  and  C_2
REMARK    2  A    between atoms: C_4  and  C_17
REMARK    3  A    between atoms: C_7  and  O_12
REMARK    4  A    between atoms: O_12  and  C_13
REMARK    5  A    between atoms: C_17  and  C_18
REMARK    6  A    between atoms: C_18  and  N_19
REMARK    7  A    between atoms: N_19  and  S_20
REMARK    8  A    between atoms: S_20  and  C_23
REMARK                            x       y       z     vdW  Elec       q    Type
REMARK                         _______ _______ _______ _____ _____    ______ ____
ROOT
ATOM      1  C   UNL     1      -2.494  -0.315  -0.984  0.00  0.00    +0.050 C 
ENDROOT
BRANCH   1   4
ATOM      2  C   UNL     1      -0.019   1.526   0.010  0.00  0.00    +0.035 C 
ATOM      3  C   UNL     1       0.002  -0.004   0.002  0.00  0.00    +0.103 C 
ATOM      4  C   UNL     1      -1.410  -0.545   0.038  0.00  0.00    -0.037 C 
ATOM      5  C   UNL     1      -1.503  -1.275   1.172  0.00  0.00    +0.003 A 
ATOM      6  C   UNL     1      -2.598  -2.045   1.773  0.00  0.00    +0.056 A 
ATOM      7  C   UNL     1      -2.393  -2.691   2.946  0.00  0.00    +0.131 A 
ATOM      8  C   UNL     1      -1.160  -2.651   3.620  0.00  0.00    +0.048 A 
ATOM      9  C   UNL     1      -0.095  -1.970   3.147  0.00  0.00    +0.029 A 
ATOM     10  C   UNL     1      -0.204  -1.234   1.883  0.00  0.00    +0.043 A 
ATOM     11  N   UNL     1       0.658  -0.508   1.214  0.00  0.00    -0.378 N 
ATOM     12  H   UNL     1       1.576  -0.332   1.476  0.00  0.00    +0.160 HD
BRANCH   7  13
ATOM     13  O   UNL     1      -3.416  -3.401   3.491  0.00  0.00    -0.406 OA
BRANCH  13  14
ATOM     14  C   UNL     1      -3.157  -4.065   4.729  0.00  0.00    +0.575 C 
ATOM     15  F   UNL     1      -2.796  -3.122   5.698  0.00  0.00    -0.133 F 
ATOM     16  F   UNL     1      -4.309  -4.743   5.145  0.00  0.00    -0.133 F 
ATOM     17  F   UNL     1      -2.114  -4.981   4.558  0.00  0.00    -0.133 F 
ENDBRANCH  13  14
ENDBRANCH   7  13
ENDBRANCH   1   4
BRANCH   1  18
ATOM     18  C   UNL     1      -3.765  -1.048  -0.551  0.00  0.00    +0.110 C 
BRANCH  18  19
ATOM     19  N   UNL     1      -4.819  -0.825  -1.544  0.00  0.00    -0.190 NA
ATOM     20  H   UNL     1      -4.724  -0.119  -2.202  0.00  0.00    +0.148 HD
BRANCH  19  21
ATOM     21  S   UNL     1      -6.173  -1.779  -1.544  0.00  0.00    +0.058 S 
ATOM     22  O   UNL     1      -7.005  -1.304  -2.593  0.00  0.00    -0.153 OA
ATOM     23  O   UNL     1      -5.721  -3.125  -1.480  0.00  0.00    -0.153 OA
BRANCH  21  24
ATOM     24  C   UNL     1      -7.031  -1.465  -0.037  0.00  0.00    +0.106 A 
ATOM     25  C   UNL     1      -6.742  -2.219   1.091  0.00  0.00    +0.032 A 
ATOM     26  C   UNL     1      -7.402  -1.988   2.279  0.00  0.00    +0.049 A 
ATOM     27  C   UNL     1      -8.367  -0.992   2.352  0.00  0.00    +0.139 A 
ATOM     28  C   UNL     1      -8.658  -0.230   1.207  0.00  0.00    +0.019 A 
ATOM     29  C   UNL     1      -7.973  -0.476   0.012  0.00  0.00    +0.040 A 
ATOM     30  C   UNL     1      -9.678   0.819   1.292  0.00  0.00    +0.018 A 
ATOM     31  C   UNL     1     -10.302   1.012   2.481  0.00  0.00    +0.092 A 
ATOM     32  C   UNL     1      -9.960   0.209   3.591  0.00  0.00    +0.337 A 
ATOM     33  O   UNL     1     -10.527   0.391   4.653  0.00  0.00    -0.245 OA
ATOM     34  O   UNL     1      -9.025  -0.750   3.505  0.00  0.00    -0.422 OA
ENDBRANCH  21  24
ENDBRANCH  19  21
ENDBRANCH  18  19
ENDBRANCH   1  18
TORSDOF 7
