REMARK  Name = ZINC00708847
REMARK  2 active torsions:
REMARK  status: ('A' for Active; 'I' for Inactive)
REMARK    1  A    between atoms: C_4  and  C_7
REMARK    2  A    between atoms: C_12  and  C_22
REMARK                            x       y       z     vdW  Elec       q    Type
REMARK                         _______ _______ _______ _____ _____    ______ ____
ROOT
ATOM      1  C   UNL     1       0.446   1.290   0.214  0.00  0.00    +0.032 C 
ATOM      2  C   UNL     1      -0.385   1.775  -0.973  0.00  0.00    +0.059 C 
ATOM      3  C   UNL     1       0.189   1.223  -2.268  0.00  0.00    +0.017 C 
ATOM      4  C   UNL     1       1.510   1.008  -2.390  0.00  0.00    +0.036 C 
ATOM      5  C   UNL     1       2.209   0.466  -3.614  0.00  0.00    +0.137 C 
ATOM      6  N   UNL     1       1.387   0.416  -4.804  0.00  0.00    -0.331 N 
ATOM      7  C   UNL     1       0.269  -0.414  -4.871  0.00  0.00    +0.049 A 
ATOM      8  C   UNL     1       0.233  -1.511  -5.717  0.00  0.00    +0.025 A 
ATOM      9  C   UNL     1      -0.850  -2.371  -5.669  0.00  0.00    +0.002 A 
ATOM     10  C   UNL     1      -1.889  -2.140  -4.785  0.00  0.00    +0.002 A 
ATOM     11  C   UNL     1      -1.866  -1.033  -3.954  0.00  0.00    +0.025 A 
ATOM     12  C   UNL     1      -0.792  -0.162  -4.014  0.00  0.00    +0.052 A 
ATOM     13  N   UNL     1      -0.726   0.992  -3.243  0.00  0.00    -0.316 N 
ATOM     14  C   UNL     1       2.380   1.284  -1.309  0.00  0.00    +0.163 C 
ATOM     15  O   UNL     1       3.574   1.107  -1.457  0.00  0.00    -0.292 OA
ATOM     16  C   UNL     1       1.882   1.788   0.012  0.00  0.00    +0.088 C 
ATOM     17  H   UNL     1       1.616   0.970  -5.567  0.00  0.00    +0.147 HD
ATOM     18  H   UNL     1      -1.384   1.684  -3.414  0.00  0.00    +0.152 HD
ENDROOT
BRANCH   5  19
ATOM     19  C   UNL     1       2.692  -0.928  -3.309  0.00  0.00    -0.005 A 
ATOM     20  C   UNL     1       2.169  -1.620  -2.233  0.00  0.00    +0.056 A 
ATOM     21  C   UNL     1       2.608  -2.904  -1.954  0.00  0.00    +0.167 A 
ATOM     22  C   UNL     1       3.585  -3.492  -2.754  0.00  0.00    +0.167 A 
ATOM     23  C   UNL     1       4.109  -2.792  -3.828  0.00  0.00    +0.065 A 
ATOM     24  C   UNL     1       3.663  -1.512  -4.104  0.00  0.00    +0.027 A 
ATOM     25 BR   UNL     1       4.381  -0.557  -5.570  0.00  0.00    -0.050 Br
ATOM     26  O   UNL     1       3.847  -4.743  -2.274  0.00  0.00    -0.453 OA
ATOM     27  C   UNL     1       2.732  -5.070  -1.423  0.00  0.00    +0.466 C 
ATOM     28  O   UNL     1       2.258  -3.787  -0.973  0.00  0.00    -0.453 OA
ENDBRANCH   5  19
BRANCH   1  32
ATOM     29  C   UNL     1      -1.143   2.883   3.845  0.00  0.00    +0.000 A 
ATOM     30  C   UNL     1      -1.060   1.514   3.669  0.00  0.00    +0.000 A 
ATOM     31  C   UNL     1      -0.546   0.999   2.494  0.00  0.00    +0.004 A 
ATOM     32  C   UNL     1      -0.115   1.852   1.495  0.00  0.00    -0.044 A 
ATOM     33  C   UNL     1      -0.193   3.220   1.673  0.00  0.00    +0.004 A 
ATOM     34  C   UNL     1      -0.712   3.736   2.846  0.00  0.00    +0.000 A 
ENDBRANCH   1  32
TORSDOF 2
