REMARK  Name = ZINC01784916
REMARK  7 active torsions:
REMARK  status: ('A' for Active; 'I' for Inactive)
REMARK    1  A    between atoms: C_1  and  C_2
REMARK    2  A    between atoms: C_2  and  C_3
REMARK    3  A    between atoms: C_2  and  C_4
REMARK    4  A    between atoms: C_2  and  C_5
REMARK    5  A    between atoms: N_16  and  C_19
REMARK    6  A    between atoms: C_19  and  C_20
REMARK    7  A    between atoms: N_22  and  C_23
REMARK                            x       y       z     vdW  Elec       q    Type
REMARK                         _______ _______ _______ _____ _____    ______ ____
ROOT
ATOM      1  C   UNL     1      -3.473   4.501 -10.512  0.00  0.00    -0.000 C 
ATOM      2  C   UNL     1      -1.989   4.529 -10.133  0.00  0.00    +0.009 C 
ATOM      3  C   UNL     1      -1.789   3.869  -8.768  0.00  0.00    +0.037 C 
ATOM      4  C   UNL     1      -2.437   2.487  -8.790  0.00  0.00    -0.023 A 
ATOM      5  C   UNL     1      -3.359   2.172  -9.726  0.00  0.00    -0.004 A 
ATOM      6  S   UNL     1      -3.821   0.498  -9.370  0.00  0.00    -0.071 S 
ATOM      7  C   UNL     1      -2.772   0.228  -7.962  0.00  0.00    +0.138 A 
ATOM      8  C   UNL     1      -2.098   1.450  -7.818  0.00  0.00    +0.079 A 
ATOM      9  C   UNL     1      -1.162   1.526  -6.733  0.00  0.00    +0.279 A 
ATOM     10  O   UNL     1      -0.530   2.548  -6.528  0.00  0.00    -0.265 OA
ATOM     11  N   UNL     1      -0.995   0.447  -5.945  0.00  0.00    -0.201 N 
ATOM     12  N   UNL     1      -1.714  -0.729  -6.180  0.00  0.00    -0.061 NA
ATOM     13  N   UNL     1      -2.561  -0.803  -7.149  0.00  0.00    -0.123 NA
ATOM     14  C   UNL     1      -3.875   3.052 -10.823  0.00  0.00    +0.046 C 
ENDROOT
BRANCH   1  16
ATOM     15  C   UNL     1      -2.870   4.838 -12.913  0.00  0.00    +0.011 C 
ATOM     16  C   UNL     1      -3.703   5.374 -11.747  0.00  0.00    -0.035 C 
ATOM     17  C   UNL     1      -5.186   5.345 -12.123  0.00  0.00    +0.011 C 
ATOM     18  C   UNL     1      -3.284   6.813 -11.439  0.00  0.00    +0.011 C 
ENDBRANCH   1  16
BRANCH  11  19
ATOM     19  C   UNL     1      -0.043   0.503  -4.832  0.00  0.00    +0.244 C 
BRANCH  19  20
ATOM     20  C   UNL     1      -0.749   0.989  -3.592  0.00  0.00    +0.235 C 
ATOM     21  O   UNL     1      -1.930   1.261  -3.634  0.00  0.00    -0.274 OA
ATOM     22  N   UNL     1      -0.067   1.120  -2.437  0.00  0.00    -0.311 N 
ATOM     23  H   UNL     1       1.004   0.873  -2.399  0.00  0.00    +0.149 HD
BRANCH  22  24
ATOM     24  C   UNL     1      -0.753   1.593  -1.232  0.00  0.00    +0.073 C 
ATOM     25  C   UNL     1      -0.013   1.086   0.008  0.00  0.00    +0.022 C 
ATOM     26  C   UNL     1      -0.729   1.579   1.267  0.00  0.00    +0.002 C 
ATOM     27  C   UNL     1      -0.750   3.109   1.275  0.00  0.00    +0.000 C 
ATOM     28  C   UNL     1      -1.490   3.616   0.036  0.00  0.00    +0.002 C 
ATOM     29  C   UNL     1      -0.773   3.123  -1.223  0.00  0.00    +0.022 C 
ENDBRANCH  22  24
ENDBRANCH  19  20
ENDBRANCH  11  19
TORSDOF 4
