REMARK  Name = ZINC09323451
REMARK  6 active torsions:
REMARK  status: ('A' for Active; 'I' for Inactive)
REMARK    1  A    between atoms: C_9  and  O_26
REMARK    2  A    between atoms: C_10  and  C_11
REMARK    3  A    between atoms: N_15  and  C_19
REMARK    4  A    between atoms: O_26  and  C_27
REMARK    5  A    between atoms: C_27  and  C_28
REMARK    6  A    between atoms: C_33  and  C_34
REMARK                            x       y       z     vdW  Elec       q    Type
REMARK                         _______ _______ _______ _____ _____    ______ ____
ROOT
ATOM      1  C   UNL     1       5.627  -1.181  -2.822  0.00  0.00    +0.001 A 
ATOM      2  C   UNL     1       5.291   0.169  -2.842  0.00  0.00    +0.001 A 
ATOM      3  C   UNL     1       4.396   0.681  -1.950  0.00  0.00    +0.009 A 
ATOM      4  C   UNL     1       3.803  -0.161  -1.004  0.00  0.00    -0.007 A 
ATOM      5  C   UNL     1       4.146  -1.534  -0.976  0.00  0.00    -0.017 A 
ATOM      6  C   UNL     1       5.073  -2.028  -1.911  0.00  0.00    +0.008 A 
ATOM      7  C   UNL     1       3.554  -2.379  -0.021  0.00  0.00    +0.012 A 
ATOM      8  C   UNL     1       2.658  -1.894   0.879  0.00  0.00    +0.047 A 
ATOM      9  C   UNL     1       2.290  -0.550   0.898  0.00  0.00    +0.129 A 
ATOM     10  C   UNL     1       2.842   0.347  -0.024  0.00  0.00    +0.026 A 
ENDROOT
BRANCH  10  11
ATOM     11  C   UNL     1       2.462   1.759  -0.012  0.00  0.00    +0.040 C 
ATOM     12  C   UNL     1       1.147   2.110   0.002  0.00  0.00    +0.099 C 
ATOM     13  C   UNL     1      -0.014   1.213   0.009  0.00  0.00    +0.273 C 
ATOM     14  O   UNL     1       0.002  -0.004   0.002  0.00  0.00    -0.268 OA
ATOM     15  N   UNL     1      -1.104   2.008   0.018  0.00  0.00    -0.189 N 
ATOM     16  C   UNL     1      -0.728   3.296   0.027  0.00  0.00    +0.318 C 
ATOM     17  O   UNL     1      -1.497   4.238   0.039  0.00  0.00    -0.251 OA
ATOM     18  N   UNL     1       0.612   3.406   0.015  0.00  0.00    -0.264 N 
ATOM     19  H   UNL     1       1.118   4.234   0.014  0.00  0.00    +0.157 HD
BRANCH  15  20
ATOM     20  C   UNL     1      -2.431   1.556   0.020  0.00  0.00    +0.046 A 
ATOM     21  C   UNL     1      -2.702   0.194   0.007  0.00  0.00    +0.025 A 
ATOM     22  C   UNL     1      -4.010  -0.249   0.015  0.00  0.00    +0.022 A 
ATOM     23  C   UNL     1      -5.050   0.663   0.024  0.00  0.00    +0.041 A 
ATOM     24  C   UNL     1      -4.783   2.021   0.031  0.00  0.00    +0.022 A 
ATOM     25  C   UNL     1      -3.477   2.469   0.029  0.00  0.00    +0.025 A 
ATOM     26 CL   UNL     1      -6.694   0.104   0.027  0.00  0.00    -0.084 Cl
ENDBRANCH  15  20
ENDBRANCH  10  11
BRANCH   9  27
ATOM     27  O   UNL     1       1.393  -0.109   1.814  0.00  0.00    -0.487 OA
BRANCH  27  28
ATOM     28  C   UNL     1       0.868  -1.076   2.726  0.00  0.00    +0.265 C 
BRANCH  28  29
ATOM     29  C   UNL     1      -0.106  -0.407   3.662  0.00  0.00    +0.007 A 
ATOM     30  C   UNL     1      -0.360   0.944   3.545  0.00  0.00    +0.008 A 
ATOM     31  C   UNL     1      -1.254   1.560   4.404  0.00  0.00    +0.000 A 
ATOM     32  C   UNL     1      -1.898   0.826   5.384  0.00  0.00    +0.001 A 
ATOM     33  C   UNL     1      -1.654  -0.525   5.511  0.00  0.00    +0.019 A 
ATOM     34  C   UNL     1      -0.757  -1.154   4.645  0.00  0.00    +0.058 A 
BRANCH  34  35
ATOM     35  C   UNL     1      -0.503  -2.558   4.768  0.00  0.00    +0.100 C 
ATOM     36  N   UNL     1      -0.301  -3.672   4.865  0.00  0.00    -0.191 NA
ENDBRANCH  34  35
ENDBRANCH  28  29
ENDBRANCH  27  28
ENDBRANCH   9  27
TORSDOF 6
