REMARK  Name = ZINC36041478
REMARK  9 active torsions:
REMARK  status: ('A' for Active; 'I' for Inactive)
REMARK    1  A    between atoms: C_1  and  C_2
REMARK    2  A    between atoms: C_2  and  C_3
REMARK    3  A    between atoms: C_2  and  C_4
REMARK    4  A    between atoms: C_4  and  N_5
REMARK    5  A    between atoms: C_6  and  C_8
REMARK    6  A    between atoms: C_13  and  C_15
REMARK    7  A    between atoms: C_18  and  O_21
REMARK    8  A    between atoms: O_21  and  C_22
REMARK    9  A    between atoms: C_23  and  C_25
REMARK                            x       y       z     vdW  Elec       q    Type
REMARK                         _______ _______ _______ _____ _____    ______ ____
ROOT
ATOM      1  C   UNL     1      -2.170  -4.034  -0.461  0.00  0.00    +0.101 C 
ATOM      2  C   UNL     1      -1.705  -4.505  -1.855  0.00  0.00    +0.121 C 
ATOM      3  N   UNL     1      -2.699  -5.527  -2.256  0.00  0.00    -0.296 N 
ATOM      4  C   UNL     1      -3.995  -4.980  -1.790  0.00  0.00    +0.117 C 
ATOM      5  C   UNL     1      -3.680  -4.348  -0.415  0.00  0.00    +0.050 C 
ATOM      6  C   UNL     1      -2.475  -6.691  -2.898  0.00  0.00    +0.247 C 
ATOM      7  O   UNL     1      -1.337  -7.054  -3.119  0.00  0.00    -0.270 OA
ENDROOT
BRANCH   5   8
ATOM      8  C   UNL     1      -4.473  -3.080  -0.227  0.00  0.00    -0.042 A 
ATOM      9  C   UNL     1      -4.541  -2.150  -1.247  0.00  0.00    +0.007 A 
ATOM     10  C   UNL     1      -5.267  -0.988  -1.077  0.00  0.00    +0.046 A 
ATOM     11  C   UNL     1      -5.929  -0.754   0.120  0.00  0.00    +0.120 A 
ATOM     12  C   UNL     1      -5.860  -1.688   1.142  0.00  0.00    +0.046 A 
ATOM     13  C   UNL     1      -5.137  -2.852   0.965  0.00  0.00    +0.007 A 
BRANCH  11  14
ATOM     14  O   UNL     1      -6.644   0.390   0.290  0.00  0.00    -0.495 OA
ATOM     15  C   UNL     1      -7.300   0.564   1.548  0.00  0.00    +0.277 C 
ENDBRANCH  11  14
ENDBRANCH   5   8
BRANCH   6  16
ATOM     16  C   UNL     1      -3.615  -7.525  -3.334  0.00  0.00    +0.037 A 
ATOM     17  C   UNL     1      -4.877  -6.954  -3.505  0.00  0.00    +0.013 A 
ATOM     18  C   UNL     1      -5.936  -7.738  -3.913  0.00  0.00    +0.001 A 
ATOM     19  C   UNL     1      -5.750  -9.088  -4.152  0.00  0.00    +0.000 A 
ATOM     20  C   UNL     1      -4.502  -9.661  -3.983  0.00  0.00    +0.001 A 
ATOM     21  C   UNL     1      -3.433  -8.887  -3.582  0.00  0.00    +0.013 A 
ENDBRANCH   6  16
BRANCH   1  23
ATOM     22  N   UNL     1      -1.893  -2.005   0.928  0.00  0.00    -0.315 N 
ATOM     23  C   UNL     1      -1.938  -2.553  -0.303  0.00  0.00    +0.218 C 
ATOM     24  O   UNL     1      -1.792  -1.855  -1.283  0.00  0.00    -0.275 OA
ATOM     25  H   UNL     1      -2.010  -2.564   1.712  0.00  0.00    +0.149 HD
BRANCH  22  26
ATOM     26  C   UNL     1      -1.668  -0.566   1.081  0.00  0.00    +0.107 C 
BRANCH  26  28
ATOM     27  C   UNL     1      -1.303   1.272   2.734  0.00  0.00    +0.009 C 
ATOM     28  C   UNL     1      -1.662  -0.206   2.568  0.00  0.00    -0.000 C 
ATOM     29  C   UNL     1      -3.049  -0.464   3.161  0.00  0.00    +0.009 C 
ENDBRANCH  26  28
ENDBRANCH  22  26
ENDBRANCH   1  23
TORSDOF 6
