REMARK  Name = ZINC32770882
REMARK  7 active torsions:
REMARK  status: ('A' for Active; 'I' for Inactive)
REMARK    1  A    between atoms: C_4  and  N_7
REMARK    2  A    between atoms: C_8  and  C_29
REMARK    3  A    between atoms: C_11  and  C_13
REMARK    4  A    between atoms: N_15  and  C_16
REMARK    5  A    between atoms: C_16  and  C_17
REMARK    6  A    between atoms: C_22  and  C_23
REMARK    7  A    between atoms: C_23  and  N_24
REMARK                            x       y       z     vdW  Elec       q    Type
REMARK                         _______ _______ _______ _____ _____    ______ ____
ROOT
ATOM      1  C   UNL     1      -4.259   4.497   1.668  0.00  0.00    +0.260 C 
ATOM      2  O   UNL     1      -4.879   5.029   0.766  0.00  0.00    -0.269 OA
ATOM      3  N   UNL     1      -3.084   3.889   1.411  0.00  0.00    -0.306 N 
ATOM      4  H   UNL     1      -2.523   3.409   2.227  0.00  0.00    +0.149 HD
ENDROOT
BRANCH   1   8
ATOM      5  N   UNL     1      -4.930   4.145   5.251  0.00  0.00    -0.212 N 
ATOM      6  C   UNL     1      -6.164   4.896   4.969  0.00  0.00    +0.189 C 
ATOM      7  C   UNL     1      -6.090   5.163   3.453  0.00  0.00    +0.096 C 
ATOM      8  C   UNL     1      -4.789   4.518   3.032  0.00  0.00    +0.123 C 
ATOM      9  N   UNL     1      -4.220   3.982   4.063  0.00  0.00    -0.178 NA
BRANCH   5  13
ATOM     10  C   UNL     1      -3.759   2.727   8.986  0.00  0.00    +0.000 A 
ATOM     11  C   UNL     1      -2.959   2.502   7.880  0.00  0.00    +0.002 A 
ATOM     12  C   UNL     1      -3.344   2.971   6.640  0.00  0.00    +0.025 A 
ATOM     13  C   UNL     1      -4.537   3.670   6.503  0.00  0.00    +0.052 A 
ATOM     14  C   UNL     1      -5.336   3.899   7.617  0.00  0.00    +0.025 A 
ATOM     15  C   UNL     1      -4.947   3.422   8.853  0.00  0.00    +0.002 A 
ENDBRANCH   5  13
BRANCH   6  16
ATOM     16  C   UNL     1      -6.184   6.194   5.736  0.00  0.00    +0.233 C 
ATOM     17  O   UNL     1      -5.168   6.611   6.249  0.00  0.00    -0.274 OA
ATOM     18  N   UNL     1      -7.333   6.890   5.850  0.00  0.00    -0.328 N 
ATOM     19  H   UNL     1      -7.348   7.837   6.410  0.00  0.00    +0.145 HD
ATOM     20  H   UNL     1      -8.255   6.511   5.385  0.00  0.00    +0.145 HD
ENDBRANCH   6  16
ENDBRANCH   1   8
BRANCH   3  21
ATOM     21  C   UNL     1      -2.553   3.868   0.046  0.00  0.00    +0.140 C 
BRANCH  21  22
ATOM     22  C   UNL     1      -1.238   3.133   0.029  0.00  0.00    -0.025 A 
ATOM     23  C   UNL     1      -0.050   3.840   0.023  0.00  0.00    +0.005 A 
ATOM     24  C   UNL     1       1.156   3.166   0.008  0.00  0.00    +0.000 A 
ATOM     25  C   UNL     1       1.175   1.783   0.000  0.00  0.00    +0.000 A 
ATOM     26  C   UNL     1      -0.013   1.076   0.008  0.00  0.00    +0.006 A 
ATOM     27  C   UNL     1      -1.219   1.751   0.017  0.00  0.00    -0.021 A 
BRANCH  27  28
ATOM     28  C   UNL     1      -2.514   0.980   0.019  0.00  0.00    +0.178 C 
BRANCH  28  29
ATOM     29  N   UNL     1      -3.002   0.841  -1.355  0.00  0.00    -0.267 N 
ATOM     30  C   UNL     1      -3.307  -0.318  -1.976  0.00  0.00    +0.108 A 
ATOM     31  C   UNL     1      -3.719  -0.018  -3.229  0.00  0.00    +0.041 A 
ATOM     32  C   UNL     1      -3.663   1.371  -3.380  0.00  0.00    +0.134 A 
ATOM     33  N   UNL     1      -3.239   1.887  -2.255  0.00  0.00    -0.179 NA
ENDBRANCH  28  29
ENDBRANCH  27  28
ENDBRANCH  21  22
ENDBRANCH   3  21
TORSDOF 7
