REMARK  Name = ZINC63361893
REMARK  9 active torsions:
REMARK  status: ('A' for Active; 'I' for Inactive)
REMARK    1  A    between atoms: C_1  and  C_2
REMARK    2  A    between atoms: C_2  and  C_3
REMARK    3  A    between atoms: C_3  and  C_4
REMARK    4  A    between atoms: C_4  and  N_5
REMARK    5  A    between atoms: C_6  and  C_8
REMARK    6  A    between atoms: C_11  and  N_14
REMARK    7  A    between atoms: C_17  and  C_35
REMARK    8  A    between atoms: C_23  and  O_28
REMARK    9  A    between atoms: O_28  and  C_29
REMARK                            x       y       z     vdW  Elec       q    Type
REMARK                         _______ _______ _______ _____ _____    ______ ____
ROOT
ATOM      1  N   UNL     1      -8.311  -5.853   0.049  0.00  0.00    -0.192 N 
ATOM      2  C   UNL     1      -8.638  -7.159  -0.043  0.00  0.00    +0.253 C 
ATOM      3  O   UNL     1      -7.881  -8.096  -0.177  0.00  0.00    -0.272 OA
ATOM      4  C   UNL     1     -10.146  -7.210   0.060  0.00  0.00    +0.137 C 
ATOM      5  C   UNL     1     -10.750  -7.848  -1.190  0.00  0.00    +0.139 C 
ATOM      6  C   UNL     1     -11.482  -6.752  -1.951  0.00  0.00    -0.034 C 
ATOM      7  C   UNL     1     -10.964  -6.740  -3.176  0.00  0.00    +0.003 A 
ATOM      8  C   UNL     1     -11.299  -5.955  -4.374  0.00  0.00    +0.055 A 
ATOM      9  C   UNL     1     -10.549  -6.188  -5.486  0.00  0.00    +0.121 A 
ATOM     10  C   UNL     1      -9.500  -7.117  -5.543  0.00  0.00    +0.047 A 
ATOM     11  C   UNL     1      -9.111  -7.896  -4.501  0.00  0.00    +0.029 A 
ATOM     12  C   UNL     1      -9.852  -7.737  -3.242  0.00  0.00    +0.043 A 
ATOM     13  N   UNL     1      -9.716  -8.360  -2.093  0.00  0.00    -0.375 N 
ATOM     14  C   UNL     1     -12.523  -5.854  -1.328  0.00  0.00    +0.052 C 
ATOM     15  C   UNL     1     -11.906  -5.278  -0.038  0.00  0.00    +0.115 C 
ATOM     16  N   UNL     1     -10.535  -5.784   0.071  0.00  0.00    -0.268 N 
ATOM     17  C   UNL     1      -9.399  -5.077   0.155  0.00  0.00    +0.316 C 
ATOM     18  O   UNL     1      -9.360  -3.872   0.306  0.00  0.00    -0.252 OA
ATOM     19  C   UNL     1     -10.594  -7.921   1.339  0.00  0.00    +0.044 C 
ATOM     20  H   UNL     1      -9.053  -9.033  -1.874  0.00  0.00    +0.160 HD
ENDROOT
BRANCH   1  24
ATOM     21  C   UNL     1      -4.400  -4.410   0.020  0.00  0.00    +0.037 A 
ATOM     22  C   UNL     1      -5.476  -3.518   0.005  0.00  0.00    +0.015 A 
ATOM     23  C   UNL     1      -6.766  -3.998   0.014  0.00  0.00    +0.025 A 
ATOM     24  C   UNL     1      -7.000  -5.369   0.039  0.00  0.00    +0.045 A 
ATOM     25  C   UNL     1      -5.932  -6.259   0.055  0.00  0.00    +0.025 A 
ATOM     26  C   UNL     1      -4.639  -5.787   0.040  0.00  0.00    +0.015 A 
BRANCH  21  28
ATOM     27  N   UNL     1      -2.787  -2.571  -0.009  0.00  0.00    -0.311 N 
ATOM     28  C   UNL     1      -3.015  -3.899   0.010  0.00  0.00    +0.244 C 
ATOM     29  O   UNL     1      -2.080  -4.676   0.018  0.00  0.00    -0.270 OA
ATOM     30  H   UNL     1      -3.533  -1.950  -0.016  0.00  0.00    +0.149 HD
BRANCH  27  31
ATOM     31  C   UNL     1      -1.413  -2.064  -0.019  0.00  0.00    +0.104 C 
BRANCH  31  32
ATOM     32  C   UNL     1      -1.434  -0.534  -0.040  0.00  0.00    +0.018 C 
BRANCH  32  34
ATOM     33  C   UNL     1      -0.019   1.525  -0.072  0.00  0.00    +0.004 C 
ATOM     34  C   UNL     1       0.002  -0.004  -0.051  0.00  0.00    -0.002 C 
ENDBRANCH  32  34
ENDBRANCH  31  32
ENDBRANCH  27  31
ENDBRANCH  21  28
ENDBRANCH   1  24
BRANCH   9  35
ATOM     35  O   UNL     1     -10.835  -5.478  -6.609  0.00  0.00    -0.495 OA
ATOM     36  C   UNL     1     -10.035  -5.740  -7.763  0.00  0.00    +0.277 C 
ENDBRANCH   9  35
TORSDOF 6
