REMARK  Name = ZINC05144001
REMARK  3 active torsions:
REMARK  status: ('A' for Active; 'I' for Inactive)
REMARK    1  A    between atoms: C_1  and  C_2
REMARK    2  A    between atoms: C_5  and  N_8
REMARK    3  A    between atoms: C_9  and  C_11
REMARK                            x       y       z     vdW  Elec       q    Type
REMARK                         _______ _______ _______ _____ _____    ______ ____
ROOT
ATOM      1  C   UNL     1       0.761  -0.506   1.233  0.00  0.00    +0.078 C 
ATOM      2  C   UNL     1       0.002  -0.004   0.002  0.00  0.00    +0.032 C 
ATOM      3  C   UNL     1      -0.019   1.526   0.010  0.00  0.00    +0.108 C 
ATOM      4  N   UNL     1       1.359   2.036   0.000  0.00  0.00    -0.308 N 
ATOM      5  C   UNL     1       2.093   1.605   1.197  0.00  0.00    +0.108 C 
ATOM      6  C   UNL     1       2.177   0.078   1.224  0.00  0.00    +0.032 C 
ATOM      7  C   UNL     1       1.377   3.418  -0.125  0.00  0.00    +0.186 A 
ATOM      8  N   UNL     1       0.373   4.277  -0.234  0.00  0.00    -0.124 NA
ATOM      9  N   UNL     1       0.567   5.519  -0.337  0.00  0.00    -0.121 NA
ATOM     10  C   UNL     1       1.782   6.040  -0.352  0.00  0.00    +0.202 A 
ATOM     11  S   UNL     1       2.762   4.550  -0.191  0.00  0.00    -0.013 S 
ATOM     12  N   UNL     1       2.186   7.372  -0.463  0.00  0.00    -0.301 N 
ATOM     13  C   UNL     1       3.478   7.815  -0.464  0.00  0.00    +0.093 A 
ATOM     14  C   UNL     1       3.463   9.158  -0.593  0.00  0.00    +0.019 A 
ATOM     15  C   UNL     1       2.114   9.560  -0.665  0.00  0.00    +0.019 A 
ATOM     16  C   UNL     1       1.355   8.449  -0.583  0.00  0.00    +0.093 A 
ENDROOT
BRANCH   1  18
ATOM     17  N   UNL     1       1.464  -2.677   2.189  0.00  0.00    -0.312 N 
ATOM     18  C   UNL     1       0.837  -2.011   1.200  0.00  0.00    +0.216 C 
ATOM     19  O   UNL     1       0.334  -2.623   0.281  0.00  0.00    -0.276 OA
ATOM     20  H   UNL     1       1.866  -2.187   2.924  0.00  0.00    +0.149 HD
BRANCH  17  25
ATOM     21  C   UNL     1       1.205  -4.253   6.470  0.00  0.00    +0.007 C 
ATOM     22  C   UNL     1       1.341  -4.724   5.021  0.00  0.00    -0.014 C 
ATOM     23  C   UNL     1       2.615  -4.136   4.411  0.00  0.00    +0.005 C 
ATOM     24  C   UNL     1       2.752  -4.607   2.961  0.00  0.00    +0.022 C 
ATOM     25  C   UNL     1       1.537  -4.139   2.156  0.00  0.00    +0.073 C 
ATOM     26  C   UNL     1       0.264  -4.728   2.766  0.00  0.00    +0.022 C 
ATOM     27  C   UNL     1       0.127  -4.257   4.216  0.00  0.00    +0.005 C 
ENDBRANCH  17  25
ENDBRANCH   1  18
TORSDOF 2
