REMARK  Name = ZINC19739980
REMARK  7 active torsions:
REMARK  status: ('A' for Active; 'I' for Inactive)
REMARK    1  A    between atoms: C_1  and  C_2
REMARK    2  A    between atoms: C_4  and  C_10
REMARK    3  A    between atoms: C_7  and  O_8
REMARK    4  A    between atoms: O_8  and  C_9
REMARK    5  A    between atoms: N_24  and  C_25
REMARK    6  A    between atoms: C_25  and  C_26
REMARK    7  A    between atoms: C_29  and  C_31
REMARK                            x       y       z     vdW  Elec       q    Type
REMARK                         _______ _______ _______ _____ _____    ______ ____
ROOT
ATOM      1  C   UNL     1       0.027  -2.816  -2.517  0.00  0.00    +0.134 C 
ATOM      2  C   UNL     1      -1.367  -3.308  -2.824  0.00  0.00    +0.042 A 
ATOM      3  C   UNL     1      -1.624  -4.550  -3.294  0.00  0.00    -0.016 A 
ATOM      4  C   UNL     1      -3.056  -4.657  -3.462  0.00  0.00    +0.003 A 
ATOM      5  C   UNL     1      -3.887  -5.689  -3.909  0.00  0.00    +0.010 A 
ATOM      6  C   UNL     1      -5.235  -5.431  -3.938  0.00  0.00    +0.001 A 
ATOM      7  C   UNL     1      -5.761  -4.211  -3.547  0.00  0.00    +0.002 A 
ATOM      8  C   UNL     1      -4.962  -3.172  -3.102  0.00  0.00    +0.026 A 
ATOM      9  C   UNL     1      -3.589  -3.404  -3.061  0.00  0.00    +0.047 A 
ATOM     10  N   UNL     1      -2.539  -2.616  -2.683  0.00  0.00    -0.356 N 
ATOM     11  H   UNL     1      -2.613  -1.703  -2.364  0.00  0.00    +0.166 HD
ATOM     12  C   UNL     1      -0.550  -5.574  -3.566  0.00  0.00    +0.053 C 
ATOM     13  C   UNL     1       0.801  -4.847  -3.603  0.00  0.00    +0.090 C 
ATOM     14  N   UNL     1       0.926  -3.977  -2.424  0.00  0.00    -0.283 NA
ENDROOT
BRANCH   1  18
ATOM     15  C   UNL     1      -0.018   1.503   0.010  0.00  0.00    +0.047 C 
ATOM     16  C   UNL     1       0.002  -0.004   0.002  0.00  0.00    -0.008 A 
ATOM     17  C   UNL     1       0.006  -0.689  -1.198  0.00  0.00    +0.012 A 
ATOM     18  C   UNL     1       0.024  -2.071  -1.206  0.00  0.00    -0.024 A 
ATOM     19  C   UNL     1       0.039  -2.772  -0.014  0.00  0.00    +0.009 A 
ATOM     20  C   UNL     1       0.036  -2.092   1.188  0.00  0.00    +0.046 A 
ATOM     21  C   UNL     1       0.023  -0.705   1.199  0.00  0.00    +0.123 A 
BRANCH  21  22
ATOM     22  O   UNL     1       0.025  -0.033   2.381  0.00  0.00    -0.495 OA
ATOM     23  C   UNL     1       0.048  -0.820   3.574  0.00  0.00    +0.277 C 
ENDBRANCH  21  22
ENDBRANCH   1  18
BRANCH  14  24
ATOM     24  C   UNL     1       2.318  -3.550  -2.224  0.00  0.00    +0.157 C 
BRANCH  24  25
ATOM     25  C   UNL     1       3.168  -4.749  -1.890  0.00  0.00    +0.099 A 
ATOM     26  N   UNL     1       2.727  -5.892  -1.439  0.00  0.00    -0.349 N 
ATOM     27  C   UNL     1       3.763  -6.724  -1.255  0.00  0.00    +0.105 A 
ATOM     28  C   UNL     1       4.888  -6.072  -1.605  0.00  0.00    +0.030 A 
ATOM     29  N   UNL     1       4.511  -4.821  -2.013  0.00  0.00    -0.346 N 
ATOM     30  C   UNL     1       6.293  -6.617  -1.561  0.00  0.00    +0.065 C 
ATOM     31  H   UNL     1       5.098  -4.117  -2.329  0.00  0.00    +0.167 HD
ATOM     32  H   UNL     1       1.797  -6.106  -1.264  0.00  0.00    +0.166 HD
ENDBRANCH  24  25
ENDBRANCH  14  24
TORSDOF 4
