REMARK  Name = ZINC40995110
REMARK  5 active torsions:
REMARK  status: ('A' for Active; 'I' for Inactive)
REMARK    1  A    between atoms: C_6  and  C_7
REMARK    2  A    between atoms: C_7  and  C_8
REMARK    3  A    between atoms: C_8  and  C_9
REMARK    4  A    between atoms: N_11  and  C_12
REMARK    5  A    between atoms: C_13  and  C_21
REMARK                            x       y       z     vdW  Elec       q    Type
REMARK                         _______ _______ _______ _____ _____    ______ ____
ROOT
ATOM      1  C   UNL     1      -4.822  -2.847  -2.575  0.00  0.00    +0.084 A 
ATOM      2  C   UNL     1      -5.562  -3.282  -3.663  0.00  0.00    +0.068 A 
ATOM      3  C   UNL     1      -6.787  -4.012  -3.385  0.00  0.00    -0.023 A 
ATOM      4  C   UNL     1      -7.047  -4.173  -2.070  0.00  0.00    -0.004 A 
ATOM      5  S   UNL     1      -5.696  -3.382  -1.245  0.00  0.00    -0.077 S 
ATOM      6  C   UNL     1      -8.223  -4.874  -1.464  0.00  0.00    +0.043 C 
ATOM      7  C   UNL     1      -9.288  -5.058  -2.555  0.00  0.00    +0.005 C 
ATOM      8  C   UNL     1      -8.620  -5.627  -3.810  0.00  0.00    +0.005 C 
ATOM      9  C   UNL     1      -7.723  -4.565  -4.449  0.00  0.00    +0.037 C 
ENDROOT
BRANCH   2  10
ATOM     10  C   UNL     1      -5.128  -3.015  -5.038  0.00  0.00    +0.244 C 
ATOM     11  O   UNL     1      -4.408  -3.811  -5.614  0.00  0.00    -0.270 OA
ATOM     12  N   UNL     1      -5.525  -1.890  -5.665  0.00  0.00    -0.325 N 
ATOM     13  H   UNL     1      -6.098  -1.256  -5.206  0.00  0.00    +0.145 HD
ATOM     14  H   UNL     1      -5.237  -1.714  -6.574  0.00  0.00    +0.145 HD
ENDBRANCH   2  10
BRANCH   1  17
ATOM     15  C   UNL     1      -3.040  -1.799  -1.420  0.00  0.00    +0.218 C 
ATOM     16  O   UNL     1      -3.551  -2.115  -0.366  0.00  0.00    -0.275 OA
ATOM     17  N   UNL     1      -3.631  -2.137  -2.583  0.00  0.00    -0.279 N 
ATOM     18  H   UNL     1      -3.222  -1.885  -3.426  0.00  0.00    +0.155 HD
BRANCH  15  19
ATOM     19  C   UNL     1      -1.745  -1.028  -1.429  0.00  0.00    +0.101 C 
BRANCH  19  20
ATOM     20  C   UNL     1      -1.293  -0.775   0.011  0.00  0.00    +0.044 C 
BRANCH  20  26
ATOM     21  C   UNL     1      -0.017   1.378   0.010  0.00  0.00    +0.005 A 
ATOM     22  C   UNL     1       1.171   2.086   0.002  0.00  0.00    +0.020 A 
ATOM     23  C   UNL     1       2.378   1.410  -0.013  0.00  0.00    +0.041 A 
ATOM     24  C   UNL     1       2.396   0.027  -0.021  0.00  0.00    +0.020 A 
ATOM     25  C   UNL     1       1.208  -0.679  -0.013  0.00  0.00    +0.005 A 
ATOM     26  C   UNL     1       0.002  -0.004   0.002  0.00  0.00    -0.047 A 
ATOM     27 CL   UNL     1       3.870   2.298  -0.023  0.00  0.00    -0.084 Cl
ENDBRANCH  20  26
ENDBRANCH  19  20
ENDBRANCH  15  19
ENDBRANCH   1  17
TORSDOF 5
