REMARK  Name = ZINC09968987
REMARK  10 active torsions:
REMARK  status: ('A' for Active; 'I' for Inactive)
REMARK    1  A    between atoms: C_1  and  C_2
REMARK    2  A    between atoms: C_2  and  C_4
REMARK    3  A    between atoms: C_2  and  N_12
REMARK    4  A    between atoms: C_4  and  C_5
REMARK    5  A    between atoms: C_5  and  C_6
REMARK    6  A    between atoms: N_12  and  C_13
REMARK    7  A    between atoms: C_13  and  C_14
REMARK    8  A    between atoms: N_21  and  C_26
REMARK    9  A    between atoms: C_22  and  C_23
REMARK   10  A    between atoms: C_26  and  C_27
REMARK                            x       y       z     vdW  Elec       q    Type
REMARK                         _______ _______ _______ _____ _____    ______ ____
ROOT
ATOM      1  C   UNL     1       0.827  -0.505   3.589  0.00  0.00    -0.025 A 
ATOM      2  C   UNL     1       0.645  -1.847   3.997  0.00  0.00    +0.002 A 
ATOM      3  C   UNL     1      -0.112  -2.913   3.491  0.00  0.00    +0.010 A 
ATOM      4  C   UNL     1      -0.086  -4.123   4.120  0.00  0.00    +0.001 A 
ATOM      5  C   UNL     1       0.685  -4.311   5.261  0.00  0.00    +0.002 A 
ATOM      6  C   UNL     1       1.437  -3.281   5.778  0.00  0.00    +0.026 A 
ATOM      7  C   UNL     1       1.428  -2.036   5.153  0.00  0.00    +0.050 A 
ATOM      8  N   UNL     1       2.057  -0.844   5.424  0.00  0.00    -0.330 N 
ATOM      9  C   UNL     1       1.690   0.080   4.463  0.00  0.00    +0.134 A 
ENDROOT
BRANCH   9  10
ATOM     10  C   UNL     1       2.153   1.470   4.400  0.00  0.00    +0.403 C 
ATOM     11  O   UNL     1       3.015   1.864   5.175  0.00  0.00    -0.239 OA
ATOM     12  O   UNL     1       1.678   2.236   3.572  0.00  0.00    -0.239 OA
ENDBRANCH   9  10
BRANCH   1  13
ATOM     13  C   UNL     1       0.187   0.155   2.395  0.00  0.00    -0.043 C 
BRANCH  13  14
ATOM     14  N   UNL     1       1.046  -0.022   1.217  0.00  0.00    +0.383 N 
ATOM     15  H   UNL     1       1.166  -1.007   1.033  0.00  0.00    -0.085 HD
ATOM     16  H   UNL     1       1.947   0.399   1.392  0.00  0.00    -0.085 HD
BRANCH  14  18
ATOM     17  C   UNL     1       0.355   2.134   0.283  0.00  0.00    -0.014 C 
ATOM     18  C   UNL     1       0.422   0.622   0.054  0.00  0.00    -0.074 C 
BRANCH  18  19
ATOM     19  C   UNL     1       1.254   0.332  -1.197  0.00  0.00    -0.011 C 
BRANCH  19  20
ATOM     20  C   UNL     1       1.218  -1.168  -1.497  0.00  0.00    +0.033 C 
BRANCH  20  21
ATOM     21  C   UNL     1       2.037  -1.454  -2.729  0.00  0.00    -0.047 A 
ATOM     22  C   UNL     1       1.443  -1.419  -3.977  0.00  0.00    +0.003 A 
ATOM     23  C   UNL     1       2.195  -1.681  -5.107  0.00  0.00    +0.000 A 
ATOM     24  C   UNL     1       3.540  -1.977  -4.990  0.00  0.00    +0.000 A 
ATOM     25  C   UNL     1       4.134  -2.011  -3.742  0.00  0.00    +0.000 A 
ATOM     26  C   UNL     1       3.383  -1.744  -2.612  0.00  0.00    +0.003 A 
ENDBRANCH  20  21
ENDBRANCH  19  20
ENDBRANCH  18  19
ENDBRANCH  14  18
ENDBRANCH  13  14
ENDBRANCH   1  13
BRANCH   8  27
ATOM     27  C   UNL     1       2.969  -0.596   6.543  0.00  0.00    +0.159 C 
BRANCH  27  28
ATOM     28  C   UNL     1       2.205   0.017   7.688  0.00  0.00    -0.009 A 
ATOM     29  C   UNL     1       2.072   1.390   7.773  0.00  0.00    +0.007 A 
ATOM     30  C   UNL     1       1.371   1.953   8.823  0.00  0.00    +0.000 A 
ATOM     31  C   UNL     1       0.804   1.143   9.789  0.00  0.00    +0.001 A 
ATOM     32  C   UNL     1       0.936  -0.230   9.705  0.00  0.00    +0.020 A 
ATOM     33  C   UNL     1       1.633  -0.794   8.651  0.00  0.00    +0.046 A 
ATOM     34 CL   UNL     1       1.794  -2.519   8.541  0.00  0.00    -0.083 Cl
ENDBRANCH  27  28
ENDBRANCH   8  27
TORSDOF 9
