REMARK  Name = ZINC08437680
REMARK  9 active torsions:
REMARK  status: ('A' for Active; 'I' for Inactive)
REMARK    1  A    between atoms: C_1  and  C_2
REMARK    2  A    between atoms: C_2  and  N_3
REMARK    3  A    between atoms: N_3  and  C_4
REMARK    4  A    between atoms: N_3  and  C_6
REMARK    5  A    between atoms: C_4  and  C_5
REMARK    6  A    between atoms: C_9  and  N_24
REMARK    7  A    between atoms: C_11  and  C_12
REMARK    8  A    between atoms: N_13  and  N_14
REMARK    9  A    between atoms: C_15  and  C_17
REMARK                            x       y       z     vdW  Elec       q    Type
REMARK                         _______ _______ _______ _____ _____    ______ ____
ROOT
ATOM      1  C   UNL     1       0.926  -1.849  -1.141  0.00  0.00    +0.039 A 
ATOM      2  C   UNL     1      -0.134  -2.735  -1.015  0.00  0.00    +0.026 A 
ATOM      3  C   UNL     1       0.102  -4.094  -0.955  0.00  0.00    +0.034 A 
ATOM      4  C   UNL     1       1.397  -4.584  -1.010  0.00  0.00    +0.127 A 
ATOM      5  C   UNL     1       2.463  -3.719  -1.130  0.00  0.00    +0.044 A 
ATOM      6  C   UNL     1       2.240  -2.342  -1.197  0.00  0.00    +0.018 A 
ENDROOT
BRANCH   4   7
ATOM      7  N   UNL     1       1.636  -6.043  -0.938  0.00  0.00    +0.056 N 
ATOM      8  O   UNL     1       2.773  -6.476  -0.986  0.00  0.00    -0.126 OA
ATOM      9  O   UNL     1       0.696  -6.810  -0.832  0.00  0.00    -0.126 OA
ENDBRANCH   4   7
BRANCH   6  10
ATOM     10  C   UNL     1       3.375  -1.412  -1.325  0.00  0.00    +0.140 C 
ATOM     11  N   UNL     1       3.162  -0.132  -1.386  0.00  0.00    -0.187 NA
BRANCH  11  12
ATOM     12  N   UNL     1       4.242   0.752  -1.508  0.00  0.00    -0.203 N 
ATOM     13  C   UNL     1       4.021   2.080  -1.572  0.00  0.00    +0.263 C 
ATOM     14  O   UNL     1       2.885   2.511  -1.524  0.00  0.00    -0.268 OA
ATOM     15  H   UNL     1       5.148   0.409  -1.546  0.00  0.00    +0.178 HD
BRANCH  13  16
ATOM     16  C   UNL     1       5.160   3.014  -1.700  0.00  0.00    +0.039 A 
ATOM     17  C   UNL     1       6.466   2.523  -1.749  0.00  0.00    +0.013 A 
ATOM     18  C   UNL     1       7.525   3.398  -1.875  0.00  0.00    +0.002 A 
ATOM     19  C   UNL     1       7.295   4.761  -1.940  0.00  0.00    +0.015 A 
ATOM     20  C   UNL     1       6.003   5.255  -1.886  0.00  0.00    +0.019 A 
ATOM     21  C   UNL     1       4.935   4.389  -1.766  0.00  0.00    +0.028 A 
ATOM     22 BR   UNL     1       5.702   7.120  -1.976  0.00  0.00    -0.050 Br
ENDBRANCH  13  16
ENDBRANCH  11  12
ENDBRANCH   6  10
BRANCH   1  23
ATOM     23  N   UNL     1       0.690  -0.478  -1.207  0.00  0.00    -0.330 N 
BRANCH  23  25
ATOM     24  C   UNL     1      -0.019   1.526   0.010  0.00  0.00    +0.024 C 
ATOM     25  C   UNL     1       0.002  -0.004   0.002  0.00  0.00    +0.102 C 
ENDBRANCH  23  25
BRANCH  23  26
ATOM     26  C   UNL     1      -0.071  -0.132  -2.415  0.00  0.00    +0.102 C 
ATOM     27  C   UNL     1       0.783  -0.413  -3.653  0.00  0.00    +0.024 C 
ENDBRANCH  23  26
ENDBRANCH   1  23
TORSDOF 7
