REMARK  Name = ZINC44326169
REMARK  10 active torsions:
REMARK  status: ('A' for Active; 'I' for Inactive)
REMARK    1  A    between atoms: C_1  and  C_2
REMARK    2  A    between atoms: C_5  and  C_37
REMARK    3  A    between atoms: C_8  and  C_13
REMARK    4  A    between atoms: C_9  and  C_12
REMARK    5  A    between atoms: C_13  and  CA_14
REMARK    6  A    between atoms: CA_14  and  C_16
REMARK    7  A    between atoms: CA_14  and  N_19
REMARK    8  A    between atoms: C_20  and  O_22
REMARK    9  A    between atoms: O_22  and  C_23
REMARK   10  A    between atoms: C_23  and  C_24
REMARK                            x       y       z     vdW  Elec       q    Type
REMARK                         _______ _______ _______ _____ _____    ______ ____
ROOT
ATOM      1  N   UNL     1      -2.522   1.377   2.538  0.00  0.00    -0.267 N 
ATOM      2  C   UNL     1      -3.859   1.231   2.621  0.00  0.00    +0.401 C 
ATOM      3  O   UNL     1      -4.373   0.926   3.679  0.00  0.00    -0.226 OA
ATOM      4  H   UNL     1      -2.112   1.621   1.694  0.00  0.00    +0.153 HD
ENDROOT
BRANCH   1   5
ATOM      5  CA  UNL     1      -1.687   1.168   3.724  0.00  0.00    +0.193 C 
BRANCH   5   6
ATOM      6  C   UNL     1      -1.714   2.406   4.582  0.00  0.00    +0.376 C 
ATOM      7  O   UNL     1      -1.865   3.501   4.068  0.00  0.00    -0.244 OA
ATOM      8  OXT UNL     1      -1.585   2.313   5.791  0.00  0.00    -0.244 OA
ENDBRANCH   5   6
BRANCH   5   9
ATOM      9  C   UNL     1      -0.249   0.878   3.291  0.00  0.00    +0.071 C 
BRANCH   9  17
ATOM     10  C   UNL     1      -0.058  -1.278   5.610  0.00  0.00    +0.044 C 
ATOM     11  C   UNL     1      -0.042  -2.244   4.453  0.00  0.00    -0.041 A 
ATOM     12  C   UNL     1       0.033  -3.589   4.683  0.00  0.00    +0.004 A 
ATOM     13  C   UNL     1       0.048  -4.486   3.624  0.00  0.00    +0.005 A 
ATOM     14  C   UNL     1      -0.013  -4.037   2.322  0.00  0.00    -0.027 A 
ATOM     15  C   UNL     1      -0.091  -2.672   2.065  0.00  0.00    +0.050 A 
ATOM     16  C   UNL     1      -0.111  -1.768   3.143  0.00  0.00    +0.006 A 
ATOM     17  C   UNL     1      -0.202  -0.432   2.548  0.00  0.00    -0.017 A 
ATOM     18  C   UNL     1      -0.236  -0.597   1.216  0.00  0.00    +0.017 A 
ATOM     19  N   UNL     1      -0.162  -1.928   0.909  0.00  0.00    -0.358 N 
ATOM     20  H   UNL     1      -0.169  -2.294   0.010  0.00  0.00    +0.166 HD
ATOM     21  C   UNL     1      -0.328   0.520   0.208  0.00  0.00    +0.063 C 
ATOM     22  C   UNL     1       0.004  -5.022   1.182  0.00  0.00    +0.046 C 
ENDBRANCH   9  17
ENDBRANCH   5   9
ENDBRANCH   1   5
BRANCH   2  23
ATOM     23  O   UNL     1      -4.626   1.424   1.531  0.00  0.00    -0.449 OA
BRANCH  23  24
ATOM     24  C   UNL     1      -6.035   1.252   1.691  0.00  0.00    +0.246 C 
BRANCH  24  25
ATOM     25  C   UNL     1      -6.736   1.510   0.356  0.00  0.00    +0.088 C 
ATOM     26  C   UNL     1      -6.392   0.421  -0.631  0.00  0.00    -0.029 A 
ATOM     27  C   UNL     1      -5.193   0.005  -1.170  0.00  0.00    +0.005 A 
ATOM     28  C   UNL     1      -5.166  -1.043  -2.073  0.00  0.00    +0.000 A 
ATOM     29  C   UNL     1      -6.341  -1.675  -2.437  0.00  0.00    +0.001 A 
ATOM     30  C   UNL     1      -7.545  -1.266  -1.902  0.00  0.00    +0.009 A 
ATOM     31  C   UNL     1      -7.580  -0.209  -0.991  0.00  0.00    -0.014 A 
ATOM     32  C   UNL     1      -8.713   0.426  -0.274  0.00  0.00    -0.014 A 
ATOM     33  C   UNL     1      -8.233   1.454   0.534  0.00  0.00    -0.029 A 
ATOM     34  C   UNL     1      -9.102   2.197   1.304  0.00  0.00    +0.005 A 
ATOM     35  C   UNL     1     -10.459   1.925   1.276  0.00  0.00    +0.000 A 
ATOM     36  C   UNL     1     -10.945   0.906   0.477  0.00  0.00    +0.001 A 
ATOM     37  C   UNL     1     -10.083   0.157  -0.296  0.00  0.00    +0.009 A 
ENDBRANCH  24  25
ENDBRANCH  23  24
ENDBRANCH   2  23
TORSDOF 7
