REMARK  Name = ZINC18195575
REMARK  2 active torsions:
REMARK  status: ('A' for Active; 'I' for Inactive)
REMARK    1  A    between atoms: C_4  and  N_7
REMARK    2  A    between atoms: C_17  and  C_19
REMARK                            x       y       z     vdW  Elec       q    Type
REMARK                         _______ _______ _______ _____ _____    ______ ____
ROOT
ATOM      1  N   UNL     1       3.621  -0.650  -0.036  0.00  0.00    -0.218 N 
ATOM      2  C   UNL     1       3.782  -1.991  -0.051  0.00  0.00    +0.278 A 
ATOM      3  O   UNL     1       2.888  -2.820  -0.051  0.00  0.00    -0.265 OA
ATOM      4  C   UNL     1       5.153  -2.259  -0.065  0.00  0.00    +0.070 A 
ATOM      5  C   UNL     1       5.820  -1.061  -0.062  0.00  0.00    +0.125 A 
ATOM      6  N   UNL     1       4.894  -0.060  -0.046  0.00  0.00    -0.277 N 
ATOM      7  H   UNL     1       5.083   0.892  -0.041  0.00  0.00    +0.189 HD
ATOM      8  N   UNL     1       7.197  -0.958  -0.083  0.00  0.00    -0.299 N 
ATOM      9  C   UNL     1       7.893  -2.126  -0.344  0.00  0.00    +0.048 C 
ATOM     10  C   UNL     1       7.307  -3.364  -0.354  0.00  0.00    +0.034 C 
ATOM     11  C   UNL     1       5.838  -3.605  -0.080  0.00  0.00    +0.093 C 
ATOM     12  C   UNL     1       8.279  -4.347  -0.656  0.00  0.00    +0.193 C 
ATOM     13  O   UNL     1       8.087  -5.545  -0.744  0.00  0.00    -0.287 OA
ATOM     14  C   UNL     1       9.571  -3.653  -0.846  0.00  0.00    +0.031 A 
ATOM     15  C   UNL     1       9.323  -2.272  -0.649  0.00  0.00    +0.007 A 
ATOM     16  C   UNL     1      10.343  -1.341  -0.758  0.00  0.00    +0.010 A 
ATOM     17  C   UNL     1      11.615  -1.829  -1.069  0.00  0.00    +0.001 A 
ATOM     18  C   UNL     1      11.853  -3.170  -1.261  0.00  0.00    +0.001 A 
ATOM     19  C   UNL     1      10.833  -4.122  -1.153  0.00  0.00    +0.012 A 
ATOM     20  H   UNL     1       7.650  -0.115   0.076  0.00  0.00    +0.154 HD
ENDROOT
BRANCH  11  21
ATOM     21  C   UNL     1       5.672  -4.278   1.258  0.00  0.00    -0.035 A 
ATOM     22  C   UNL     1       6.154  -3.671   2.402  0.00  0.00    +0.005 A 
ATOM     23  C   UNL     1       6.001  -4.288   3.630  0.00  0.00    +0.015 A 
ATOM     24  C   UNL     1       5.365  -5.514   3.713  0.00  0.00    +0.018 A 
ATOM     25  C   UNL     1       4.882  -6.121   2.567  0.00  0.00    +0.015 A 
ATOM     26  C   UNL     1       5.031  -5.500   1.341  0.00  0.00    +0.005 A 
ATOM     27 BR   UNL     1       5.155  -6.359   5.391  0.00  0.00    -0.050 Br
ENDBRANCH  11  21
BRANCH   1  31
ATOM     28  C   UNL     1      -0.017   1.379   0.010  0.00  0.00    +0.000 A 
ATOM     29  C   UNL     1       1.170   2.089   0.002  0.00  0.00    +0.002 A 
ATOM     30  C   UNL     1       2.377   1.420  -0.013  0.00  0.00    +0.028 A 
ATOM     31  C   UNL     1       2.400   0.031  -0.021  0.00  0.00    +0.067 A 
ATOM     32  C   UNL     1       1.206  -0.680  -0.013  0.00  0.00    +0.028 A 
ATOM     33  C   UNL     1       0.002  -0.004   0.002  0.00  0.00    +0.002 A 
ENDBRANCH   1  31
TORSDOF 2
