REMARK  Name = ZINC03233096
REMARK  8 active torsions:
REMARK  status: ('A' for Active; 'I' for Inactive)
REMARK    1  A    between atoms: C_4  and  C_7
REMARK    2  A    between atoms: C_7  and  N_60
REMARK    3  A    between atoms: C_12  and  C_20
REMARK    4  A    between atoms: C_20  and  O_22
REMARK    5  A    between atoms: O_22  and  C_23
REMARK    6  A    between atoms: C_23  and  C_24
REMARK    7  A    between atoms: N_26  and  C_27
REMARK    8  A    between atoms: C_32  and  C_33
REMARK                            x       y       z     vdW  Elec       q    Type
REMARK                         _______ _______ _______ _____ _____    ______ ____
ROOT
ATOM      1  C   UNL     1       3.595  11.959   2.992  0.00  0.00    -0.072 C 
ATOM      2  C   UNL     1       3.819  12.804   1.738  0.00  0.00    +0.037 C 
ATOM      3  C   UNL     1       3.869  11.915   0.519  0.00  0.00    +0.042 A 
ATOM      4  C   UNL     1       4.076  10.545   0.637  0.00  0.00    -0.028 A 
ATOM      5  C   UNL     1       4.130   9.754  -0.508  0.00  0.00    +0.071 A 
ATOM      6  C   UNL     1       3.957  10.386  -1.764  0.00  0.00    +0.015 A 
ATOM      7  C   UNL     1       3.993   9.659  -2.961  0.00  0.00    +0.011 A 
ATOM      8  C   UNL     1       3.821  10.307  -4.148  0.00  0.00    +0.001 A 
ATOM      9  C   UNL     1       3.609  11.684  -4.185  0.00  0.00    +0.002 A 
ATOM     10  C   UNL     1       3.568  12.419  -3.042  0.00  0.00    +0.028 A 
ATOM     11  C   UNL     1       3.743  11.786  -1.797  0.00  0.00    +0.072 A 
ATOM     12  N   UNL     1       3.710  12.480  -0.660  0.00  0.00    -0.251 NA
ATOM     13  C   UNL     1       4.255   9.877   1.974  0.00  0.00    -0.040 C 
ATOM     14  N   UNL     1       4.602  10.879   2.996  0.00  0.00    +0.385 N 
ATOM     15  H   UNL     1       5.522  11.277   2.777  0.00  0.00    -0.081 HD
ENDROOT
BRANCH   5  16
ATOM     16  C   UNL     1       4.356   8.297  -0.415  0.00  0.00    +0.341 C 
ATOM     17  O   UNL     1       5.487   7.855  -0.441  0.00  0.00    -0.245 OA
BRANCH  16  18
ATOM     18  O   UNL     1       3.308   7.458  -0.302  0.00  0.00    -0.452 OA
BRANCH  18  19
ATOM     19  C   UNL     1       3.605   6.040  -0.215  0.00  0.00    +0.328 C 
BRANCH  19  20
ATOM     20  C   UNL     1       2.319   5.264  -0.094  0.00  0.00    +0.255 C 
ATOM     21  O   UNL     1       1.256   5.849  -0.082  0.00  0.00    -0.272 OA
ATOM     22  N   UNL     1       2.349   3.920   0.001  0.00  0.00    -0.282 N 
ATOM     23  H   UNL     1       3.199   3.457   0.072  0.00  0.00    +0.155 HD
BRANCH  22  24
ATOM     24  C   UNL     1       1.159   3.194  -0.003  0.00  0.00    +0.052 A 
ATOM     25  C   UNL     1       0.022   3.722  -0.598  0.00  0.00    +0.044 A 
ATOM     26  C   UNL     1      -1.157   3.001  -0.601  0.00  0.00    +0.043 A 
ATOM     27  C   UNL     1      -1.212   1.745  -0.015  0.00  0.00    +0.021 A 
ATOM     28  C   UNL     1      -0.094   1.208   0.584  0.00  0.00    +0.022 A 
ATOM     29  C   UNL     1       1.105   1.925   0.594  0.00  0.00    +0.073 A 
ATOM     30 CL   UNL     1      -2.575   3.668  -1.347  0.00  0.00    -0.083 Cl
BRANCH  29  31
ATOM     31  C   UNL     1       2.272   1.369   1.211  0.00  0.00    +0.101 C 
ATOM     32  N   UNL     1       3.197   0.928   1.700  0.00  0.00    -0.191 NA
ENDBRANCH  29  31
ENDBRANCH  22  24
ENDBRANCH  19  20
ENDBRANCH  18  19
ENDBRANCH  16  18
ENDBRANCH   5  16
BRANCH  14  33
ATOM     33  C   UNL     1       4.658  10.242   4.332  0.00  0.00    -0.043 C 
BRANCH  33  37
ATOM     34  C   UNL     1       6.216  13.055   7.145  0.00  0.00    +0.000 A 
ATOM     35  C   UNL     1       4.852  12.975   6.930  0.00  0.00    +0.000 A 
ATOM     36  C   UNL     1       4.348  12.065   6.019  0.00  0.00    +0.002 A 
ATOM     37  C   UNL     1       5.208  11.235   5.324  0.00  0.00    -0.064 A 
ATOM     38  C   UNL     1       6.571  11.311   5.543  0.00  0.00    +0.002 A 
ATOM     39  C   UNL     1       7.075  12.225   6.449  0.00  0.00    +0.000 A 
ENDBRANCH  33  37
ENDBRANCH  14  33
TORSDOF 8
