REMARK  Name = ZINC00705997
REMARK  8 active torsions:
REMARK  status: ('A' for Active; 'I' for Inactive)
REMARK    1  A    between atoms: C_1  and  C_2
REMARK    2  A    between atoms: C_2  and  O_3
REMARK    3  A    between atoms: O_3  and  C_4
REMARK    4  A    between atoms: C_7  and  C_12
REMARK    5  A    between atoms: C_9  and  O_10
REMARK    6  A    between atoms: O_10  and  C_11
REMARK    7  A    between atoms: C_19  and  C_27
REMARK    8  A    between atoms: C_20  and  C_26
REMARK                            x       y       z     vdW  Elec       q    Type
REMARK                         _______ _______ _______ _____ _____    ______ ____
ROOT
ATOM      1  C   UNL     1       6.893  -2.308  -0.078  0.00  0.00    +0.028 C 
ATOM      2  C   UNL     1       5.554  -2.101  -0.168  0.00  0.00    +0.081 A 
ATOM      3  C   UNL     1       4.821  -0.879  -0.528  0.00  0.00    +0.272 A 
ATOM      4  O   UNL     1       5.411   0.149  -0.802  0.00  0.00    -0.266 OA
ATOM      5  N   UNL     1       3.481  -0.935  -0.545  0.00  0.00    -0.253 N 
ATOM      6  C   UNL     1       2.428  -0.042  -0.821  0.00  0.00    +0.078 A 
ATOM      7  C   UNL     1       2.400   1.290  -1.196  0.00  0.00    +0.032 A 
ATOM      8  C   UNL     1       1.186   1.917  -1.401  0.00  0.00    -0.045 A 
ATOM      9  C   UNL     1      -0.001   1.219  -1.234  0.00  0.00    -0.045 A 
ATOM     10  C   UNL     1       0.013  -0.107  -0.862  0.00  0.00    +0.033 A 
ATOM     11  C   UNL     1       1.234  -0.753  -0.650  0.00  0.00    +0.091 A 
ATOM     12  N   UNL     1       1.569  -2.019  -0.287  0.00  0.00    -0.221 NA
ATOM     13  C   UNL     1       2.866  -2.122  -0.227  0.00  0.00    +0.182 A 
ATOM     14  S   UNL     1       4.208  -3.239   0.119  0.00  0.00    -0.046 S 
ATOM     15  C   UNL     1      -1.316   1.916  -1.468  0.00  0.00    +0.044 C 
ATOM     16  C   UNL     1       1.151   3.367  -1.809  0.00  0.00    +0.044 C 
ENDROOT
BRANCH   1  20
ATOM     17  C   UNL     1       9.571   0.968  -0.402  0.00  0.00    +0.162 A 
ATOM     18  C   UNL     1       8.385   1.109   0.306  0.00  0.00    +0.050 A 
ATOM     19  C   UNL     1       7.512   0.049   0.414  0.00  0.00    +0.012 A 
ATOM     20  C   UNL     1       7.821  -1.176  -0.191  0.00  0.00    -0.020 A 
ATOM     21  C   UNL     1       9.020  -1.318  -0.901  0.00  0.00    +0.057 A 
ATOM     22  C   UNL     1       9.886  -0.248  -1.008  0.00  0.00    +0.162 A 
BRANCH  22  23
ATOM     23  O   UNL     1      11.048  -0.381  -1.700  0.00  0.00    -0.491 OA
ATOM     24  C   UNL     1      11.307  -1.654  -2.296  0.00  0.00    +0.277 C 
ENDBRANCH  22  23
BRANCH  17  25
ATOM     25  O   UNL     1      10.427   2.017  -0.504  0.00  0.00    -0.489 OA
BRANCH  25  27
ATOM     26  C   UNL     1      11.125   4.292  -0.082  0.00  0.00    +0.048 C 
ATOM     27  C   UNL     1      10.044   3.233   0.141  0.00  0.00    +0.226 C 
ENDBRANCH  25  27
ENDBRANCH  17  25
ENDBRANCH   1  20
TORSDOF 4
