REMARK  Name = ZINC41181292
REMARK  3 active torsions:
REMARK  status: ('A' for Active; 'I' for Inactive)
REMARK    1  A    between atoms: C_1  and  C_2
REMARK    2  A    between atoms: C_7  and  C_9
REMARK    3  A    between atoms: C_7  and  N_22
REMARK                            x       y       z     vdW  Elec       q    Type
REMARK                         _______ _______ _______ _____ _____    ______ ____
ROOT
ATOM      1  C   UNL     1       2.674  -1.459   2.329  0.00  0.00    +0.068 A 
ATOM      2  N   UNL     1       3.907  -1.650   2.734  0.00  0.00    -0.245 NA
ATOM      3  C   UNL     1       4.195  -2.475   3.727  0.00  0.00    +0.088 A 
ATOM      4  C   UNL     1       3.102  -3.107   4.289  0.00  0.00    +0.054 A 
ATOM      5  S   UNL     1       1.765  -2.454   3.344  0.00  0.00    -0.074 S 
ATOM      6  C   UNL     1       3.174  -4.072   5.416  0.00  0.00    +0.273 C 
ATOM      7  O   UNL     1       4.472  -4.682   5.422  0.00  0.00    -0.486 OA
ATOM      8  C   UNL     1       5.574  -3.933   5.169  0.00  0.00    +0.130 A 
ATOM      9  C   UNL     1       5.524  -2.820   4.316  0.00  0.00    +0.043 A 
ATOM     10  C   UNL     1       6.659  -2.078   4.043  0.00  0.00    +0.013 A 
ATOM     11  C   UNL     1       7.861  -2.432   4.631  0.00  0.00    +0.001 A 
ATOM     12  C   UNL     1       7.917  -3.520   5.484  0.00  0.00    +0.004 A 
ATOM     13  C   UNL     1       6.786  -4.266   5.754  0.00  0.00    +0.046 A 
ENDROOT
BRANCH   1  19
ATOM     14  C   UNL     1      -0.019   1.524   0.010  0.00  0.00    +0.007 C 
ATOM     15  C   UNL     1       0.002  -0.004   0.002  0.00  0.00    -0.015 C 
ATOM     16  C   UNL     1       0.627  -0.525  -1.285  0.00  0.00    +0.003 C 
ATOM     17  C   UNL     1       2.141  -0.325  -1.273  0.00  0.00    -0.001 C 
ATOM     18  C   UNL     1       2.734  -1.097  -0.096  0.00  0.00    -0.006 C 
ATOM     19  C   UNL     1       2.185  -0.560   1.223  0.00  0.00    -0.021 C 
ATOM     20  C   UNL     1       0.666  -0.561   1.247  0.00  0.00    -0.003 C 
BRANCH  19  21
ATOM     21  N   UNL     1       2.717   0.786   1.476  0.00  0.00    +0.386 N 
ATOM     22  H   UNL     1       2.443   1.403   0.727  0.00  0.00    -0.089 HD
ATOM     23  H   UNL     1       2.350   1.133   2.349  0.00  0.00    -0.089 HD
ATOM     24  H   UNL     1       3.724   0.745   1.528  0.00  0.00    -0.089 HD
ENDBRANCH  19  21
ENDBRANCH   1  19
TORSDOF 2
