REMARK  Name = ZINC23883162
REMARK  8 active torsions:
REMARK  status: ('A' for Active; 'I' for Inactive)
REMARK    1  A    between atoms: C_1  and  C_2
REMARK    2  A    between atoms: C_5  and  N_9
REMARK    3  A    between atoms: C_6  and  C_8
REMARK    4  A    between atoms: N_9  and  P_10
REMARK    5  A    between atoms: C_13  and  N_28
REMARK    6  A    between atoms: C_15  and  C_26
REMARK    7  A    between atoms: C_15  and  C_27
REMARK    8  A    between atoms: N_19  and  C_20
REMARK                            x       y       z     vdW  Elec       q    Type
REMARK                         _______ _______ _______ _____ _____    ______ ____
ROOT
ATOM      1  P   UNL     1       4.712   1.585  -0.289  0.00  0.00    +0.299 P 
ATOM      2  O   UNL     1       4.633   0.732   0.917  0.00  0.00    -0.272 OA
ATOM      3  C   UNL     1       6.330   2.402  -0.435  0.00  0.00    +0.086 C 
ATOM      4  C   UNL     1       6.969   3.285   0.310  0.00  0.00    +0.006 C 
ATOM      5  C   UNL     1       8.330   3.754  -0.166  0.00  0.00    +0.056 C 
ATOM      6  C   UNL     1       9.038   2.642  -0.935  0.00  0.00    -0.024 C 
ATOM      7  C   UNL     1       8.234   2.226  -2.174  0.00  0.00    +0.064 C 
ATOM      8  C   UNL     1       6.851   1.812  -1.693  0.00  0.00    +0.075 C 
ATOM      9  N   UNL     1       6.043   0.987  -2.239  0.00  0.00    -0.176 NA
ATOM     10  N   UNL     1       4.795   0.676  -1.685  0.00  0.00    -0.152 N 
ATOM     11  C   UNL     1       9.210   1.429  -0.019  0.00  0.00    +0.011 C 
ATOM     12  C   UNL     1      10.417   3.136  -1.375  0.00  0.00    +0.011 C 
ENDROOT
BRANCH   4  13
ATOM     13  N   UNL     1       6.416   3.765   1.483  0.00  0.00    -0.396 NA
ATOM     14  C   UNL     1       6.117   2.854   2.597  0.00  0.00    +0.085 C 
ATOM     15  C   UNL     1       6.796   3.394   3.865  0.00  0.00    +0.017 C 
ATOM     16  C   UNL     1       6.351   4.840   4.098  0.00  0.00    +0.003 C 
ATOM     17  C   UNL     1       6.785   5.707   2.914  0.00  0.00    +0.017 C 
ATOM     18  C   UNL     1       6.111   5.194   1.637  0.00  0.00    +0.085 C 
ATOM     19  H   UNL     1       6.910   3.393   0.573  0.00  0.00    +0.126 HD
ENDBRANCH   4  13
BRANCH  10  20
ATOM     20  C   UNL     1       3.835  -0.201  -2.188  0.00  0.00    +0.060 A 
ATOM     21  C   UNL     1       2.644  -0.401  -1.500  0.00  0.00    +0.025 A 
ATOM     22  C   UNL     1       1.694  -1.266  -2.004  0.00  0.00    +0.002 A 
ATOM     23  C   UNL     1       1.930  -1.942  -3.187  0.00  0.00    +0.000 A 
ATOM     24  C   UNL     1       3.116  -1.750  -3.873  0.00  0.00    +0.002 A 
ATOM     25  C   UNL     1       4.069  -0.882  -3.377  0.00  0.00    +0.025 A 
ENDBRANCH  10  20
BRANCH   1  26
ATOM     26  N   UNL     1       3.479   2.666  -0.342  0.00  0.00    -0.276 N 
ATOM     27  H   UNL     1       2.671   2.615   0.403  0.00  0.00    +0.155 HD
BRANCH  26  32
ATOM     28  C   UNL     1       3.381   6.662  -4.364  0.00  0.00    +0.044 C 
ATOM     29  C   UNL     1       3.408   5.600  -3.295  0.00  0.00    -0.050 A 
ATOM     30  C   UNL     1       4.190   4.472  -3.462  0.00  0.00    +0.005 A 
ATOM     31  C   UNL     1       4.216   3.497  -2.485  0.00  0.00    +0.024 A 
ATOM     32  C   UNL     1       3.455   3.650  -1.333  0.00  0.00    +0.037 A 
ATOM     33  C   UNL     1       2.671   4.785  -1.168  0.00  0.00    -0.029 A 
ATOM     34  C   UNL     1       2.650   5.756  -2.150  0.00  0.00    +0.008 A 
ATOM     35  C   UNL     1       1.844   4.955   0.081  0.00  0.00    +0.045 C 
ENDBRANCH  26  32
ENDBRANCH   1  26
TORSDOF 4
