REMARK  Name = ZINC12630922
REMARK  11 active torsions:
REMARK  status: ('A' for Active; 'I' for Inactive)
REMARK    1  A    between atoms: C_1  and  C_2
REMARK    2  A    between atoms: C_2  and  C_3
REMARK    3  A    between atoms: C_2  and  C_4
REMARK    4  A    between atoms: C_4  and  N_5
REMARK    5  A    between atoms: C_6  and  N_34
REMARK    6  A    between atoms: C_7  and  C_14
REMARK    7  A    between atoms: N_10  and  C_13
REMARK    8  A    between atoms: C_14  and  N_15
REMARK    9  A    between atoms: N_18  and  S_21
REMARK   10  A    between atoms: S_21  and  C_24
REMARK   11  A    between atoms: C_29  and  C_30
REMARK                            x       y       z     vdW  Elec       q    Type
REMARK                         _______ _______ _______ _____ _____    ______ ____
ROOT
ATOM      1  N   UNL     1      -1.159   3.443   0.870  0.00  0.00    -0.295 NA
ATOM      2  C   UNL     1      -0.959   2.007   1.110  0.00  0.00    +0.102 C 
ATOM      3  C   UNL     1      -0.162   1.404  -0.052  0.00  0.00    +0.125 C 
ATOM      4  N   UNL     1      -0.841   1.739  -1.312  0.00  0.00    -0.174 NA
ATOM      5  C   UNL     1      -1.194   3.145  -1.561  0.00  0.00    +0.125 C 
ATOM      6  C   UNL     1      -1.955   3.679  -0.342  0.00  0.00    +0.102 C 
ENDROOT
BRANCH   4   7
ATOM      7  S   UNL     1      -1.199   0.564  -2.423  0.00  0.00    +0.061 S 
ATOM      8  O   UNL     1      -1.436   1.230  -3.656  0.00  0.00    -0.153 OA
ATOM      9  O   UNL     1      -0.208  -0.445  -2.280  0.00  0.00    -0.153 OA
BRANCH   7  10
ATOM     10  C   UNL     1      -2.730  -0.161  -1.940  0.00  0.00    +0.117 A 
ATOM     11  C   UNL     1      -3.521   0.461  -0.991  0.00  0.00    +0.029 A 
ATOM     12  C   UNL     1      -4.724  -0.106  -0.615  0.00  0.00    +0.002 A 
ATOM     13  C   UNL     1      -5.132  -1.300  -1.181  0.00  0.00    +0.001 A 
ATOM     14  C   UNL     1      -4.340  -1.924  -2.125  0.00  0.00    +0.014 A 
ATOM     15  C   UNL     1      -3.138  -1.355  -2.505  0.00  0.00    +0.081 A 
BRANCH  15  16
ATOM     16  C   UNL     1      -2.274  -2.035  -3.534  0.00  0.00    +0.419 C 
ATOM     17  F   UNL     1      -2.952  -3.143  -4.054  0.00  0.00    -0.166 F 
ATOM     18  F   UNL     1      -1.985  -1.138  -4.568  0.00  0.00    -0.166 F 
ATOM     19  F   UNL     1      -1.081  -2.458  -2.937  0.00  0.00    -0.166 F 
ENDBRANCH  15  16
ENDBRANCH   7  10
ENDBRANCH   4   7
BRANCH   1  20
ATOM     20  C   UNL     1      -1.771   4.091   2.037  0.00  0.00    +0.128 C 
BRANCH  20  23
ATOM     21  N   UNL     1       0.878   5.024   4.529  0.00  0.00    -0.281 N 
ATOM     22  C   UNL     1       0.019   5.092   3.459  0.00  0.00    +0.110 A 
ATOM     23  C   UNL     1      -0.815   4.040   3.200  0.00  0.00    +0.069 A 
ATOM     24  C   UNL     1      -0.762   2.909   4.029  0.00  0.00    +0.263 A 
ATOM     25  O   UNL     1      -1.492   1.956   3.814  0.00  0.00    -0.267 OA
ATOM     26  N   UNL     1       0.100   2.881   5.065  0.00  0.00    -0.264 N 
ATOM     27  C   UNL     1       0.909   3.928   5.309  0.00  0.00    +0.333 A 
ATOM     28  O   UNL     1       1.680   3.883   6.248  0.00  0.00    -0.246 OA
ATOM     29  C   UNL     1       0.157   1.702   5.932  0.00  0.00    +0.157 C 
BRANCH  22  30
ATOM     30  N   UNL     1      -0.006   6.207   2.662  0.00  0.00    -0.344 N 
ATOM     31  H   UNL     1      -0.697   6.257   1.807  0.00  0.00    +0.144 HD
ATOM     32  H   UNL     1       0.663   7.053   2.877  0.00  0.00    +0.144 HD
ENDBRANCH  22  30
BRANCH  21  33
ATOM     33  C   UNL     1       1.771   6.149   4.818  0.00  0.00    +0.131 C 
BRANCH  33  35
ATOM     34  C   UNL     1       2.830   6.027   2.558  0.00  0.00    +0.009 C 
ATOM     35  C   UNL     1       3.090   5.961   4.065  0.00  0.00    +0.003 C 
ATOM     36  C   UNL     1       4.067   7.069   4.463  0.00  0.00    +0.009 C 
ENDBRANCH  33  35
ENDBRANCH  21  33
ENDBRANCH  20  23
ENDBRANCH   1  20
TORSDOF 8
