REMARK  Name = ZINC65404703
REMARK  6 active torsions:
REMARK  status: ('A' for Active; 'I' for Inactive)
REMARK    1  A    between atoms: C_6  and  C_11
REMARK    2  A    between atoms: N_15  and  C_20
REMARK    3  A    between atoms: C_17  and  O_19
REMARK    4  A    between atoms: C_20  and  C_21
REMARK    5  A    between atoms: C_24  and  C_26
REMARK    6  A    between atoms: C_26  and  O_27
REMARK                            x       y       z     vdW  Elec       q    Type
REMARK                         _______ _______ _______ _____ _____    ______ ____
ROOT
ATOM      1  C   UNL     1       5.008  -2.700  -0.060  0.00  0.00    +0.044 C 
ATOM      2  C   UNL     1       5.096  -3.576  -1.313  0.00  0.00    -0.008 C 
ATOM      3  C   UNL     1       6.404  -4.369  -1.284  0.00  0.00    -0.077 C 
ATOM      4  N   UNL     1       6.439  -5.219  -0.088  0.00  0.00    +0.386 N 
ATOM      5  C   UNL     1       6.428  -4.382   1.118  0.00  0.00    -0.046 C 
ATOM      6  C   UNL     1       5.121  -3.589   1.182  0.00  0.00    +0.105 C 
ATOM      7  H   UNL     1       5.633  -5.825  -0.084  0.00  0.00    -0.081 HD
ENDROOT
BRANCH   1  13
ATOM      8  C   UNL     1      -0.016   1.357   0.009  0.00  0.00    +0.001 A 
ATOM      9  C   UNL     1       1.169   2.091   0.002  0.00  0.00    +0.001 A 
ATOM     10  C   UNL     1       2.378   1.468  -0.013  0.00  0.00    +0.008 A 
ATOM     11  C   UNL     1       2.438   0.063  -0.021  0.00  0.00    -0.018 A 
ATOM     12  C   UNL     1       3.668  -0.615  -0.036  0.00  0.00    +0.012 A 
ATOM     13  C   UNL     1       3.687  -1.976  -0.043  0.00  0.00    -0.041 A 
ATOM     14  C   UNL     1       2.502  -2.710  -0.036  0.00  0.00    +0.004 A 
ATOM     15  C   UNL     1       1.292  -2.087  -0.021  0.00  0.00    +0.009 A 
ATOM     16  C   UNL     1       1.233  -0.683  -0.013  0.00  0.00    -0.018 A 
ATOM     17  C   UNL     1       0.002  -0.004   0.002  0.00  0.00    +0.008 A 
ENDBRANCH   1  13
BRANCH   6  18
ATOM     18  O   UNL     1       5.114  -2.772   2.355  0.00  0.00    -0.393 OA
ATOM     19  H   UNL     1       5.183  -3.270   3.181  0.00  0.00    +0.210 HD
ENDBRANCH   6  18
BRANCH   4  20
ATOM     20  C   UNL     1       7.661  -6.035  -0.105  0.00  0.00    -0.003 C 
BRANCH  20  21
ATOM     21  C   UNL     1       7.612  -6.988  -1.271  0.00  0.00    +0.089 A 
ATOM     22  C   UNL     1       8.081  -6.742  -2.507  0.00  0.00    +0.043 A 
ATOM     23  C   UNL     1       7.831  -7.901  -3.278  0.00  0.00    +0.047 A 
ATOM     24  C   UNL     1       7.224  -8.785  -2.466  0.00  0.00    +0.130 A 
ATOM     25  O   UNL     1       7.099  -8.229  -1.250  0.00  0.00    -0.464 OA
BRANCH  24  26
ATOM     26  C   UNL     1       6.766 -10.168  -2.854  0.00  0.00    +0.230 C 
BRANCH  26  27
ATOM     27  O   UNL     1       7.821 -11.102  -2.621  0.00  0.00    -0.387 OA
ATOM     28  H   UNL     1       7.596 -12.014  -2.848  0.00  0.00    +0.210 HD
ENDBRANCH  26  27
ENDBRANCH  24  26
ENDBRANCH  20  21
ENDBRANCH   4  20
TORSDOF 6
