REMARK  Name = ZINC39635689
REMARK  5 active torsions:
REMARK  status: ('A' for Active; 'I' for Inactive)
REMARK    1  A    between atoms: C_1  and  C_2
REMARK    2  A    between atoms: C_5  and  C_8
REMARK    3  A    between atoms: C_12  and  C_21
REMARK    4  A    between atoms: N_23  and  C_24
REMARK    5  A    between atoms: C_30  and  C_32
REMARK                            x       y       z     vdW  Elec       q    Type
REMARK                         _______ _______ _______ _____ _____    ______ ____
ROOT
ATOM      1  C   UNL     1       0.058  -4.248  -0.020  0.00  0.00    +0.247 C 
ATOM      2  O   UNL     1      -0.047  -4.851  -1.071  0.00  0.00    -0.270 OA
ATOM      3  N   UNL     1       0.175  -4.927   1.138  0.00  0.00    -0.296 N 
ATOM      4  C   UNL     1       0.185  -4.380   2.515  0.00  0.00    +0.121 C 
ATOM      5  C   UNL     1      -0.633  -5.396   3.344  0.00  0.00    +0.100 C 
ATOM      6  C   UNL     1      -0.536  -6.713   2.557  0.00  0.00    -0.004 C 
ATOM      7  C   UNL     1       0.317  -6.391   1.322  0.00  0.00    +0.115 C 
ATOM      8  C   UNL     1      -1.925  -7.174   2.125  0.00  0.00    -0.010 C 
ATOM      9  C   UNL     1      -1.809  -8.514   1.394  0.00  0.00    -0.082 C 
ATOM     10  N   UNL     1      -1.197  -9.508   2.285  0.00  0.00    +0.379 N 
ATOM     11  C   UNL     1       0.173  -9.102   2.621  0.00  0.00    -0.082 C 
ATOM     12  C   UNL     1       0.141  -7.787   3.404  0.00  0.00    -0.010 C 
ATOM     13  H   UNL     1      -1.742  -9.580   3.131  0.00  0.00    -0.086 HD
ATOM     14  H   UNL     1      -1.177 -10.405   1.823  0.00  0.00    -0.086 HD
ENDROOT
BRANCH   1  19
ATOM     15  C   UNL     1       0.053   1.507   0.008  0.00  0.00    +0.044 C 
ATOM     16  C   UNL     1       0.055  -0.000   0.001  0.00  0.00    -0.050 A 
ATOM     17  C   UNL     1      -0.550  -0.684  -1.039  0.00  0.00    +0.004 A 
ATOM     18  C   UNL     1      -0.552  -2.064  -1.052  0.00  0.00    +0.013 A 
ATOM     19  C   UNL     1       0.057  -2.769  -0.013  0.00  0.00    +0.037 A 
ATOM     20  C   UNL     1       0.666  -2.073   1.032  0.00  0.00    +0.013 A 
ATOM     21  C   UNL     1       0.666  -0.694   1.030  0.00  0.00    +0.004 A 
ENDBRANCH   1  19
BRANCH   5  22
ATOM     22  C   UNL     1      -0.032  -5.556   4.717  0.00  0.00    +0.218 C 
ATOM     23  O   UNL     1       1.144  -5.323   4.895  0.00  0.00    -0.275 OA
ATOM     24  N   UNL     1      -0.803  -5.960   5.746  0.00  0.00    -0.312 N 
ATOM     25  H   UNL     1      -1.744  -6.147   5.604  0.00  0.00    +0.149 HD
BRANCH  24  26
ATOM     26  C   UNL     1      -0.219  -6.116   7.081  0.00  0.00    +0.076 C 
ATOM     27  C   UNL     1      -0.221  -4.766   7.800  0.00  0.00    +0.022 C 
ATOM     28  C   UNL     1       0.389  -4.929   9.194  0.00  0.00    +0.002 C 
ATOM     29  C   UNL     1      -0.437  -5.936   9.997  0.00  0.00    +0.000 C 
ATOM     30  C   UNL     1      -0.435  -7.287   9.278  0.00  0.00    +0.005 C 
ATOM     31  C   UNL     1      -1.045  -7.123   7.884  0.00  0.00    +0.006 C 
ATOM     32  C   UNL     1      -1.043  -8.474   7.165  0.00  0.00    +0.009 C 
ENDBRANCH  24  26
ENDBRANCH   5  22
TORSDOF 3
