REMARK  Name = ZINC05797756
REMARK  7 active torsions:
REMARK  status: ('A' for Active; 'I' for Inactive)
REMARK    1  A    between atoms: C_1  and  C_2
REMARK    2  A    between atoms: C_6  and  N_9
REMARK    3  A    between atoms: C_7  and  C_8
REMARK    4  A    between atoms: C_15  and  C_16
REMARK    5  A    between atoms: C_19  and  O_22
REMARK    6  A    between atoms: O_22  and  C_23
REMARK    7  A    between atoms: C_23  and  C_24
REMARK                            x       y       z     vdW  Elec       q    Type
REMARK                         _______ _______ _______ _____ _____    ______ ____
ROOT
ATOM      1  N   UNL     1       9.884   1.961   0.360  0.00  0.00    -0.295 N 
ATOM      2  C   UNL     1       8.554   2.264   0.220  0.00  0.00    +0.156 C 
ATOM      3  N   UNL     1       7.531   1.434   0.097  0.00  0.00    -0.154 NA
ATOM      4  C   UNL     1       6.292   1.855  -0.027  0.00  0.00    +0.276 C 
ATOM      5  O   UNL     1       5.356   1.079  -0.134  0.00  0.00    -0.267 OA
ATOM      6  C   UNL     1       6.095   3.323  -0.036  0.00  0.00    +0.079 C 
ATOM      7  C   UNL     1       4.952   4.046  -0.151  0.00  0.00    +0.028 C 
ATOM      8  S   UNL     1       7.785   3.875   0.156  0.00  0.00    -0.051 S 
ATOM      9  H   UNL     1      10.529   2.669   0.513  0.00  0.00    +0.154 HD
ENDROOT
BRANCH   1  15
ATOM     10  C   UNL     1      13.556  -1.304   0.222  0.00  0.00    +0.044 C 
ATOM     11  C   UNL     1      12.084  -0.981   0.216  0.00  0.00    -0.046 A 
ATOM     12  C   UNL     1      11.152  -2.000   0.135  0.00  0.00    +0.004 A 
ATOM     13  C   UNL     1       9.801  -1.707   0.129  0.00  0.00    +0.002 A 
ATOM     14  C   UNL     1       9.377  -0.395   0.209  0.00  0.00    +0.023 A 
ATOM     15  C   UNL     1      10.310   0.631   0.285  0.00  0.00    +0.036 A 
ATOM     16  C   UNL     1      11.667   0.334   0.291  0.00  0.00    -0.026 A 
ATOM     17  C   UNL     1      12.682   1.444   0.379  0.00  0.00    +0.046 C 
ENDBRANCH   1  15
BRANCH   7  18
ATOM     18  C   UNL     1       3.688   3.375  -0.478  0.00  0.00    -0.024 A 
ATOM     19  C   UNL     1       3.662   2.357  -1.440  0.00  0.00    +0.011 A 
ATOM     20  C   UNL     1       2.474   1.731  -1.743  0.00  0.00    +0.046 A 
ATOM     21  C   UNL     1       1.302   2.108  -1.098  0.00  0.00    +0.121 A 
ATOM     22  C   UNL     1       1.321   3.122  -0.146  0.00  0.00    +0.046 A 
ATOM     23  C   UNL     1       2.505   3.750   0.169  0.00  0.00    +0.011 A 
BRANCH  21  24
ATOM     24  O   UNL     1       0.133   1.488  -1.401  0.00  0.00    -0.488 OA
BRANCH  24  25
ATOM     25  C   UNL     1      -1.034   1.924  -0.701  0.00  0.00    +0.256 C 
BRANCH  25  26
ATOM     26  C   UNL     1      -2.226   1.128  -1.166  0.00  0.00    +0.006 C 
ATOM     27  C   UNL     1      -3.074   0.647  -0.291  0.00  0.00    +0.007 C 
ENDBRANCH  25  26
ENDBRANCH  24  25
ENDBRANCH  21  24
ENDBRANCH   7  18
TORSDOF 5
