REMARK  Name = ZINC59681018
REMARK  6 active torsions:
REMARK  status: ('A' for Active; 'I' for Inactive)
REMARK    1  A    between atoms: C_1  and  C_2
REMARK    2  A    between atoms: C_5  and  N_8
REMARK    3  A    between atoms: C_9  and  C_19
REMARK    4  A    between atoms: N_12  and  C_18
REMARK    5  A    between atoms: C_13  and  C_15
REMARK    6  A    between atoms: C_15  and  C_17
REMARK                            x       y       z     vdW  Elec       q    Type
REMARK                         _______ _______ _______ _____ _____    ______ ____
ROOT
ATOM      1  N   UNL     1       0.057  -4.166  -0.021  0.00  0.00    -0.200 N 
ATOM      2  C   UNL     1       0.067  -4.929   1.237  0.00  0.00    +0.212 C 
ATOM      3  N   UNL     1      -0.868  -6.060   1.085  0.00  0.00    -0.213 NA
ATOM      4  N   UNL     1      -0.519  -6.805  -0.011  0.00  0.00    -0.248 N 
ATOM      5  C   UNL     1      -0.218  -6.162  -1.219  0.00  0.00    +0.195 C 
ATOM      6  N   UNL     1       0.060  -4.882  -1.231  0.00  0.00    -0.158 NA
ATOM      7  C   UNL     1      -0.462  -8.266   0.080  0.00  0.00    +0.151 C 
ATOM      8  H   UNL     1      -1.820  -5.734   1.012  0.00  0.00    +0.147 HD
ENDROOT
BRANCH   1  13
ATOM      9  C   UNL     1      -0.018   1.503   0.010  0.00  0.00    +0.044 C 
ATOM     10  C   UNL     1       0.002  -0.004   0.002  0.00  0.00    -0.050 A 
ATOM     11  C   UNL     1       0.006  -0.687  -1.200  0.00  0.00    +0.005 A 
ATOM     12  C   UNL     1       0.024  -2.068  -1.212  0.00  0.00    +0.025 A 
ATOM     13  C   UNL     1       0.039  -2.771  -0.013  0.00  0.00    +0.054 A 
ATOM     14  C   UNL     1       0.036  -2.081   1.193  0.00  0.00    +0.025 A 
ATOM     15  C   UNL     1       0.023  -0.700   1.197  0.00  0.00    +0.005 A 
ENDBRANCH   1  13
BRANCH   2  16
ATOM     16  C   UNL     1       1.456  -5.447   1.509  0.00  0.00    -0.010 A 
ATOM     17  C   UNL     1       2.557  -4.738   1.066  0.00  0.00    +0.008 A 
ATOM     18  C   UNL     1       3.831  -5.213   1.315  0.00  0.00    +0.020 A 
ATOM     19  C   UNL     1       4.005  -6.398   2.007  0.00  0.00    +0.041 A 
ATOM     20  C   UNL     1       2.902  -7.107   2.450  0.00  0.00    +0.020 A 
ATOM     21  C   UNL     1       1.629  -6.629   2.205  0.00  0.00    +0.008 A 
ATOM     22 CL   UNL     1       5.604  -6.995   2.320  0.00  0.00    -0.084 Cl
ENDBRANCH   2  16
BRANCH   5  23
ATOM     23  C   UNL     1      -0.222  -6.896  -2.430  0.00  0.00    +0.195 C 
ATOM     24  O   UNL     1      -0.485  -8.081  -2.420  0.00  0.00    -0.289 OA
ATOM     25  C   UNL     1       0.102  -6.206  -3.730  0.00  0.00    +0.095 C 
ENDBRANCH   5  23
TORSDOF 3
