REMARK  Name = ZINC24831394
REMARK  6 active torsions:
REMARK  status: ('A' for Active; 'I' for Inactive)
REMARK    1  A    between atoms: C_1  and  C_2
REMARK    2  A    between atoms: C_3  and  C_27
REMARK    3  A    between atoms: C_4  and  C_26
REMARK    4  A    between atoms: C_7  and  C_8
REMARK    5  A    between atoms: C_13  and  C_16
REMARK    6  A    between atoms: C_27  and  C_29
REMARK                            x       y       z     vdW  Elec       q    Type
REMARK                         _______ _______ _______ _____ _____    ______ ____
ROOT
ATOM      1  C   UNL     1      -0.421  -0.418   2.462  0.00  0.00    +0.266 C 
ATOM      2  O   UNL     1      -0.494   0.766   2.733  0.00  0.00    -0.268 OA
ATOM      3  N   UNL     1      -0.565  -1.342   3.432  0.00  0.00    -0.259 N 
ATOM      4  C   UNL     1      -0.797  -0.943   4.742  0.00  0.00    +0.165 A 
ATOM      5  N   UNL     1      -0.956  -1.695   5.810  0.00  0.00    -0.229 NA
ATOM      6  C   UNL     1      -1.170  -1.158   6.997  0.00  0.00    +0.057 A 
ATOM      7  C   UNL     1      -1.217   0.195   7.061  0.00  0.00    +0.072 A 
ATOM      8  S   UNL     1      -0.934   0.620   5.351  0.00  0.00    -0.060 S 
ATOM      9  H   UNL     1      -0.507  -2.286   3.216  0.00  0.00    +0.157 HD
ENDROOT
BRANCH   6  10
ATOM     10  C   UNL     1      -1.353  -2.012   8.225  0.00  0.00    +0.014 C 
ATOM     11  C   UNL     1      -2.539  -1.487   9.038  0.00  0.00    +0.016 C 
ATOM     12  C   UNL     1      -2.726  -2.354  10.285  0.00  0.00    -0.010 C 
ATOM     13  C   UNL     1      -2.995  -3.800   9.866  0.00  0.00    +0.007 C 
ATOM     14  C   UNL     1      -1.809  -4.325   9.053  0.00  0.00    -0.010 C 
ATOM     15  C   UNL     1      -1.623  -3.458   7.806  0.00  0.00    +0.016 C 
ATOM     16  C   UNL     1      -0.541  -4.269   9.907  0.00  0.00    +0.007 C 
ATOM     17  C   UNL     1      -0.272  -2.822  10.327  0.00  0.00    -0.010 C 
ATOM     18  C   UNL     1      -1.458  -2.298  11.139  0.00  0.00    +0.007 C 
ATOM     19  C   UNL     1      -0.085  -1.956   9.080  0.00  0.00    +0.016 C 
ENDBRANCH   6  10
BRANCH   1  26
ATOM     20  C   UNL     1      -0.050   1.496   0.028  0.00  0.00    +0.047 C 
ATOM     21  C   UNL     1      -0.013  -0.011   0.008  0.00  0.00    -0.010 A 
ATOM     22  C   UNL     1       0.204  -0.833  -1.123  0.00  0.00    +0.041 A 
ATOM     23  C   UNL     1       0.156  -2.147  -0.684  0.00  0.00    +0.024 A 
ATOM     24  N   UNL     1      -0.076  -2.142   0.637  0.00  0.00    -0.354 N 
ATOM     25  H   UNL     1      -0.157  -2.932   1.195  0.00  0.00    +0.166 HD
ATOM     26  C   UNL     1      -0.176  -0.840   1.077  0.00  0.00    +0.106 A 
ATOM     27  C   UNL     1       0.334  -3.372  -1.544  0.00  0.00    +0.064 C 
BRANCH  22  28
ATOM     28  C   UNL     1       0.434  -0.381  -2.499  0.00  0.00    +0.162 C 
ATOM     29  O   UNL     1      -0.507  -0.185  -3.239  0.00  0.00    -0.292 OA
ATOM     30  C   UNL     1       1.840  -0.160  -2.994  0.00  0.00    +0.091 C 
ENDBRANCH  22  28
ENDBRANCH   1  26
TORSDOF 3
