REMARK  Name = ZINC04147894
REMARK  10 active torsions:
REMARK  status: ('A' for Active; 'I' for Inactive)
REMARK    1  A    between atoms: C_1  and  N_2
REMARK    2  A    between atoms: N_2  and  C_3
REMARK    3  A    between atoms: N_2  and  C_4
REMARK    4  A    between atoms: C_7  and  C_10
REMARK    5  A    between atoms: C_10  and  N_63
REMARK    6  A    between atoms: C_11  and  N_63
REMARK    7  A    between atoms: C_21  and  N_23
REMARK    8  A    between atoms: C_24  and  O_28
REMARK    9  A    between atoms: O_28  and  C_29
REMARK   10  A    between atoms: C_32  and  N_35
REMARK                            x       y       z     vdW  Elec       q    Type
REMARK                         _______ _______ _______ _____ _____    ______ ____
ROOT
ATOM      1  C   UNL     1      12.449  -1.905  -1.040  0.00  0.00    -0.013 C 
ATOM      2  C   UNL     1      12.076  -0.795  -2.047  0.00  0.00    +0.147 C 
ATOM      3  O   UNL     1      10.888  -0.183  -1.500  0.00  0.00    -0.373 OA
ATOM      4  C   UNL     1      10.095  -1.280  -1.005  0.00  0.00    +0.172 C 
ATOM      5  C   UNL     1      11.119  -2.224  -0.316  0.00  0.00    +0.137 C 
ATOM      6  O   UNL     1      11.220  -1.756   1.037  0.00  0.00    -0.373 OA
ATOM      7  C   UNL     1       9.980  -1.161   1.431  0.00  0.00    +0.190 C 
ATOM      8  C   UNL     1       9.206  -0.795   0.154  0.00  0.00    +0.171 C 
ENDROOT
BRANCH   8   9
ATOM      9  N   UNL     1       7.913  -1.484   0.127  0.00  0.00    -0.187 N 
ATOM     10  C   UNL     1       6.687  -0.924   0.029  0.00  0.00    +0.342 A 
ATOM     11  N   UNL     1       5.812  -1.903   0.047  0.00  0.00    -0.071 NA
ATOM     12  N   UNL     1       6.406  -3.038   0.140  0.00  0.00    -0.020 NA
ATOM     13  N   UNL     1       7.683  -2.869   0.197  0.00  0.00    -0.041 NA
BRANCH  10  14
ATOM     14  O   UNL     1       6.412   0.399  -0.065  0.00  0.00    -0.423 OA
BRANCH  14  15
ATOM     15  C   UNL     1       5.108   0.782  -0.049  0.00  0.00    +0.132 A 
ATOM     16  C   UNL     1       4.113  -0.153   0.197  0.00  0.00    +0.048 A 
ATOM     17  C   UNL     1       2.788   0.236   0.213  0.00  0.00    +0.030 A 
ATOM     18  C   UNL     1       2.452   1.563  -0.016  0.00  0.00    +0.048 A 
ATOM     19  C   UNL     1       3.447   2.497  -0.268  0.00  0.00    +0.030 A 
ATOM     20  C   UNL     1       4.772   2.108  -0.279  0.00  0.00    +0.048 A 
BRANCH  18  21
ATOM     21  N   UNL     1       1.105   1.959   0.001  0.00  0.00    -0.306 N 
ATOM     22  C   UNL     1       0.626   3.226  -0.208  0.00  0.00    +0.112 A 
ATOM     23  C   UNL     1      -0.714   3.159  -0.097  0.00  0.00    +0.130 A 
ATOM     24  N   UNL     1      -1.050   1.887   0.163  0.00  0.00    -0.244 NA
ATOM     25  C   UNL     1       0.032   1.159   0.227  0.00  0.00    +0.204 A 
ENDBRANCH  18  21
ENDBRANCH  14  15
ENDBRANCH  10  14
ENDBRANCH   8   9
BRANCH   1  26
ATOM     26  N   UNL     1      12.941  -3.102  -1.749  0.00  0.00    +0.387 N 
ATOM     27  H   UNL     1      12.706  -3.939  -1.203  0.00  0.00    -0.085 HD
ATOM     28  H   UNL     1      12.492  -3.158  -2.671  0.00  0.00    -0.085 HD
BRANCH  26  29
ATOM     29  C   UNL     1      14.404  -3.028  -1.923  0.00  0.00    -0.046 C 
BRANCH  29  33
ATOM     30  C   UNL     1      15.747  -6.525  -3.981  0.00  0.00    +0.029 A 
ATOM     31  C   UNL     1      15.375  -5.395  -4.698  0.00  0.00    +0.023 A 
ATOM     32  C   UNL     1      14.941  -4.267  -4.030  0.00  0.00    +0.003 A 
ATOM     33  C   UNL     1      14.877  -4.261  -2.648  0.00  0.00    -0.064 A 
ATOM     34  C   UNL     1      15.252  -5.382  -1.931  0.00  0.00    +0.003 A 
ATOM     35  C   UNL     1      15.681  -6.516  -2.593  0.00  0.00    +0.023 A 
BRANCH  30  37
ATOM     36  C   UNL     1      16.354  -7.642  -6.108  0.00  0.00    +0.129 C 
ATOM     37  N   UNL     1      16.186  -7.668  -4.653  0.00  0.00    -0.336 N 
ATOM     38  C   UNL     1      16.479  -8.892  -3.903  0.00  0.00    +0.129 C 
ENDBRANCH  30  37
ENDBRANCH  29  33
ENDBRANCH  26  29
ENDBRANCH   1  26
TORSDOF 8
