REMARK  Name = ZINC03152332
REMARK  7 active torsions:
REMARK  status: ('A' for Active; 'I' for Inactive)
REMARK    1  A    between atoms: C_1  and  C_2
REMARK    2  A    between atoms: C_2  and  C_4
REMARK    3  A    between atoms: C_7  and  N_10
REMARK    4  A    between atoms: C_11  and  C_12
REMARK    5  A    between atoms: C_14  and  C_23
REMARK    6  A    between atoms: C_14  and  C_24
REMARK    7  A    between atoms: N_21  and  C_22
REMARK                            x       y       z     vdW  Elec       q    Type
REMARK                         _______ _______ _______ _____ _____    ______ ____
ROOT
ATOM      1  C   UNL     1      -4.810   2.655   0.039  0.00  0.00    +0.039 C 
ATOM      2  C   UNL     1      -3.461   2.556   0.032  0.00  0.00    +0.022 C 
ATOM      3  C   UNL     1      -2.650   1.277   0.021  0.00  0.00    +0.030 C 
ATOM      4  C   UNL     1      -1.214   1.749   0.017  0.00  0.00    -0.015 A 
ATOM      5  C   UNL     1      -0.013   1.076   0.008  0.00  0.00    +0.006 A 
ATOM      6  C   UNL     1       1.176   1.784   0.000  0.00  0.00    +0.000 A 
ATOM      7  C   UNL     1       1.153   3.167   0.008  0.00  0.00    +0.002 A 
ATOM      8  C   UNL     1      -0.049   3.844   0.023  0.00  0.00    +0.024 A 
ATOM      9  C   UNL     1      -1.251   3.137   0.031  0.00  0.00    +0.038 A 
ATOM     10  N   UNL     1      -2.569   3.589   0.046  0.00  0.00    -0.306 N 
ATOM     11  C   UNL     1      -2.951   5.003   0.058  0.00  0.00    +0.135 C 
ATOM     12  C   UNL     1      -2.950   0.464  -1.239  0.00  0.00    +0.022 C 
ATOM     13  C   UNL     1      -2.938   0.450   1.276  0.00  0.00    +0.022 C 
ENDROOT
BRANCH   1  15
ATOM     14  N   UNL     1      -6.911   1.589   0.043  0.00  0.00    -0.256 NA
ATOM     15  C   UNL     1      -5.601   1.492   0.037  0.00  0.00    +0.113 C 
BRANCH  14  19
ATOM     16  C   UNL     1      -9.231  -1.824   0.036  0.00  0.00    +0.017 A 
ATOM     17  C   UNL     1      -9.542  -0.766   0.902  0.00  0.00    +0.013 A 
ATOM     18  C   UNL     1      -8.776   0.362   0.904  0.00  0.00    +0.028 A 
ATOM     19  C   UNL     1      -7.676   0.463   0.041  0.00  0.00    +0.064 A 
ATOM     20  C   UNL     1      -7.368  -0.592  -0.829  0.00  0.00    +0.028 A 
ATOM     21  C   UNL     1      -8.131  -1.722  -0.828  0.00  0.00    +0.013 A 
BRANCH  16  23
ATOM     22  C   UNL     1      -9.720  -4.174  -0.897  0.00  0.00    +0.091 C 
ATOM     23  C   UNL     1     -10.055  -3.037   0.034  0.00  0.00    +0.160 C 
ATOM     24  O   UNL     1     -11.006  -3.125   0.782  0.00  0.00    -0.292 OA
ENDBRANCH  16  23
ENDBRANCH  14  19
ENDBRANCH   1  15
TORSDOF 3
