REMARK  Name = ZINC11225983
REMARK  7 active torsions:
REMARK  status: ('A' for Active; 'I' for Inactive)
REMARK    1  A    between atoms: C_4  and  C_7
REMARK    2  A    between atoms: C_7  and  C_9
REMARK    3  A    between atoms: C_7  and  O_22
REMARK    4  A    between atoms: N_11  and  C_12
REMARK    5  A    between atoms: C_15  and  N_19
REMARK    6  A    between atoms: O_22  and  C_23
REMARK    7  A    between atoms: C_23  and  C_25
REMARK                            x       y       z     vdW  Elec       q    Type
REMARK                         _______ _______ _______ _____ _____    ______ ____
ROOT
ATOM      1  C   UNL     1       2.368   1.121   0.001  0.00  0.00    +0.292 C 
ENDROOT
BRANCH   1   5
ATOM      2  C   UNL     1       3.509   0.368  -4.046  0.00  0.00    +0.000 A 
ATOM      3  C   UNL     1       3.652  -0.622  -3.092  0.00  0.00    +0.000 A 
ATOM      4  C   UNL     1       3.283  -0.378  -1.782  0.00  0.00    +0.008 A 
ATOM      5  C   UNL     1       2.771   0.855  -1.427  0.00  0.00    +0.002 A 
ATOM      6  C   UNL     1       2.623   1.844  -2.382  0.00  0.00    +0.008 A 
ATOM      7  C   UNL     1       2.996   1.601  -3.691  0.00  0.00    +0.000 A 
ENDBRANCH   1   5
BRANCH   1   8
ATOM      8  C   UNL     1       3.459   1.895   0.695  0.00  0.00    +0.263 C 
ATOM      9  O   UNL     1       3.224   2.989   1.161  0.00  0.00    -0.271 OA
ATOM     10  N   UNL     1       4.696   1.370   0.798  0.00  0.00    -0.281 N 
ATOM     11  H   UNL     1       4.868   0.469   0.484  0.00  0.00    +0.155 HD
BRANCH  10  12
ATOM     12  C   UNL     1       5.732   2.126   1.358  0.00  0.00    +0.048 A 
ATOM     13  C   UNL     1       5.467   3.008   2.397  0.00  0.00    +0.026 A 
ATOM     14  C   UNL     1       6.491   3.753   2.948  0.00  0.00    +0.034 A 
ATOM     15  C   UNL     1       7.781   3.621   2.466  0.00  0.00    +0.127 A 
ATOM     16  C   UNL     1       8.049   2.743   1.432  0.00  0.00    +0.049 A 
ATOM     17  C   UNL     1       7.030   1.991   0.880  0.00  0.00    +0.041 A 
ATOM     18 BR   UNL     1       7.399   0.785  -0.529  0.00  0.00    -0.048 Br
BRANCH  15  19
ATOM     19  N   UNL     1       8.876   4.420   3.059  0.00  0.00    +0.056 N 
ATOM     20  O   UNL     1       8.641   5.194   3.970  0.00  0.00    -0.126 OA
ATOM     21  O   UNL     1      10.012   4.305   2.636  0.00  0.00    -0.126 OA
ENDBRANCH  15  19
ENDBRANCH  10  12
ENDBRANCH   1   8
BRANCH   1  22
ATOM     22  O   UNL     1       1.138   1.893   0.021  0.00  0.00    -0.443 OA
BRANCH  22  23
ATOM     23  C   UNL     1      -0.019   1.202   0.039  0.00  0.00    +0.357 C 
ATOM     24  O   UNL     1      -0.001  -0.014   0.037  0.00  0.00    -0.243 OA
BRANCH  23  25
ATOM     25  C   UNL     1      -1.302   1.917   0.054  0.00  0.00    +0.125 A 
ATOM     26  C   UNL     1      -2.530   1.333   0.067  0.00  0.00    +0.042 A 
ATOM     27  C   UNL     1      -3.498   2.366   0.080  0.00  0.00    +0.000 A 
ATOM     28  C   UNL     1      -4.899   2.372   0.096  0.00  0.00    +0.010 A 
ATOM     29  C   UNL     1      -5.573   3.558   0.103  0.00  0.00    +0.001 A 
ATOM     30  C   UNL     1      -4.883   4.764   0.098  0.00  0.00    +0.002 A 
ATOM     31  C   UNL     1      -3.506   4.785   0.084  0.00  0.00    +0.026 A 
ATOM     32  C   UNL     1      -2.796   3.588   0.074  0.00  0.00    +0.047 A 
ATOM     33  N   UNL     1      -1.454   3.290   0.064  0.00  0.00    -0.349 N 
ATOM     34  H   UNL     1      -0.732   3.938   0.061  0.00  0.00    +0.166 HD
ENDBRANCH  23  25
ENDBRANCH  22  23
ENDBRANCH   1  22
TORSDOF 7
