REMARK  Name = ZINC12561460
REMARK  10 active torsions:
REMARK  status: ('A' for Active; 'I' for Inactive)
REMARK    1  A    between atoms: C_4  and  O_34
REMARK    2  A    between atoms: C_5  and  N_7
REMARK    3  A    between atoms: N_10  and  C_13
REMARK    4  A    between atoms: C_13  and  C_14
REMARK    5  A    between atoms: C_14  and  C_16
REMARK    6  A    between atoms: C_14  and  O_33
REMARK    7  A    between atoms: C_16  and  O_17
REMARK    8  A    between atoms: O_17  and  C_18
REMARK    9  A    between atoms: C_18  and  C_19
REMARK   10  A    between atoms: C_18  and  C_26
REMARK                            x       y       z     vdW  Elec       q    Type
REMARK                         _______ _______ _______ _____ _____    ______ ____
ROOT
ATOM      1  C   UNL     1       7.239   0.674   1.319  0.00  0.00    +0.154 C 
ENDROOT
BRANCH   1   2
ATOM      2  O   UNL     1       6.541  -0.039   2.342  0.00  0.00    -0.388 OA
ATOM      3  H   UNL     1       6.907  -0.013   3.379  0.00  0.00    +0.210 HD
ENDBRANCH   1   2
BRANCH   1   4
ATOM      4  C   UNL     1       6.527   0.474  -0.020  0.00  0.00    +0.118 C 
BRANCH   4   8
ATOM      5  N   UNL     1       2.964   2.313   1.312  0.00  0.00    -0.325 N 
ATOM      6  C   UNL     1       3.909   3.125   0.531  0.00  0.00    +0.120 C 
ATOM      7  C   UNL     1       5.292   2.472   0.570  0.00  0.00    +0.103 C 
ATOM      8  N   UNL     1       5.203   1.108   0.030  0.00  0.00    -0.297 NA
ATOM      9  C   UNL     1       4.259   0.296   0.811  0.00  0.00    +0.103 C 
ATOM     10  C   UNL     1       2.875   0.949   0.772  0.00  0.00    +0.120 C 
BRANCH   5  15
ATOM     11  C   UNL     1      -0.275   3.688   0.243  0.00  0.00    +0.002 A 
ATOM     12  C   UNL     1      -0.794   4.112   1.452  0.00  0.00    +0.004 A 
ATOM     13  C   UNL     1      -0.073   3.937   2.619  0.00  0.00    +0.047 A 
ATOM     14  C   UNL     1       1.179   3.345   2.577  0.00  0.00    +0.138 A 
ATOM     15  C   UNL     1       1.703   2.917   1.359  0.00  0.00    +0.072 A 
ATOM     16  C   UNL     1       0.971   3.092   0.194  0.00  0.00    +0.027 A 
BRANCH  14  17
ATOM     17  O   UNL     1       1.892   3.177   3.723  0.00  0.00    -0.505 OA
ATOM     18  H   UNL     1       2.886   2.707   3.688  0.00  0.00    +0.292 HD
ENDBRANCH  14  17
ENDBRANCH   5  15
ENDBRANCH   4   8
ENDBRANCH   1   4
BRANCH   1  19
ATOM     19  C   UNL     1       8.672   0.148   1.219  0.00  0.00    +0.193 C 
BRANCH  19  20
ATOM     20  O   UNL     1       9.373   0.440   2.429  0.00  0.00    -0.365 OA
BRANCH  20  21
ATOM     21  C   UNL     1      10.729  -0.011   2.440  0.00  0.00    +0.178 C 
BRANCH  21  22
ATOM     22  C   UNL     1      11.624   1.075   1.901  0.00  0.00    -0.014 A 
ATOM     23  C   UNL     1      11.389   2.395   2.237  0.00  0.00    +0.008 A 
ATOM     24  C   UNL     1      12.213   3.391   1.748  0.00  0.00    +0.020 A 
ATOM     25  C   UNL     1      13.267   3.067   0.912  0.00  0.00    +0.041 A 
ATOM     26  C   UNL     1      13.498   1.747   0.571  0.00  0.00    +0.020 A 
ATOM     27  C   UNL     1      12.677   0.751   1.065  0.00  0.00    +0.008 A 
ATOM     28 CL   UNL     1      14.298   4.318   0.291  0.00  0.00    -0.084 Cl
ENDBRANCH  21  22
BRANCH  21  29
ATOM     29  C   UNL     1      11.137  -0.344   3.852  0.00  0.00    -0.014 A 
ATOM     30  C   UNL     1      10.650   0.406   4.906  0.00  0.00    +0.008 A 
ATOM     31  C   UNL     1      11.019   0.097   6.202  0.00  0.00    +0.020 A 
ATOM     32  C   UNL     1      11.886  -0.954   6.442  0.00  0.00    +0.041 A 
ATOM     33  C   UNL     1      12.377  -1.700   5.386  0.00  0.00    +0.020 A 
ATOM     34  C   UNL     1      12.002  -1.395   4.091  0.00  0.00    +0.008 A 
ATOM     35 CL   UNL     1      12.355  -1.338   8.069  0.00  0.00    -0.084 Cl
ENDBRANCH  21  29
ENDBRANCH  20  21
ENDBRANCH  19  20
ENDBRANCH   1  19
TORSDOF 10
