REMARK  Name = ZINC03208729
REMARK  4 active torsions:
REMARK  status: ('A' for Active; 'I' for Inactive)
REMARK    1  A    between atoms: C_4  and  C_7
REMARK    2  A    between atoms: C_13  and  N_14
REMARK    3  A    between atoms: N_14  and  N_15
REMARK    4  A    between atoms: C_19  and  C_22
REMARK                            x       y       z     vdW  Elec       q    Type
REMARK                         _______ _______ _______ _____ _____    ______ ____
ROOT
ATOM      1  N   UNL     1       1.242  -2.162   0.214  0.00  0.00    -0.265 N 
ATOM      2  H   UNL     1       1.203  -1.193   0.234  0.00  0.00    +0.170 HD
ENDROOT
BRANCH   1   3
ATOM      3  N   UNL     1       0.065  -2.912   0.329  0.00  0.00    -0.249 N 
ATOM      4  C   UNL     1      -1.145  -2.274   0.583  0.00  0.00    +0.153 A 
ATOM      5  C   UNL     1      -2.292  -3.031   0.801  0.00  0.00    +0.083 A 
ATOM      6  C   UNL     1      -3.489  -2.383   1.052  0.00  0.00    +0.037 A 
ATOM      7  C   UNL     1      -3.497  -0.994   1.077  0.00  0.00    +0.074 A 
ATOM      8  C   UNL     1      -2.322  -0.307   0.853  0.00  0.00    +0.125 A 
ATOM      9  N   UNL     1      -1.194  -0.952   0.620  0.00  0.00    -0.237 NA
ATOM     10 CL   UNL     1      -2.224  -4.766   0.757  0.00  0.00    -0.080 Cl
ATOM     11  H   UNL     1       0.093  -3.877   0.231  0.00  0.00    +0.171 HD
BRANCH   7  12
ATOM     12  C   UNL     1      -4.777  -0.246   1.347  0.00  0.00    +0.419 C 
ATOM     13  F   UNL     1      -4.913  -0.036   2.723  0.00  0.00    -0.166 F 
ATOM     14  F   UNL     1      -4.743   0.988   0.688  0.00  0.00    -0.166 F 
ATOM     15  F   UNL     1      -5.862  -0.994   0.879  0.00  0.00    -0.166 F 
ENDBRANCH   7  12
ENDBRANCH   1   3
BRANCH   1  22
ATOM     16  C   UNL     1       3.620  -0.715  -0.503  0.00  0.00    +0.013 C 
ATOM     17  C   UNL     1       3.690  -2.019  -0.181  0.00  0.00    -0.025 C 
ATOM     18  C   UNL     1       5.025  -2.725  -0.060  0.00  0.00    +0.037 C 
ATOM     19  C   UNL     1       4.873  -4.103  -0.720  0.00  0.00    +0.009 C 
ATOM     20  C   UNL     1       3.818  -4.907   0.039  0.00  0.00    +0.029 C 
ATOM     21  C   UNL     1       2.536  -4.138   0.163  0.00  0.00    -0.002 C 
ATOM     22  C   UNL     1       2.472  -2.809   0.073  0.00  0.00    +0.044 C 
BRANCH  16  26
ATOM     23  C   UNL     1      -0.032   0.929  -1.905  0.00  0.00    +0.000 A 
ATOM     24  C   UNL     1       0.740   1.637  -1.000  0.00  0.00    +0.001 A 
ATOM     25  C   UNL     1       1.928   1.109  -0.539  0.00  0.00    +0.008 A 
ATOM     26  C   UNL     1       2.352  -0.144  -0.989  0.00  0.00    -0.025 A 
ATOM     27  C   UNL     1       1.567  -0.853  -1.903  0.00  0.00    +0.008 A 
ATOM     28  C   UNL     1       0.382  -0.312  -2.354  0.00  0.00    +0.001 A 
ENDBRANCH  16  26
ENDBRANCH   1  22
TORSDOF 4
