REMARK  Name = ZINC63385554
REMARK  5 active torsions:
REMARK  status: ('A' for Active; 'I' for Inactive)
REMARK    1  A    between atoms: C_1  and  C_2
REMARK    2  A    between atoms: C_2  and  C_3
REMARK    3  A    between atoms: C_2  and  C_4
REMARK    4  A    between atoms: C_4  and  C_5
REMARK    5  A    between atoms: C_5  and  N_6
REMARK                            x       y       z     vdW  Elec       q    Type
REMARK                         _______ _______ _______ _____ _____    ______ ____
ROOT
ATOM      1  N   UNL     1       2.873  -0.545  -2.413  0.00  0.00    -0.269 N 
ATOM      2  C   UNL     1       3.495  -1.778  -2.516  0.00  0.00    +0.042 A 
ATOM      3  C   UNL     1       3.614  -2.793  -1.566  0.00  0.00    +0.025 A 
ATOM      4  C   UNL     1       4.297  -3.938  -1.943  0.00  0.00    +0.017 A 
ATOM      5  C   UNL     1       4.843  -4.082  -3.204  0.00  0.00    +0.018 A 
ATOM      6  C   UNL     1       4.733  -3.076  -4.159  0.00  0.00    +0.023 A 
ATOM      7  C   UNL     1       4.056  -1.935  -3.790  0.00  0.00    +0.006 A 
ATOM      8  C   UNL     1       3.750  -0.676  -4.538  0.00  0.00    +0.148 C 
ATOM      9  C   UNL     1       2.968   0.167  -3.555  0.00  0.00    +0.247 C 
ATOM     10  O   UNL     1       2.514   1.274  -3.755  0.00  0.00    -0.273 OA
ATOM     11  C   UNL     1       2.900  -0.964  -5.772  0.00  0.00    +0.140 C 
ATOM     12  C   UNL     1       3.813  -1.683  -6.760  0.00  0.00    -0.035 C 
ATOM     13  C   UNL     1       3.189  -2.803  -7.099  0.00  0.00    -0.001 A 
ATOM     14  C   UNL     1       3.518  -3.854  -8.075  0.00  0.00    +0.010 A 
ATOM     15  C   UNL     1       2.643  -4.890  -8.158  0.00  0.00    +0.001 A 
ATOM     16  C   UNL     1       1.487  -4.987  -7.378  0.00  0.00    +0.002 A 
ATOM     17  C   UNL     1       1.104  -4.064  -6.459  0.00  0.00    +0.026 A 
ATOM     18  C   UNL     1       1.940  -2.923  -6.286  0.00  0.00    +0.043 A 
ATOM     19  N   UNL     1       1.792  -1.877  -5.499  0.00  0.00    -0.375 N 
ATOM     20  C   UNL     1       5.179  -1.145  -7.107  0.00  0.00    +0.048 C 
ATOM     21  C   UNL     1       5.865  -0.805  -5.771  0.00  0.00    +0.086 C 
ATOM     22  N   UNL     1       4.978   0.016  -4.940  0.00  0.00    -0.297 NA
ATOM     23 BR   UNL     1       5.760  -5.678  -3.639  0.00  0.00    -0.050 Br
ATOM     24  H   UNL     1       4.768   0.893  -5.393  0.00  0.00    +0.123 HD
ATOM     25  H   UNL     1       1.084  -1.733  -4.852  0.00  0.00    +0.160 HD
ENDROOT
BRANCH   1  26
ATOM     26  C   UNL     1       2.187  -0.073  -1.207  0.00  0.00    +0.114 C 
BRANCH  26  27
ATOM     27  C   UNL     1       0.718  -0.497  -1.257  0.00  0.00    +0.022 C 
BRANCH  27  29
ATOM     28  C   UNL     1      -0.019   1.526   0.010  0.00  0.00    +0.007 C 
ATOM     29  C   UNL     1       0.002  -0.004   0.002  0.00  0.00    -0.016 C 
ATOM     30  C   UNL     1      -1.433  -0.534   0.013  0.00  0.00    +0.007 C 
ENDBRANCH  27  29
ENDBRANCH  26  27
ENDBRANCH   1  26
TORSDOF 3
