REMARK  Name = ZINC38050954
REMARK  7 active torsions:
REMARK  status: ('A' for Active; 'I' for Inactive)
REMARK    1  A    between atoms: C_1  and  C_2
REMARK    2  A    between atoms: C_2  and  C_3
REMARK    3  A    between atoms: C_3  and  S_4
REMARK    4  A    between atoms: S_4  and  C_7
REMARK    5  A    between atoms: C_12  and  N_13
REMARK    6  A    between atoms: N_13  and  C_14
REMARK    7  A    between atoms: C_20  and  N_22
REMARK                            x       y       z     vdW  Elec       q    Type
REMARK                         _______ _______ _______ _____ _____    ______ ____
ROOT
ATOM      1  C   UNL     1       1.638  -2.774   2.696  0.00  0.00    +0.109 A 
ATOM      2  C   UNL     1       0.989  -3.459   3.704  0.00  0.00    +0.029 A 
ATOM      3  C   UNL     1       1.672  -3.812   4.853  0.00  0.00    +0.002 A 
ATOM      4  C   UNL     1       3.007  -3.480   4.997  0.00  0.00    +0.002 A 
ATOM      5  C   UNL     1       3.662  -2.795   3.993  0.00  0.00    +0.025 A 
ATOM      6  C   UNL     1       2.980  -2.444   2.835  0.00  0.00    +0.052 A 
ENDROOT
BRANCH   1   7
ATOM      7  S   UNL     1       0.767  -2.325   1.232  0.00  0.00    -0.001 S 
ATOM      8  O   UNL     1      -0.547  -2.833   1.421  0.00  0.00    -0.169 OA
ATOM      9  O   UNL     1       1.580  -2.797   0.166  0.00  0.00    -0.169 OA
BRANCH   7  10
ATOM     10  C   UNL     1       0.742  -0.511   1.242  0.00  0.00    +0.171 C 
BRANCH  10  12
ATOM     11  C   UNL     1      -0.019   1.526   0.010  0.00  0.00    +0.005 C 
ATOM     12  C   UNL     1       0.002  -0.004   0.002  0.00  0.00    +0.020 C 
ENDBRANCH  10  12
ENDBRANCH   7  10
ENDBRANCH   1   7
BRANCH   6  13
ATOM     13  N   UNL     1       3.641  -1.756   1.815  0.00  0.00    -0.341 N 
ATOM     14  H   UNL     1       3.163  -1.508   1.008  0.00  0.00    +0.146 HD
BRANCH  13  15
ATOM     15  C   UNL     1       5.057  -1.409   1.963  0.00  0.00    +0.056 C 
ATOM     16  C   UNL     1       5.181  -0.092   2.732  0.00  0.00    +0.020 C 
ATOM     17  C   UNL     1       4.462   1.018   1.962  0.00  0.00    +0.002 C 
ATOM     18  C   UNL     1       5.096   1.173   0.579  0.00  0.00    -0.001 C 
ATOM     19  C   UNL     1       4.972  -0.144  -0.190  0.00  0.00    -0.014 C 
ATOM     20  C   UNL     1       5.691  -1.254   0.580  0.00  0.00    -0.055 C 
BRANCH  20  21
ATOM     21  N   UNL     1       5.572  -2.518  -0.159  0.00  0.00    +0.381 N 
ATOM     22  H   UNL     1       4.597  -2.757  -0.261  0.00  0.00    -0.090 HD
ATOM     23  H   UNL     1       5.991  -2.416  -1.071  0.00  0.00    -0.090 HD
ATOM     24  H   UNL     1       6.046  -3.250   0.349  0.00  0.00    -0.090 HD
ENDBRANCH  20  21
ENDBRANCH  13  15
ENDBRANCH   6  13
TORSDOF 6
