REMARK  Name = ZINC14136572
REMARK  7 active torsions:
REMARK  status: ('A' for Active; 'I' for Inactive)
REMARK    1  A    between atoms: C_1  and  C_2
REMARK    2  A    between atoms: C_5  and  C_29
REMARK    3  A    between atoms: C_6  and  C_8
REMARK    4  A    between atoms: C_8  and  C_10
REMARK    5  A    between atoms: C_10  and  C_11
REMARK    6  A    between atoms: C_11  and  C_12
REMARK    7  A    between atoms: C_22  and  C_24
REMARK                            x       y       z     vdW  Elec       q    Type
REMARK                         _______ _______ _______ _____ _____    ______ ____
ROOT
ATOM      1  C   UNL     1      -3.667   1.589  -1.189  0.00  0.00    +0.217 C 
ATOM      2  O   UNL     1      -3.705   2.801  -1.165  0.00  0.00    -0.276 OA
ATOM      3  N   UNL     1      -4.792   0.884  -1.422  0.00  0.00    -0.290 N 
ATOM      4  C   UNL     1      -4.759  -0.586  -1.454  0.00  0.00    +0.114 C 
ATOM      5  C   UNL     1      -5.605  -1.113  -0.285  0.00  0.00    +0.062 C 
ATOM      6  C   UNL     1      -6.864  -0.313  -0.206  0.00  0.00    -0.003 A 
ATOM      7  C   UNL     1      -7.129   0.890  -0.785  0.00  0.00    -0.012 A 
ATOM      8  C   UNL     1      -8.390   1.434  -0.549  0.00  0.00    +0.013 A 
ATOM      9  C   UNL     1      -9.282   0.767   0.218  0.00  0.00    +0.046 A 
ATOM     10  S   UNL     1      -8.363  -0.699   0.661  0.00  0.00    -0.101 S 
ATOM     11  C   UNL     1      -6.071   1.574  -1.642  0.00  0.00    +0.144 C 
ENDROOT
BRANCH  11  12
ATOM     12  C   UNL     1      -6.458   1.480  -3.095  0.00  0.00    +0.015 A 
ATOM     13  C   UNL     1      -7.017   2.423  -3.893  0.00  0.00    +0.013 A 
ATOM     14  C   UNL     1      -7.289   2.110  -5.211  0.00  0.00    +0.008 A 
ATOM     15  C   UNL     1      -6.989   0.870  -5.668  0.00  0.00    +0.045 A 
ATOM     16  S   UNL     1      -6.294   0.099  -4.215  0.00  0.00    -0.099 S 
ENDBRANCH  11  12
BRANCH   1  17
ATOM     17  C   UNL     1      -2.363   0.871  -0.959  0.00  0.00    +0.104 C 
BRANCH  17  18
ATOM     18  C   UNL     1      -1.252   1.895  -0.721  0.00  0.00    +0.089 C 
BRANCH  18  19
ATOM     19  C   UNL     1       0.053   1.177  -0.490  0.00  0.00    +0.164 C 
ATOM     20  O   UNL     1       0.091  -0.035  -0.515  0.00  0.00    -0.292 OA
BRANCH  19  26
ATOM     21  C   UNL     1       2.413   5.559  -0.195  0.00  0.00    +0.044 C 
ATOM     22  C   UNL     1       2.425   4.055  -0.098  0.00  0.00    -0.050 A 
ATOM     23  C   UNL     1       3.598   3.394   0.225  0.00  0.00    +0.003 A 
ATOM     24  C   UNL     1       3.619   2.014   0.316  0.00  0.00    +0.004 A 
ATOM     25  C   UNL     1       2.471   1.286   0.085  0.00  0.00    -0.040 A 
ATOM     26  C   UNL     1       1.283   1.946  -0.242  0.00  0.00    +0.021 A 
ATOM     27  C   UNL     1       1.270   3.341  -0.338  0.00  0.00    +0.015 A 
ATOM     28  C   UNL     1       2.497  -0.218   0.184  0.00  0.00    +0.044 C 
ENDBRANCH  19  26
ENDBRANCH  18  19
ENDBRANCH  17  18
ENDBRANCH   1  17
TORSDOF 5
