REMARK  Name = ZINC44233798
REMARK  5 active torsions:
REMARK  status: ('A' for Active; 'I' for Inactive)
REMARK    1  A    between atoms: C_1  and  C_2
REMARK    2  A    between atoms: C_2  and  C_3
REMARK    3  A    between atoms: C_8  and  O_9
REMARK    4  A    between atoms: O_9  and  C_10
REMARK    5  A    between atoms: C_20  and  O_22
REMARK                            x       y       z     vdW  Elec       q    Type
REMARK                         _______ _______ _______ _____ _____    ______ ____
ROOT
ATOM      1  C   UNL     1      -2.259  -0.592  -3.550  0.00  0.00    +0.243 C 
ATOM      2  C   UNL     1      -3.018   0.669  -3.983  0.00  0.00    +0.276 C 
ATOM      3  O   UNL     1      -3.823   0.343  -5.116  0.00  0.00    -0.488 OA
ATOM      4  C   UNL     1      -3.232  -0.318  -6.146  0.00  0.00    +0.126 A 
ATOM      5  C   UNL     1      -3.869  -0.324  -7.383  0.00  0.00    +0.046 A 
ATOM      6  C   UNL     1      -3.303  -0.988  -8.452  0.00  0.00    +0.004 A 
ATOM      7  C   UNL     1      -2.099  -1.649  -8.294  0.00  0.00    +0.001 A 
ATOM      8  C   UNL     1      -1.463  -1.643  -7.069  0.00  0.00    +0.010 A 
ATOM      9  C   UNL     1      -2.025  -0.976  -5.992  0.00  0.00    +0.026 A 
ATOM     10  C   UNL     1      -1.296  -0.984  -4.673  0.00  0.00    +0.192 C 
ENDROOT
BRANCH  10  11
ATOM     11  O   UNL     1      -0.779  -2.292  -4.422  0.00  0.00    -0.383 OA
ATOM     12  H   UNL     1      -0.160  -2.607  -5.095  0.00  0.00    +0.210 HD
ENDBRANCH  10  11
BRANCH   1  13
ATOM     13  O   UNL     1      -1.522  -0.324  -2.355  0.00  0.00    -0.482 OA
BRANCH  13  19
ATOM     14  C   UNL     1      -1.502  -0.334   0.024  0.00  0.00    -0.006 A 
ATOM     15  C   UNL     1      -2.179  -0.470   1.220  0.00  0.00    +0.007 A 
ATOM     16  C   UNL     1      -3.535  -0.740   1.222  0.00  0.00    +0.000 A 
ATOM     17  C   UNL     1      -4.216  -0.875   0.026  0.00  0.00    +0.004 A 
ATOM     18  C   UNL     1      -3.544  -0.739  -1.173  0.00  0.00    +0.046 A 
ATOM     19  C   UNL     1      -2.184  -0.463  -1.177  0.00  0.00    +0.124 A 
BRANCH  14  21
ATOM     20  C   UNL     1       0.196   1.470  -0.095  0.00  0.00    +0.009 C 
ATOM     21  C   UNL     1      -0.024  -0.040   0.023  0.00  0.00    +0.035 C 
ENDBRANCH  14  21
ENDBRANCH  13  19
ENDBRANCH   1  13
TORSDOF 4
