REMARK  Name = ZINC55982195
REMARK  2 active torsions:
REMARK  status: ('A' for Active; 'I' for Inactive)
REMARK    1  A    between atoms: C_1  and  C_2
REMARK    2  A    between atoms: C_12  and  C_14
REMARK                            x       y       z     vdW  Elec       q    Type
REMARK                         _______ _______ _______ _____ _____    ______ ____
ROOT
ATOM      1  C   UNL     1      -0.971   1.406   0.273  0.00  0.00    +0.044 C 
ATOM      2  C   UNL     1      -0.961  -0.096   0.155  0.00  0.00    -0.050 A 
ATOM      3  C   UNL     1      -0.034  -0.717  -0.662  0.00  0.00    +0.005 A 
ATOM      4  C   UNL     1      -0.026  -2.093  -0.772  0.00  0.00    +0.024 A 
ATOM      5  C   UNL     1      -0.948  -2.853  -0.060  0.00  0.00    +0.040 A 
ATOM      6  C   UNL     1      -1.874  -2.230   0.761  0.00  0.00    -0.026 A 
ATOM      7  C   UNL     1      -1.873  -0.849   0.867  0.00  0.00    +0.008 A 
ATOM      8  C   UNL     1      -2.880  -3.022   1.554  0.00  0.00    +0.038 C 
ATOM      9  C   UNL     1      -3.062  -4.414   0.952  0.00  0.00    +0.024 C 
ATOM     10  C   UNL     1      -1.682  -5.062   0.773  0.00  0.00    +0.114 C 
ATOM     11  N   UNL     1      -0.925  -4.248  -0.188  0.00  0.00    -0.267 N 
ATOM     12  C   UNL     1      -0.222  -4.834  -1.177  0.00  0.00    +0.258 C 
ATOM     13  O   UNL     1       0.310  -4.152  -2.033  0.00  0.00    -0.269 OA
ENDROOT
BRANCH  12  14
ATOM     14  C   UNL     1      -0.098  -6.295  -1.223  0.00  0.00    +0.120 A 
ATOM     15  C   UNL     1      -0.271  -6.992  -2.427  0.00  0.00    +0.131 A 
ATOM     16  N   UNL     1      -0.155  -8.304  -2.447  0.00  0.00    -0.237 NA
ATOM     17  C   UNL     1       0.125  -9.001  -1.342  0.00  0.00    +0.140 A 
ATOM     18  C   UNL     1       0.237 -10.399  -1.423  0.00  0.00    +0.048 A 
ATOM     19  C   UNL     1       0.523 -11.117  -0.298  0.00  0.00    +0.020 A 
ATOM     20  C   UNL     1       0.702 -10.449   0.920  0.00  0.00    +0.035 A 
ATOM     21  C   UNL     1       0.589  -9.101   0.978  0.00  0.00    +0.111 A 
ATOM     22  N   UNL     1       0.305  -8.378  -0.140  0.00  0.00    -0.267 N 
ATOM     23  C   UNL     1       0.204  -7.034  -0.053  0.00  0.00    +0.271 A 
ATOM     24  O   UNL     1       0.367  -6.467   1.014  0.00  0.00    -0.266 OA
ATOM     25 BR   UNL     1       1.098 -11.431   2.487  0.00  0.00    -0.049 Br
ENDBRANCH  12  14
TORSDOF 1
