REMARK  Name = ZINC01633232
REMARK  9 active torsions:
REMARK  status: ('A' for Active; 'I' for Inactive)
REMARK    1  A    between atoms: C_1  and  O_2
REMARK    2  A    between atoms: O_2  and  C_3
REMARK    3  A    between atoms: C_6  and  C_9
REMARK    4  A    between atoms: N_10  and  N_11
REMARK    5  A    between atoms: C_12  and  C_14
REMARK    6  A    between atoms: C_15  and  N_30
REMARK    7  A    between atoms: N_16  and  C_24
REMARK    8  A    between atoms: C_18  and  C_19
REMARK    9  A    between atoms: C_18  and  C_21
REMARK                            x       y       z     vdW  Elec       q    Type
REMARK                         _______ _______ _______ _____ _____    ______ ____
ROOT
ATOM      1  C   UNL     1       0.250   3.892  -0.664  0.00  0.00    +0.113 C 
ATOM      2  C   UNL     1      -0.997   3.380  -0.353  0.00  0.00    +0.112 C 
ATOM      3  N   UNL     1      -1.046   2.194   0.288  0.00  0.00    -0.249 N 
ATOM      4  C   UNL     1       0.125   1.558   0.613  0.00  0.00    +0.106 C 
ATOM      5  C   UNL     1       0.300   0.335   1.276  0.00  0.00    +0.156 C 
ATOM      6  S   UNL     1       1.334   2.636  -0.005  0.00  0.00    -0.063 S 
ENDROOT
BRANCH   3   7
ATOM      7  C   UNL     1      -2.280   1.621   0.622  0.00  0.00    +0.040 A 
ATOM      8  C   UNL     1      -2.904   0.749  -0.261  0.00  0.00    +0.024 A 
ATOM      9  C   UNL     1      -4.117   0.181   0.074  0.00  0.00    +0.002 A 
ATOM     10  C   UNL     1      -4.717   0.489   1.282  0.00  0.00    +0.000 A 
ATOM     11  C   UNL     1      -4.100   1.360   2.161  0.00  0.00    +0.002 A 
ATOM     12  C   UNL     1      -2.884   1.927   1.834  0.00  0.00    +0.024 A 
ENDBRANCH   3   7
BRANCH   1  14
ATOM     13  N   UNL     1       1.871   5.417  -1.536  0.00  0.00    -0.202 N 
ATOM     14  C   UNL     1       0.579   5.094  -1.328  0.00  0.00    +0.273 C 
ATOM     15  O   UNL     1      -0.305   5.840  -1.712  0.00  0.00    -0.268 OA
ATOM     16  H   UNL     1       2.575   4.824  -1.230  0.00  0.00    +0.178 HD
BRANCH  13  18
ATOM     17  C   UNL     1       3.441   6.921  -2.396  0.00  0.00    +0.138 C 
ATOM     18  N   UNL     1       2.197   6.610  -2.195  0.00  0.00    -0.187 NA
BRANCH  17  22
ATOM     19  C   UNL     1       4.431  10.534  -4.393  0.00  0.00    +0.120 A 
ATOM     20  C   UNL     1       5.440   9.687  -3.955  0.00  0.00    +0.046 A 
ATOM     21  C   UNL     1       5.123   8.513  -3.306  0.00  0.00    +0.013 A 
ATOM     22  C   UNL     1       3.785   8.176  -3.089  0.00  0.00    -0.005 A 
ATOM     23  C   UNL     1       2.773   9.029  -3.536  0.00  0.00    +0.013 A 
ATOM     24  C   UNL     1       3.099  10.203  -4.180  0.00  0.00    +0.046 A 
BRANCH  19  26
ATOM     25  C   UNL     1       3.660  12.516  -5.456  0.00  0.00    +0.277 C 
ATOM     26  O   UNL     1       4.747  11.691  -5.032  0.00  0.00    -0.495 OA
ENDBRANCH  19  26
ENDBRANCH  17  22
ENDBRANCH  13  18
ENDBRANCH   1  14
BRANCH   2  27
ATOM     27  N   UNL     1      -2.149   4.054  -0.693  0.00  0.00    -0.345 N 
ATOM     28  H   UNL     1      -2.100   4.854  -1.240  0.00  0.00    +0.144 HD
ATOM     29  H   UNL     1      -3.010   3.729  -0.386  0.00  0.00    +0.144 HD
ENDBRANCH   2  27
BRANCH   5  30
ATOM     30  C   UNL     1       1.616  -0.105   1.631  0.00  0.00    +0.113 C 
ATOM     31  N   UNL     1       2.660  -0.454   1.913  0.00  0.00    -0.190 NA
ENDBRANCH   5  30
BRANCH   5  32
ATOM     32  C   UNL     1      -0.837  -0.475   1.599  0.00  0.00    +0.113 C 
ATOM     33  N   UNL     1      -1.738  -1.117   1.854  0.00  0.00    -0.190 NA
ENDBRANCH   5  32
TORSDOF 8
