REMARK  Name = ZINC59729844
REMARK  9 active torsions:
REMARK  status: ('A' for Active; 'I' for Inactive)
REMARK    1  A    between atoms: C_1  and  C_2
REMARK    2  A    between atoms: C_2  and  C_4
REMARK    3  A    between atoms: C_7  and  N_10
REMARK    4  A    between atoms: C_11  and  C_13
REMARK    5  A    between atoms: C_13  and  N_24
REMARK    6  A    between atoms: C_14  and  C_15
REMARK    7  A    between atoms: C_19  and  N_21
REMARK    8  A    between atoms: C_25  and  C_27
REMARK    9  A    between atoms: C_28  and  C_29
REMARK                            x       y       z     vdW  Elec       q    Type
REMARK                         _______ _______ _______ _____ _____    ______ ____
ROOT
ATOM      1  C   UNL     1      -6.102  -4.776   0.021  0.00  0.00    +0.097 C 
ATOM      2  C   UNL     1      -7.263  -4.084  -0.035  0.00  0.00    +0.036 C 
ENDROOT
BRANCH   2   3
ATOM      3  C   UNL     1      -7.247  -2.614   0.019  0.00  0.00    -0.021 A 
ATOM      4  C   UNL     1      -6.257  -1.896  -0.661  0.00  0.00    +0.008 A 
ATOM      5  C   UNL     1      -6.248  -0.518  -0.605  0.00  0.00    +0.003 A 
ATOM      6  C   UNL     1      -7.215   0.154   0.122  0.00  0.00    +0.033 A 
ATOM      7  C   UNL     1      -8.197  -0.548   0.798  0.00  0.00    +0.127 A 
ATOM      8  C   UNL     1      -8.223  -1.926   0.747  0.00  0.00    +0.040 A 
BRANCH   7   9
ATOM      9  N   UNL     1      -9.226   0.181   1.573  0.00  0.00    +0.056 N 
ATOM     10  O   UNL     1      -9.208   1.389   1.615  0.00  0.00    -0.126 OA
ATOM     11  O   UNL     1     -10.085  -0.431   2.164  0.00  0.00    -0.126 OA
ENDBRANCH   7   9
ENDBRANCH   2   3
BRANCH   1  13
ATOM     12  N   UNL     1      -4.585  -3.747   1.633  0.00  0.00    -0.280 N 
ATOM     13  C   UNL     1      -4.849  -4.084   0.355  0.00  0.00    +0.262 C 
ATOM     14  O   UNL     1      -4.050  -3.815  -0.522  0.00  0.00    -0.268 OA
ATOM     15  H   UNL     1      -5.176  -4.039   2.344  0.00  0.00    +0.155 HD
BRANCH  12  19
ATOM     16  C   UNL     1      -1.237  -1.455   2.528  0.00  0.00    +0.017 A 
ATOM     17  C   UNL     1      -2.356  -1.424   3.371  0.00  0.00    +0.013 A 
ATOM     18  C   UNL     1      -3.454  -2.179   3.073  0.00  0.00    +0.024 A 
ATOM     19  C   UNL     1      -3.464  -2.979   1.933  0.00  0.00    +0.034 A 
ATOM     20  C   UNL     1      -2.354  -3.013   1.092  0.00  0.00    +0.024 A 
ATOM     21  C   UNL     1      -1.253  -2.256   1.379  0.00  0.00    +0.013 A 
BRANCH  16  23
ATOM     22  C   UNL     1      -0.039   0.216   4.081  0.00  0.00    +0.091 C 
ATOM     23  C   UNL     1      -0.054  -0.645   2.844  0.00  0.00    +0.160 C 
ATOM     24  O   UNL     1       0.911  -0.670   2.111  0.00  0.00    -0.292 OA
ENDBRANCH  16  23
ENDBRANCH  12  19
ENDBRANCH   1  13
BRANCH   1  25
ATOM     25  N   UNL     1      -6.094  -6.149  -0.237  0.00  0.00    -0.278 N 
ATOM     26  C   UNL     1      -4.984  -6.874   0.005  0.00  0.00    +0.241 C 
ATOM     27  O   UNL     1      -4.030  -6.360   0.561  0.00  0.00    -0.270 OA
ATOM     28  H   UNL     1      -6.887  -6.581  -0.590  0.00  0.00    +0.155 HD
BRANCH  26  29
ATOM     29  C   UNL     1      -4.924  -8.279  -0.401  0.00  0.00    +0.068 C 
ATOM     30  C   UNL     1      -3.813  -9.004  -0.159  0.00  0.00    +0.013 C 
BRANCH  30  31
ATOM     31  C   UNL     1      -3.753 -10.417  -0.567  0.00  0.00    -0.025 A 
ATOM     32  C   UNL     1      -4.844 -11.010  -1.211  0.00  0.00    +0.008 A 
ATOM     33  C   UNL     1      -4.780 -12.334  -1.590  0.00  0.00    +0.001 A 
ATOM     34  C   UNL     1      -3.640 -13.076  -1.335  0.00  0.00    +0.000 A 
ATOM     35  C   UNL     1      -2.556 -12.497  -0.698  0.00  0.00    +0.001 A 
ATOM     36  C   UNL     1      -2.603 -11.172  -0.317  0.00  0.00    +0.008 A 
ENDBRANCH  30  31
ENDBRANCH  26  29
ENDBRANCH   1  25
TORSDOF 8
