REMARK  Name = ZINC39951395
REMARK  6 active torsions:
REMARK  status: ('A' for Active; 'I' for Inactive)
REMARK    1  A    between atoms: C_1  and  C_2
REMARK    2  A    between atoms: C_2  and  C_3
REMARK    3  A    between atoms: C_2  and  C_4
REMARK    4  A    between atoms: C_9  and  C_24
REMARK    5  A    between atoms: C_15  and  C_17
REMARK    6  A    between atoms: C_20  and  N_23
REMARK                            x       y       z     vdW  Elec       q    Type
REMARK                         _______ _______ _______ _____ _____    ______ ____
ROOT
ATOM      1  C   UNL     1      -1.699  -0.108   0.004  0.00  0.00    +0.043 C 
ATOM      2  C   UNL     1      -2.316   0.120   1.349  0.00  0.00    -0.003 C 
ATOM      3  C   UNL     1      -3.511  -0.711   1.662  0.00  0.00    -0.075 C 
ATOM      4  N   UNL     1      -4.396  -0.987   0.557  0.00  0.00    +0.393 N 
ATOM      5  C   UNL     1      -4.631   0.046  -0.404  0.00  0.00    -0.061 C 
ATOM      6  C   UNL     1      -3.681   0.138  -1.586  0.00  0.00    +0.025 C 
ATOM      7  C   UNL     1      -2.360   0.679  -1.084  0.00  0.00    +0.146 C 
ATOM      8  O   UNL     1      -1.874   1.686  -1.540  0.00  0.00    -0.296 OA
ATOM      9  C   UNL     1      -3.362  -1.267  -2.124  0.00  0.00    +0.095 C 
ATOM     10  N   UNL     1      -2.907  -2.068  -0.979  0.00  0.00    -0.310 NA
ATOM     11  C   UNL     1      -1.674  -1.589  -0.366  0.00  0.00    +0.097 C 
ATOM     12  C   UNL     1      -4.015  -2.271  -0.046  0.00  0.00    +0.033 C 
ATOM     13  C   UNL     1      -4.262   1.035  -2.681  0.00  0.00    +0.018 C 
ATOM     14  H   UNL     1      -5.298  -1.156   0.977  0.00  0.00    -0.079 HD
ENDROOT
BRANCH  12  15
ATOM     15  C   UNL     1      -5.194  -2.846  -0.787  0.00  0.00    -0.047 A 
ATOM     16  C   UNL     1      -4.991  -3.757  -1.808  0.00  0.00    +0.005 A 
ATOM     17  C   UNL     1      -6.069  -4.286  -2.489  0.00  0.00    +0.023 A 
ATOM     18  C   UNL     1      -7.360  -3.902  -2.148  0.00  0.00    +0.025 A 
ATOM     19  C   UNL     1      -7.561  -2.987  -1.123  0.00  0.00    +0.023 A 
ATOM     20  C   UNL     1      -6.478  -2.466  -0.442  0.00  0.00    +0.005 A 
BRANCH  18  21
ATOM     21  N   UNL     1      -8.453  -4.435  -2.835  0.00  0.00    -0.358 N 
ATOM     22  H   UNL     1      -8.312  -5.074  -3.551  0.00  0.00    +0.142 HD
ATOM     23  H   UNL     1      -9.354  -4.166  -2.596  0.00  0.00    +0.142 HD
ENDBRANCH  18  21
ENDBRANCH  12  15
BRANCH   1  25
ATOM     24  C   UNL     1       0.504  -0.471   1.126  0.00  0.00    +0.008 C 
ATOM     25  C   UNL     1      -0.245   0.363   0.085  0.00  0.00    -0.003 C 
ATOM     26  C   UNL     1       0.423   0.193  -1.281  0.00  0.00    +0.008 C 
ENDBRANCH   1  25
TORSDOF 3
