REMARK  Name = ZINC27937042
REMARK  6 active torsions:
REMARK  status: ('A' for Active; 'I' for Inactive)
REMARK    1  A    between atoms: C_1  and  C_2
REMARK    2  A    between atoms: C_4  and  C_25
REMARK    3  A    between atoms: C_6  and  O_8
REMARK    4  A    between atoms: O_8  and  S_9
REMARK    5  A    between atoms: S_9  and  C_12
REMARK    6  A    between atoms: C_14  and  C_18
REMARK                            x       y       z     vdW  Elec       q    Type
REMARK                         _______ _______ _______ _____ _____    ______ ____
ROOT
ATOM      1  C   UNL     1      -1.598  -0.470   2.058  0.00  0.00    +0.146 A 
ATOM      2  C   UNL     1      -2.639  -1.394   1.925  0.00  0.00    +0.063 A 
ATOM      3  C   UNL     1      -3.727  -0.879   2.598  0.00  0.00    +0.104 A 
ATOM      4  N   UNL     1      -3.350   0.333   3.129  0.00  0.00    -0.355 N 
ATOM      5  H   UNL     1      -4.071   0.927   3.710  0.00  0.00    +0.166 HD
ATOM      6  C   UNL     1      -2.056   0.567   2.799  0.00  0.00    +0.114 A 
ENDROOT
BRANCH   3   7
ATOM      7  C   UNL     1      -5.045  -1.509   2.725  0.00  0.00    +0.263 C 
ATOM      8  O   UNL     1      -5.256  -2.590   2.207  0.00  0.00    -0.268 OA
ATOM      9  N   UNL     1      -6.024  -0.891   3.416  0.00  0.00    -0.296 N 
ATOM     10  C   UNL     1      -5.904   0.407   4.095  0.00  0.00    +0.108 C 
ATOM     11  C   UNL     1      -7.261   0.699   4.769  0.00  0.00    +0.020 C 
ATOM     12  C   UNL     1      -7.885  -0.715   4.915  0.00  0.00    +0.020 C 
ATOM     13  C   UNL     1      -7.389  -1.409   3.622  0.00  0.00    +0.108 C 
ENDBRANCH   3   7
BRANCH   1  14
ATOM     14  S   UNL     1       0.024  -0.630   1.389  0.00  0.00    +0.152 S 
ATOM     15  O   UNL     1       0.251  -2.021   1.203  0.00  0.00    -0.131 OA
ATOM     16  O   UNL     1       0.875   0.180   2.188  0.00  0.00    -0.131 OA
BRANCH  14  17
ATOM     17  O   UNL     1       0.002  -0.004   0.002  0.00  0.00    -0.342 OA
BRANCH  17  23
ATOM     18  C   UNL     1      -2.557   4.152   0.047  0.00  0.00    +0.044 C 
ATOM     19  C   UNL     1      -1.242   3.414   0.031  0.00  0.00    -0.047 A 
ATOM     20  C   UNL     1      -0.054   4.121   0.024  0.00  0.00    +0.007 A 
ATOM     21  C   UNL     1       1.153   3.447   0.009  0.00  0.00    -0.047 A 
ATOM     22  C   UNL     1       1.175   2.066   0.002  0.00  0.00    +0.052 A 
ATOM     23  C   UNL     1      -0.016   1.355   0.009  0.00  0.00    +0.157 A 
ATOM     24  C   UNL     1      -1.226   2.033   0.019  0.00  0.00    +0.052 A 
ATOM     25  C   UNL     1       2.447   4.220   0.001  0.00  0.00    +0.044 C 
ENDBRANCH  17  23
ENDBRANCH  14  17
ENDBRANCH   1  14
TORSDOF 4
