REMARK  Name = ZINC08836255
REMARK  4 active torsions:
REMARK  status: ('A' for Active; 'I' for Inactive)
REMARK    1  A    between atoms: C_1  and  C_2
REMARK    2  A    between atoms: C_2  and  C_3
REMARK    3  A    between atoms: C_3  and  N_54
REMARK    4  A    between atoms: C_13  and  C_15
REMARK                            x       y       z     vdW  Elec       q    Type
REMARK                         _______ _______ _______ _____ _____    ______ ____
ROOT
ATOM      1  C   UNL     1      -0.855  -2.514  -1.253  0.00  0.00    -0.073 C 
ATOM      2  C   UNL     1      -0.710  -4.036  -1.166  0.00  0.00    +0.052 C 
ATOM      3  C   UNL     1      -2.078  -4.659  -0.893  0.00  0.00    +0.189 C 
ATOM      4  C   UNL     1      -2.668  -4.071   0.387  0.00  0.00    +0.052 C 
ATOM      5  C   UNL     1      -2.754  -2.548   0.253  0.00  0.00    -0.073 C 
ATOM      6  N   UNL     1      -2.978  -4.407  -2.022  0.00  0.00    -0.207 N 
ATOM      7  C   UNL     1      -2.692  -4.976  -3.359  0.00  0.00    +0.136 C 
ATOM      8  C   UNL     1      -4.025  -4.831  -4.105  0.00  0.00    +0.086 C 
ATOM      9  C   UNL     1      -4.844  -3.932  -3.201  0.00  0.00    +0.068 C 
ATOM     10  N   UNL     1      -4.206  -3.738  -2.094  0.00  0.00    -0.185 NA
ATOM     11  C   UNL     1      -2.323  -6.420  -3.137  0.00  0.00    +0.018 A 
ATOM     12  C   UNL     1      -2.331  -7.291  -4.210  0.00  0.00    +0.024 A 
ATOM     13  C   UNL     1      -1.952  -8.610  -4.042  0.00  0.00    +0.018 A 
ATOM     14  C   UNL     1      -1.563  -9.056  -2.791  0.00  0.00    +0.019 A 
ATOM     15  C   UNL     1      -1.565  -8.193  -1.717  0.00  0.00    +0.047 A 
ATOM     16  C   UNL     1      -1.955  -6.863  -1.876  0.00  0.00    +0.129 A 
ATOM     17  O   UNL     1      -1.956  -6.077  -0.769  0.00  0.00    -0.467 OA
ATOM     18 BR   UNL     1      -1.965  -9.798  -5.513  0.00  0.00    -0.050 Br
ATOM     19  N   UNL     1      -1.395  -2.011   0.028  0.00  0.00    +0.380 N 
ATOM     20  H   UNL     1      -0.784  -2.321   0.792  0.00  0.00    -0.082 HD
ENDROOT
BRANCH   9  21
ATOM     21  C   UNL     1      -6.166  -3.367  -3.533  0.00  0.00    -0.002 A 
ATOM     22  C   UNL     1      -6.757  -3.644  -4.768  0.00  0.00    +0.011 A 
ATOM     23  C   UNL     1      -7.995  -3.116  -5.070  0.00  0.00    +0.016 A 
ATOM     24  C   UNL     1      -8.646  -2.305  -4.157  0.00  0.00    +0.018 A 
ATOM     25  C   UNL     1      -8.063  -2.022  -2.933  0.00  0.00    +0.016 A 
ATOM     26  C   UNL     1      -6.828  -2.548  -2.616  0.00  0.00    +0.011 A 
ATOM     27 BR   UNL     1     -10.340  -1.579  -4.582  0.00  0.00    -0.050 Br
ENDBRANCH   9  21
BRANCH  19  28
ATOM     28  C   UNL     1      -1.433  -0.534   0.013  0.00  0.00    -0.079 C 
BRANCH  28  30
ATOM     29  C   UNL     1      -0.019   1.526   0.010  0.00  0.00    +0.002 C 
ATOM     30  C   UNL     1       0.002  -0.004   0.002  0.00  0.00    -0.022 C 
ENDBRANCH  28  30
ENDBRANCH  19  28
TORSDOF 3
