REMARK  Name = ZINC38649577
REMARK  15 active torsions:
REMARK  status: ('A' for Active; 'I' for Inactive)
REMARK    1  A    between atoms: C_1  and  C_2
REMARK    2  A    between atoms: C_2  and  C_3
REMARK    3  A    between atoms: C_2  and  C_4
REMARK    4  A    between atoms: C_7  and  C_10
REMARK    5  A    between atoms: C_15  and  O_24
REMARK    6  A    between atoms: C_19  and  N_23
REMARK    7  A    between atoms: C_20  and  C_21
REMARK    8  A    between atoms: O_24  and  C_25
REMARK    9  A    between atoms: C_25  and  C_27
REMARK   10  A    between atoms: C_27  and  O_28
REMARK   11  A    between atoms: O_28  and  C_29
REMARK   12  A    between atoms: C_32  and  C_35
REMARK   13  A    between atoms: C_35  and  C_36
REMARK   14  A    between atoms: C_35  and  C_37
REMARK   15  A    between atoms: C_35  and  C_38
REMARK                            x       y       z     vdW  Elec       q    Type
REMARK                         _______ _______ _______ _____ _____    ______ ____
ROOT
ATOM      1  C   UNL     1       2.771  -1.869  -4.761  0.00  0.00    +0.098 C 
ATOM      2  C   UNL     1       2.760  -3.374  -4.771  0.00  0.00    +0.008 A 
ATOM      3  C   UNL     1       1.575  -4.045  -5.016  0.00  0.00    +0.012 A 
ATOM      4  C   UNL     1       1.547  -5.426  -5.029  0.00  0.00    +0.047 A 
ATOM      5  C   UNL     1       2.711  -6.146  -4.796  0.00  0.00    +0.135 A 
ATOM      6  C   UNL     1       3.898  -5.477  -4.550  0.00  0.00    +0.093 A 
ATOM      7  C   UNL     1       3.925  -4.088  -4.537  0.00  0.00    +0.138 A 
ATOM      8  O   UNL     1       5.096  -3.449  -4.295  0.00  0.00    -0.441 OA
ATOM      9  C   UNL     1       5.242  -2.162  -4.650  0.00  0.00    +0.199 C 
ATOM     10  C   UNL     1       4.180  -1.361  -4.884  0.00  0.00    +0.098 C 
ENDROOT
BRANCH   1  14
ATOM     11  C   UNL     1       1.074  -0.468  -1.099  0.00  0.00    -0.045 A 
ATOM     12  C   UNL     1       0.494  -0.125  -2.306  0.00  0.00    +0.004 A 
ATOM     13  C   UNL     1       1.043  -0.578  -3.491  0.00  0.00    +0.005 A 
ATOM     14  C   UNL     1       2.173  -1.374  -3.469  0.00  0.00    -0.035 A 
ATOM     15  C   UNL     1       2.754  -1.717  -2.263  0.00  0.00    +0.005 A 
ATOM     16  C   UNL     1       2.207  -1.260  -1.078  0.00  0.00    +0.004 A 
BRANCH  11  18
ATOM     17  C   UNL     1       0.472   1.556   0.201  0.00  0.00    +0.012 C 
ATOM     18  C   UNL     1       0.476   0.026   0.193  0.00  0.00    +0.013 C 
ATOM     19  C   UNL     1      -0.960  -0.489   0.319  0.00  0.00    +0.012 C 
ENDBRANCH  11  18
ENDBRANCH   1  14
BRANCH   9  20
ATOM     20  N   UNL     1       6.508  -1.646  -4.778  0.00  0.00    -0.328 N 
ATOM     21  H   UNL     1       7.280  -2.209  -4.612  0.00  0.00    +0.145 HD
ATOM     22  H   UNL     1       6.630  -0.718  -5.034  0.00  0.00    +0.145 HD
ENDBRANCH   9  20
BRANCH  10  23
ATOM     23  C   UNL     1       4.404   0.003  -5.259  0.00  0.00    +0.101 C 
ATOM     24  N   UNL     1       4.582   1.085  -5.556  0.00  0.00    -0.191 NA
ENDBRANCH  10  23
BRANCH   5  25
ATOM     25  O   UNL     1       2.684  -7.504  -4.808  0.00  0.00    -0.423 OA
BRANCH  25  26
ATOM     26  C   UNL     1       2.862  -8.149  -3.643  0.00  0.00    +0.350 C 
ATOM     27  O   UNL     1       2.936  -7.524  -2.612  0.00  0.00    -0.247 OA
BRANCH  26  28
ATOM     28  C   UNL     1       2.971  -9.652  -3.623  0.00  0.00    +0.349 C 
BRANCH  28  29
ATOM     29  O   UNL     1       3.156 -10.098  -2.278  0.00  0.00    -0.481 OA
BRANCH  29  30
ATOM     30  C   UNL     1       3.273 -11.437  -2.083  0.00  0.00    +0.121 A 
ATOM     31  C   UNL     1       3.217 -12.305  -3.164  0.00  0.00    +0.046 A 
ATOM     32  C   UNL     1       3.337 -13.666  -2.963  0.00  0.00    +0.008 A 
ATOM     33  C   UNL     1       3.512 -14.165  -1.685  0.00  0.00    -0.042 A 
ATOM     34  C   UNL     1       3.568 -13.302  -0.606  0.00  0.00    +0.008 A 
ATOM     35  C   UNL     1       3.455 -11.940  -0.802  0.00  0.00    +0.046 A 
BRANCH  33  36
ATOM     36  C   UNL     1       3.642 -15.650  -1.469  0.00  0.00    -0.013 C 
ATOM     37  C   UNL     1       4.856 -16.174  -2.240  0.00  0.00    +0.015 C 
ATOM     38  C   UNL     1       3.825 -15.934   0.023  0.00  0.00    +0.015 C 
ATOM     39  C   UNL     1       2.378 -16.351  -1.970  0.00  0.00    +0.015 C 
ENDBRANCH  33  36
ENDBRANCH  29  30
ENDBRANCH  28  29
ENDBRANCH  26  28
ENDBRANCH  25  26
ENDBRANCH   5  25
TORSDOF 10
