REMARK  Name = ZINC31056403
REMARK  6 active torsions:
REMARK  status: ('A' for Active; 'I' for Inactive)
REMARK    1  A    between atoms: C_3  and  C_6
REMARK    2  A    between atoms: C_8  and  C_11
REMARK    3  A    between atoms: C_11  and  N_12
REMARK    4  A    between atoms: C_16  and  C_19
REMARK    5  A    between atoms: N_21  and  C_22
REMARK    6  A    between atoms: C_22  and  C_23
REMARK                            x       y       z     vdW  Elec       q    Type
REMARK                         _______ _______ _______ _____ _____    ______ ____
ROOT
ATOM      1  N   UNL     1      -3.039   5.921  -1.336  0.00  0.00    +0.386 N 
ATOM      2  C   UNL     1      -3.736   4.920  -2.152  0.00  0.00    -0.078 C 
ATOM      3  C   UNL     1      -3.763   5.378  -3.612  0.00  0.00    -0.018 C 
ATOM      4  C   UNL     1      -4.480   6.728  -3.705  0.00  0.00    +0.009 C 
ATOM      5  C   UNL     1      -3.762   7.741  -2.808  0.00  0.00    +0.058 C 
ATOM      6  C   UNL     1      -3.736   7.213  -1.371  0.00  0.00    -0.065 C 
ATOM      7  H   UNL     1      -2.038   6.068  -1.768  0.00  0.00    -0.081 HD
ENDROOT
BRANCH   5   8
ATOM      8  C   UNL     1      -4.496   9.056  -2.847  0.00  0.00    +0.215 C 
ATOM      9  O   UNL     1      -4.953   9.527  -1.827  0.00  0.00    -0.276 OA
ATOM     10  N   UNL     1      -4.645   9.711  -4.016  0.00  0.00    -0.311 N 
ATOM     11  H   UNL     1      -4.230   9.284  -4.941  0.00  0.00    +0.149 HD
BRANCH  10  12
ATOM     12  C   UNL     1      -5.358  10.990  -4.054  0.00  0.00    +0.139 C 
BRANCH  12  13
ATOM     13  C   UNL     1      -5.384  11.508  -5.469  0.00  0.00    -0.030 A 
ATOM     14  C   UNL     1      -4.369  12.331  -5.922  0.00  0.00    +0.006 A 
ATOM     15  C   UNL     1      -4.390  12.802  -7.221  0.00  0.00    +0.020 A 
ATOM     16  C   UNL     1      -5.431  12.460  -8.065  0.00  0.00    +0.041 A 
ATOM     17  C   UNL     1      -6.449  11.641  -7.609  0.00  0.00    +0.020 A 
ATOM     18  C   UNL     1      -6.425  11.166  -6.311  0.00  0.00    +0.006 A 
ATOM     19 CL   UNL     1      -5.461  13.057  -9.694  0.00  0.00    -0.084 Cl
ENDBRANCH  12  13
ENDBRANCH  10  12
ENDBRANCH   5   8
BRANCH   1  20
ATOM     20  C   UNL     1      -2.873   5.451   0.046  0.00  0.00    +0.022 C 
BRANCH  20  23
ATOM     21  C   UNL     1      -1.176   2.281   0.020  0.00  0.00    +0.209 A 
ATOM     22  N   UNL     1      -1.133   3.634   0.033  0.00  0.00    -0.192 NA
ATOM     23  C   UNL     1      -2.382   4.026   0.036  0.00  0.00    +0.211 A 
ATOM     24  O   UNL     1      -3.141   2.925   0.034  0.00  0.00    -0.340 OA
ATOM     25  N   UNL     1      -2.440   1.936   0.025  0.00  0.00    -0.056 NA
BRANCH  21  28
ATOM     26  C   UNL     1       1.218  -0.649  -0.013  0.00  0.00    +0.008 A 
ATOM     27  C   UNL     1       0.002  -0.004   0.002  0.00  0.00    +0.019 A 
ATOM     28  C   UNL     1      -0.017   1.366   0.010  0.00  0.00    +0.060 A 
ATOM     29  S   UNL     1       1.725   1.757  -0.005  0.00  0.00    -0.093 S 
ATOM     30  C   UNL     1       2.359   0.088  -0.020  0.00  0.00    +0.046 A 
ENDBRANCH  21  28
ENDBRANCH  20  23
ENDBRANCH   1  20
TORSDOF 6
