REMARK  Name = ZINC19460083
REMARK  6 active torsions:
REMARK  status: ('A' for Active; 'I' for Inactive)
REMARK    1  A    between atoms: C_1  and  C_2
REMARK    2  A    between atoms: C_2  and  C_24
REMARK    3  A    between atoms: N_5  and  C_9
REMARK    4  A    between atoms: C_9  and  C_10
REMARK    5  A    between atoms: C_17  and  O_22
REMARK    6  A    between atoms: O_22  and  C_23
REMARK                            x       y       z     vdW  Elec       q    Type
REMARK                         _______ _______ _______ _____ _____    ______ ____
ROOT
ATOM      1  C   UNL     1       2.908   1.264  -1.439  0.00  0.00    +0.237 C 
ATOM      2  O   UNL     1       2.165   1.554  -2.352  0.00  0.00    -0.274 OA
ATOM      3  N   UNL     1       4.140   0.784  -1.699  0.00  0.00    -0.263 N 
ATOM      4  C   UNL     1       4.559   0.624  -3.010  0.00  0.00    +0.165 A 
ATOM      5  N   UNL     1       5.709   0.177  -3.458  0.00  0.00    -0.224 NA
ATOM      6  C   UNL     1       5.983   0.072  -4.776  0.00  0.00    +0.084 A 
ATOM      7  C   UNL     1       7.172  -0.391  -5.386  0.00  0.00    +0.074 A 
ATOM      8  C   UNL     1       7.288  -0.434  -6.755  0.00  0.00    +0.122 A 
ATOM      9  C   UNL     1       6.246  -0.027  -7.583  0.00  0.00    +0.047 A 
ATOM     10  C   UNL     1       5.071   0.430  -7.017  0.00  0.00    +0.021 A 
ATOM     11  C   UNL     1       4.949   0.475  -5.651  0.00  0.00    +0.041 A 
ATOM     12  S   UNL     1       3.668   0.965  -4.521  0.00  0.00    -0.052 S 
ATOM     13  H   UNL     1       4.814   0.521  -0.870  0.00  0.00    +0.157 HD
ENDROOT
BRANCH   8  14
ATOM     14  O   UNL     1       8.444  -0.884  -7.311  0.00  0.00    -0.495 OA
ATOM     15  C   UNL     1       8.511  -0.908  -8.739  0.00  0.00    +0.277 C 
ENDBRANCH   8  14
BRANCH   1  16
ATOM     16  C   UNL     1       2.453   1.438  -0.013  0.00  0.00    +0.214 C 
BRANCH  16  21
ATOM     17  C   UNL     1      -1.244   4.076  -1.221  0.00  0.00    +0.042 C 
ATOM     18  C   UNL     1      -0.727   3.357   0.027  0.00  0.00    +0.113 C 
ATOM     19  C   UNL     1       0.787   3.284   0.012  0.00  0.00    +0.247 C 
ATOM     20  O   UNL     1       1.565   4.213   0.009  0.00  0.00    -0.273 OA
ATOM     21  N   UNL     1       1.087   1.970   0.002  0.00  0.00    -0.215 N 
ATOM     22  C   UNL     1      -0.014   1.211   0.009  0.00  0.00    +0.310 C 
ATOM     23  O   UNL     1       0.002  -0.004   0.002  0.00  0.00    -0.252 OA
ATOM     24  N   UNL     1      -1.143   1.944   0.018  0.00  0.00    -0.285 N 
ATOM     25  H   UNL     1      -2.212   1.685   0.019  0.00  0.00    +0.151 HD
BRANCH  18  26
ATOM     26  C   UNL     1      -1.220   4.059   1.294  0.00  0.00    +0.021 C 
ATOM     27  C   UNL     1      -1.963   3.212   2.328  0.00  0.00    +0.006 C 
ATOM     28  C   UNL     1      -2.731   4.220   1.471  0.00  0.00    +0.006 C 
ENDBRANCH  18  26
ENDBRANCH  16  21
ENDBRANCH   1  16
TORSDOF 4
