REMARK  Name = ZINC37176826
REMARK  6 active torsions:
REMARK  status: ('A' for Active; 'I' for Inactive)
REMARK    1  A    between atoms: C_1  and  C_2
REMARK    2  A    between atoms: C_5  and  N_9
REMARK    3  A    between atoms: N_9  and  C_10
REMARK    4  A    between atoms: C_10  and  C_12
REMARK    5  A    between atoms: C_10  and  C_13
REMARK    6  A    between atoms: C_16  and  N_19
REMARK                            x       y       z     vdW  Elec       q    Type
REMARK                         _______ _______ _______ _____ _____    ______ ____
ROOT
ATOM      1  C   UNL     1       0.063  -4.893  -1.296  0.00  0.00    +0.098 C 
ATOM      2  C   UNL     1      -1.375  -5.056  -1.794  0.00  0.00    +0.033 C 
ENDROOT
BRANCH   1   3
ATOM      3  C   UNL     1       0.683  -6.253  -1.098  0.00  0.00    -0.027 A 
ATOM      4  C   UNL     1       0.401  -6.982   0.042  0.00  0.00    +0.007 A 
ATOM      5  C   UNL     1       0.970  -8.228   0.224  0.00  0.00    +0.033 A 
ATOM      6  C   UNL     1       1.820  -8.746  -0.736  0.00  0.00    +0.126 A 
ATOM      7  C   UNL     1       2.101  -8.018  -1.876  0.00  0.00    +0.033 A 
ATOM      8  C   UNL     1       1.529  -6.773  -2.059  0.00  0.00    +0.007 A 
BRANCH   6   9
ATOM      9  N   UNL     1       2.430 -10.081  -0.541  0.00  0.00    +0.056 N 
ATOM     10  O   UNL     1       2.184 -10.718   0.457  0.00  0.00    -0.126 OA
ATOM     11  O   UNL     1       3.173 -10.534  -1.380  0.00  0.00    -0.126 OA
ENDBRANCH   6   9
ENDBRANCH   1   3
BRANCH   1  12
ATOM     12  N   UNL     1       0.059  -4.168  -0.023  0.00  0.00    -0.336 N 
ATOM     13  H   UNL     1       0.070  -4.658   0.815  0.00  0.00    +0.147 HD
BRANCH  12  18
ATOM     14  C   UNL     1      -0.018   1.503   0.010  0.00  0.00    +0.044 C 
ATOM     15  C   UNL     1       0.002  -0.004   0.002  0.00  0.00    -0.049 A 
ATOM     16  C   UNL     1       0.006  -0.687  -1.200  0.00  0.00    +0.005 A 
ATOM     17  C   UNL     1       0.025  -2.068  -1.212  0.00  0.00    +0.024 A 
ATOM     18  C   UNL     1       0.041  -2.771  -0.014  0.00  0.00    +0.042 A 
ATOM     19  C   UNL     1       0.037  -2.082   1.192  0.00  0.00    +0.039 A 
ATOM     20  C   UNL     1       0.023  -0.700   1.196  0.00  0.00    +0.020 A 
ATOM     21 BR   UNL     1       0.057  -3.034   2.826  0.00  0.00    -0.048 Br
ENDBRANCH  12  18
ENDBRANCH   1  12
TORSDOF 4
