REMARK  Name = ZINC14094933
REMARK  10 active torsions:
REMARK  status: ('A' for Active; 'I' for Inactive)
REMARK    1  A    between atoms: C_1  and  C_2
REMARK    2  A    between atoms: C_2  and  O_3
REMARK    3  A    between atoms: O_3  and  C_4
REMARK    4  A    between atoms: C_9  and  C_10
REMARK    5  A    between atoms: C_10  and  N_11
REMARK    6  A    between atoms: C_12  and  C_14
REMARK    7  A    between atoms: C_14  and  N_15
REMARK    8  A    between atoms: C_18  and  C_23
REMARK    9  A    between atoms: C_23  and  C_24
REMARK   10  A    between atoms: C_35  and  C_38
REMARK                            x       y       z     vdW  Elec       q    Type
REMARK                         _______ _______ _______ _____ _____    ______ ____
ROOT
ATOM      1  C   UNL     1      -5.691  -1.135  -2.443  0.00  0.00    +0.213 C 
ENDROOT
BRANCH   1   2
ATOM      2  N   UNL     1      -4.502  -0.327  -2.163  0.00  0.00    -0.216 N 
ATOM      3  C   UNL     1      -4.511   0.809  -1.439  0.00  0.00    +0.244 C 
ATOM      4  O   UNL     1      -5.469   1.336  -0.914  0.00  0.00    -0.273 OA
ATOM      5  C   UNL     1      -3.074   1.292  -1.414  0.00  0.00    +0.165 C 
ATOM      6  N   UNL     1      -2.354   0.276  -2.202  0.00  0.00    -0.287 N 
ATOM      7  C   UNL     1      -3.271  -0.626  -2.596  0.00  0.00    +0.310 C 
ATOM      8  O   UNL     1      -3.011  -1.604  -3.269  0.00  0.00    -0.252 OA
ATOM      9  H   UNL     1      -1.405   0.261  -2.399  0.00  0.00    +0.151 HD
BRANCH   5  10
ATOM     10  C   UNL     1      -2.545   1.335   0.021  0.00  0.00    +0.069 C 
BRANCH  10  11
ATOM     11  C   UNL     1      -1.122   1.831   0.017  0.00  0.00    -0.020 A 
ATOM     12  C   UNL     1      -0.013   1.076   0.008  0.00  0.00    +0.087 A 
ATOM     13  N   UNL     1       1.097   1.876   0.002  0.00  0.00    -0.360 N 
ATOM     14  H   UNL     1       2.014   1.559  -0.009  0.00  0.00    +0.165 HD
ATOM     15  C   UNL     1       0.719   3.200   0.012  0.00  0.00    +0.047 A 
ATOM     16  C   UNL     1      -0.688   3.230   0.025  0.00  0.00    +0.003 A 
ATOM     17  C   UNL     1      -1.358   4.455   0.038  0.00  0.00    +0.010 A 
ATOM     18  C   UNL     1      -0.644   5.620   0.037  0.00  0.00    +0.001 A 
ATOM     19  C   UNL     1       0.744   5.595   0.023  0.00  0.00    +0.002 A 
ATOM     20  C   UNL     1       1.426   4.398   0.011  0.00  0.00    +0.026 A 
ENDBRANCH  10  11
ENDBRANCH   5  10
ENDBRANCH   1   2
BRANCH   1  22
ATOM     21  N   UNL     1      -6.902  -3.025  -1.403  0.00  0.00    -0.310 N 
ATOM     22  C   UNL     1      -5.866  -2.164  -1.356  0.00  0.00    +0.231 C 
ATOM     23  O   UNL     1      -5.075  -2.217  -0.438  0.00  0.00    -0.274 OA
ATOM     24  H   UNL     1      -7.535  -2.982  -2.137  0.00  0.00    +0.149 HD
BRANCH  21  25
ATOM     25  C   UNL     1      -7.072  -4.025  -0.347  0.00  0.00    +0.143 C 
BRANCH  25  31
ATOM     26  C   UNL     1      -8.227  -5.890  -1.556  0.00  0.00    +0.126 A 
ATOM     27  C   UNL     1      -9.358  -6.651  -1.819  0.00  0.00    +0.053 A 
ATOM     28  C   UNL     1     -10.538  -6.377  -1.165  0.00  0.00    +0.001 A 
ATOM     29  C   UNL     1     -10.615  -5.348  -0.236  0.00  0.00    +0.125 A 
ATOM     30  C   UNL     1      -9.477  -4.589   0.026  0.00  0.00    +0.054 A 
ATOM     31  C   UNL     1      -8.296  -4.856  -0.634  0.00  0.00    +0.015 A 
ATOM     32  O   UNL     1     -11.864  -5.260   0.300  0.00  0.00    -0.488 OA
ATOM     33  C   UNL     1     -12.797  -5.939  -0.558  0.00  0.00    +0.175 C 
ATOM     34  C   UNL     1     -11.915  -7.008  -1.244  0.00  0.00    +0.083 C 
ATOM     35  C   UNL     1     -13.383  -4.974  -1.591  0.00  0.00    +0.052 C 
BRANCH  26  36
ATOM     36  O   UNL     1      -7.059  -6.157  -2.198  0.00  0.00    -0.492 OA
BRANCH  36  38
ATOM     37  C   UNL     1      -5.673  -7.385  -3.751  0.00  0.00    +0.048 C 
ATOM     38  C   UNL     1      -7.065  -7.237  -3.134  0.00  0.00    +0.225 C 
ENDBRANCH  36  38
ENDBRANCH  26  36
ENDBRANCH  25  31
ENDBRANCH  21  25
ENDBRANCH   1  22
TORSDOF 8
