REMARK  Name = ZINC01192490
REMARK  7 active torsions:
REMARK  status: ('A' for Active; 'I' for Inactive)
REMARK    1  A    between atoms: C_1  and  C_2
REMARK    2  A    between atoms: C_2  and  C_3
REMARK    3  A    between atoms: C_2  and  C_4
REMARK    4  A    between atoms: C_7  and  C_10
REMARK    5  A    between atoms: N_17  and  C_20
REMARK    6  A    between atoms: C_23  and  O_26
REMARK    7  A    between atoms: O_26  and  C_27
REMARK                            x       y       z     vdW  Elec       q    Type
REMARK                         _______ _______ _______ _____ _____    ______ ____
ROOT
ATOM      1  C   UNL     1       2.400   4.068  -1.050  0.00  0.00    +0.026 C 
ATOM      2  C   UNL     1       1.256   3.327  -0.838  0.00  0.00    +0.100 C 
ATOM      3  C   UNL     1       1.292   1.851  -0.777  0.00  0.00    +0.257 C 
ATOM      4  O   UNL     1       2.338   1.245  -0.911  0.00  0.00    -0.270 OA
ATOM      5  N   UNL     1       0.133   1.194  -0.567  0.00  0.00    -0.235 N 
ATOM      6  C   UNL     1      -1.028   1.848  -0.421  0.00  0.00    +0.320 C 
ATOM      7  O   UNL     1      -2.036   1.195  -0.240  0.00  0.00    -0.251 OA
ATOM      8  N   UNL     1      -1.136   3.183  -0.460  0.00  0.00    -0.190 N 
ATOM      9  C   UNL     1      -0.061   3.973  -0.663  0.00  0.00    +0.263 C 
ATOM     10  O   UNL     1      -0.173   5.184  -0.701  0.00  0.00    -0.269 OA
ATOM     11  H   UNL     1       0.139   0.225  -0.523  0.00  0.00    +0.159 HD
ENDROOT
BRANCH   1  15
ATOM     12  C   UNL     1       6.204   2.227  -0.742  0.00  0.00    -0.045 A 
ATOM     13  C   UNL     1       5.952   3.120  -1.771  0.00  0.00    +0.004 A 
ATOM     14  C   UNL     1       4.718   3.723  -1.879  0.00  0.00    +0.008 A 
ATOM     15  C   UNL     1       3.716   3.431  -0.944  0.00  0.00    -0.024 A 
ATOM     16  C   UNL     1       3.981   2.530   0.097  0.00  0.00    +0.008 A 
ATOM     17  C   UNL     1       5.220   1.932   0.186  0.00  0.00    +0.004 A 
BRANCH  12  19
ATOM     18  C   UNL     1       8.192   1.935   0.711  0.00  0.00    +0.012 C 
ATOM     19  C   UNL     1       7.557   1.573  -0.633  0.00  0.00    +0.013 C 
ATOM     20  C   UNL     1       7.397   0.054  -0.728  0.00  0.00    +0.012 C 
ENDBRANCH  12  19
ENDBRANCH   1  15
BRANCH   8  21
ATOM     21  C   UNL     1      -2.397   3.774  -0.291  0.00  0.00    +0.046 A 
ATOM     22  C   UNL     1      -3.265   3.877  -1.369  0.00  0.00    +0.027 A 
ATOM     23  C   UNL     1      -4.509   4.453  -1.201  0.00  0.00    +0.047 A 
ATOM     24  C   UNL     1      -4.887   4.938   0.043  0.00  0.00    +0.120 A 
ATOM     25  C   UNL     1      -4.017   4.840   1.119  0.00  0.00    +0.047 A 
ATOM     26  C   UNL     1      -2.775   4.259   0.953  0.00  0.00    +0.027 A 
BRANCH  24  27
ATOM     27  O   UNL     1      -6.109   5.509   0.207  0.00  0.00    -0.495 OA
ATOM     28  C   UNL     1      -6.954   5.577  -0.944  0.00  0.00    +0.277 C 
ENDBRANCH  24  27
ENDBRANCH   8  21
TORSDOF 4
