REMARK  Name = ZINC11461604
REMARK  6 active torsions:
REMARK  status: ('A' for Active; 'I' for Inactive)
REMARK    1  A    between atoms: C_7  and  C_12
REMARK    2  A    between atoms: C_12  and  O_14
REMARK    3  A    between atoms: O_14  and  C_15
REMARK    4  A    between atoms: C_15  and  C_16
REMARK    5  A    between atoms: N_18  and  C_19
REMARK    6  A    between atoms: N_18  and  C_27
REMARK                            x       y       z     vdW  Elec       q    Type
REMARK                         _______ _______ _______ _____ _____    ______ ____
ROOT
ATOM      1  C   UNL     1      -2.364  -3.160  -0.054  0.00  0.00    +0.328 C 
ENDROOT
BRANCH   1   2
ATOM      2  C   UNL     1      -3.574  -2.295   0.189  0.00  0.00    +0.254 C 
ATOM      3  O   UNL     1      -3.459  -1.088   0.223  0.00  0.00    -0.272 OA
ATOM      4  N   UNL     1      -4.783  -2.863   0.368  0.00  0.00    -0.291 N 
BRANCH   4   5
ATOM      5  C   UNL     1      -4.899  -4.319   0.481  0.00  0.00    +0.099 C 
ATOM      6  C   UNL     1      -4.410  -4.972  -0.822  0.00  0.00    +0.047 C 
ATOM      7  C   UNL     1      -4.247  -6.498  -0.568  0.00  0.00    +0.168 C 
ATOM      8  S   UNL     1      -3.503  -6.481   1.118  0.00  0.00    -0.029 S 
ATOM      9  O   UNL     1      -4.147  -7.464   1.917  0.00  0.00    -0.174 OA
ATOM     10  O   UNL     1      -2.087  -6.494   0.999  0.00  0.00    -0.174 OA
ATOM     11  C   UNL     1      -4.042  -4.812   1.671  0.00  0.00    +0.188 C 
ENDBRANCH   4   5
BRANCH   4  12
ATOM     12  C   UNL     1      -5.981  -2.024   0.450  0.00  0.00    +0.077 C 
ATOM     13  C   UNL     1      -5.848  -1.058   1.629  0.00  0.00    +0.022 C 
ATOM     14  C   UNL     1      -7.099  -0.182   1.715  0.00  0.00    +0.002 C 
ATOM     15  C   UNL     1      -7.253   0.615   0.418  0.00  0.00    +0.000 C 
ATOM     16  C   UNL     1      -7.387  -0.351  -0.761  0.00  0.00    +0.002 C 
ATOM     17  C   UNL     1      -6.135  -1.227  -0.847  0.00  0.00    +0.022 C 
ENDBRANCH   4  12
ENDBRANCH   1   2
BRANCH   1  18
ATOM     18  O   UNL     1      -1.183  -2.360   0.027  0.00  0.00    -0.452 OA
BRANCH  18  19
ATOM     19  C   UNL     1      -0.006  -2.986  -0.168  0.00  0.00    +0.340 C 
ATOM     20  O   UNL     1       0.017  -4.177  -0.400  0.00  0.00    -0.245 OA
BRANCH  19  27
ATOM     21  C   UNL     1       0.048   1.300   0.272  0.00  0.00    +0.001 A 
ATOM     22  C   UNL     1       1.248   1.995   0.335  0.00  0.00    +0.002 A 
ATOM     23  C   UNL     1       2.450   1.328   0.258  0.00  0.00    +0.026 A 
ATOM     24  C   UNL     1       2.466  -0.057   0.115  0.00  0.00    +0.050 A 
ATOM     25  C   UNL     1       1.248  -0.757   0.052  0.00  0.00    +0.012 A 
ATOM     26  C   UNL     1       0.040  -0.059   0.132  0.00  0.00    +0.011 A 
ATOM     27  C   UNL     1       1.261  -2.220  -0.098  0.00  0.00    +0.073 A 
ATOM     28  C   UNL     1       2.467  -2.857  -0.172  0.00  0.00    +0.085 A 
ATOM     29  C   UNL     1       3.699  -2.074  -0.101  0.00  0.00    +0.250 A 
ATOM     30  N   UNL     1       3.662  -0.738   0.037  0.00  0.00    -0.322 N 
ATOM     31  O   UNL     1       4.775  -2.642  -0.166  0.00  0.00    -0.268 OA
ATOM     32  H   UNL     1       4.495  -0.241   0.081  0.00  0.00    +0.169 HD
ENDBRANCH  19  27
ENDBRANCH  18  19
ENDBRANCH   1  18
TORSDOF 6
