REMARK  Name = ZINC44730784
REMARK  6 active torsions:
REMARK  status: ('A' for Active; 'I' for Inactive)
REMARK    1  A    between atoms: C_1  and  C_2
REMARK    2  A    between atoms: C_4  and  C_8
REMARK    3  A    between atoms: C_5  and  C_7
REMARK    4  A    between atoms: C_8  and  C_10
REMARK    5  A    between atoms: C_8  and  N_11
REMARK    6  A    between atoms: N_11  and  C_12
REMARK                            x       y       z     vdW  Elec       q    Type
REMARK                         _______ _______ _______ _____ _____    ______ ____
ROOT
ATOM      1  C   UNL     1      -3.561  -4.069   1.044  0.00  0.00    +0.100 A 
ATOM      2  C   UNL     1      -4.806  -3.757   1.475  0.00  0.00    +0.050 A 
ATOM      3  C   UNL     1      -5.621  -4.752   2.066  0.00  0.00    -0.010 A 
ATOM      4  C   UNL     1      -6.913  -4.471   2.524  0.00  0.00    +0.009 A 
ATOM      5  C   UNL     1      -7.659  -5.467   3.087  0.00  0.00    +0.001 A 
ATOM      6  C   UNL     1      -7.154  -6.756   3.211  0.00  0.00    +0.001 A 
ATOM      7  C   UNL     1      -5.896  -7.061   2.773  0.00  0.00    +0.014 A 
ATOM      8  C   UNL     1      -5.108  -6.066   2.193  0.00  0.00    +0.047 A 
ATOM      9  C   UNL     1      -3.753  -6.338   1.706  0.00  0.00    +0.258 A 
ATOM     10  O   UNL     1      -3.275  -7.455   1.798  0.00  0.00    -0.267 OA
ATOM     11  N   UNL     1      -3.046  -5.332   1.151  0.00  0.00    -0.310 N 
ATOM     12  H   UNL     1      -2.149  -5.508   0.824  0.00  0.00    +0.170 HD
ENDROOT
BRANCH   1  13
ATOM     13  N   UNL     1      -2.786  -3.079   0.471  0.00  0.00    -0.324 N 
ATOM     14  H   UNL     1      -3.135  -2.178   0.387  0.00  0.00    +0.148 HD
BRANCH  13  15
ATOM     15  C   UNL     1      -1.437  -3.390  -0.009  0.00  0.00    +0.102 C 
ATOM     16  C   UNL     1      -1.518  -3.946  -1.432  0.00  0.00    +0.033 C 
BRANCH  15  20
ATOM     17  C   UNL     1      -0.018   1.503   0.010  0.00  0.00    +0.086 C 
ATOM     18  C   UNL     1       0.002  -0.004   0.002  0.00  0.00    +0.103 A 
ATOM     19  C   UNL     1      -1.078  -0.805   0.003  0.00  0.00    +0.050 A 
ATOM     20  C   UNL     1      -0.601  -2.136  -0.007  0.00  0.00    +0.013 A 
ATOM     21  C   UNL     1       0.742  -2.069  -0.013  0.00  0.00    +0.107 A 
ATOM     22  O   UNL     1       1.102  -0.775  -0.013  0.00  0.00    -0.465 OA
ATOM     23  C   UNL     1       1.684  -3.245  -0.023  0.00  0.00    +0.086 C 
ENDBRANCH  15  20
ENDBRANCH  13  15
ENDBRANCH   1  13
TORSDOF 3
