REMARK  Name = ZINC01099037
REMARK  5 active torsions:
REMARK  status: ('A' for Active; 'I' for Inactive)
REMARK    1  A    between atoms: C_1  and  C_2
REMARK    2  A    between atoms: C_3  and  C_12
REMARK    3  A    between atoms: N_14  and  N_15
REMARK    4  A    between atoms: C_16  and  C_17
REMARK    5  A    between atoms: C_26  and  O_27
REMARK                            x       y       z     vdW  Elec       q    Type
REMARK                         _______ _______ _______ _____ _____    ______ ____
ROOT
ATOM      1  C   UNL     1      -2.384   0.088   0.006  0.00  0.00    +0.271 C 
ATOM      2  O   UNL     1      -2.354   1.306   0.006  0.00  0.00    -0.268 OA
ATOM      3  N   UNL     1      -3.568  -0.557   0.009  0.00  0.00    -0.202 N 
ATOM      4  H   UNL     1      -3.592  -1.526   0.009  0.00  0.00    +0.178 HD
ENDROOT
BRANCH   1   7
ATOM      5  C   UNL     1      -0.018   1.503   0.010  0.00  0.00    +0.062 C 
ATOM      6  C   UNL     1       0.002  -0.004   0.002  0.00  0.00    +0.024 C 
ATOM      7  C   UNL     1      -1.175  -0.651   0.004  0.00  0.00    +0.093 C 
ATOM      8  S   UNL     1      -1.227  -2.413   0.005  0.00  0.00    -0.081 S 
ATOM      9  C   UNL     1       0.408  -2.873   0.474  0.00  0.00    +0.034 A 
ATOM     10  C   UNL     1       0.666  -4.168   0.896  0.00  0.00    +0.017 A 
ATOM     11  C   UNL     1       1.948  -4.534   1.267  0.00  0.00    +0.001 A 
ATOM     12  C   UNL     1       2.971  -3.607   1.218  0.00  0.00    +0.002 A 
ATOM     13  C   UNL     1       2.720  -2.313   0.798  0.00  0.00    +0.024 A 
ATOM     14  C   UNL     1       1.438  -1.936   0.421  0.00  0.00    +0.045 A 
ATOM     15  N   UNL     1       1.211  -0.627  -0.013  0.00  0.00    -0.316 N 
ATOM     16  H   UNL     1       1.971  -0.124  -0.345  0.00  0.00    +0.152 HD
ENDBRANCH   1   7
BRANCH   3  17
ATOM     17  N   UNL     1      -4.763   0.174   0.011  0.00  0.00    -0.187 NA
ATOM     18  C   UNL     1      -5.905  -0.447   0.013  0.00  0.00    +0.142 C 
BRANCH  18  19
ATOM     19  C   UNL     1      -7.159   0.319   0.015  0.00  0.00    +0.044 A 
ATOM     20  C   UNL     1      -8.452  -0.363   0.023  0.00  0.00    -0.006 A 
ATOM     21  C   UNL     1      -8.540  -1.761   0.030  0.00  0.00    +0.009 A 
ATOM     22  C   UNL     1      -9.765  -2.358   0.039  0.00  0.00    +0.001 A 
ATOM     23  C   UNL     1     -10.932  -1.598   0.040  0.00  0.00    +0.001 A 
ATOM     24  C   UNL     1     -10.882  -0.237   0.033  0.00  0.00    +0.008 A 
ATOM     25  C   UNL     1      -9.636   0.413   0.025  0.00  0.00    -0.017 A 
ATOM     26  C   UNL     1      -9.545   1.816   0.018  0.00  0.00    +0.012 A 
ATOM     27  C   UNL     1      -8.335   2.435   0.011  0.00  0.00    +0.046 A 
ATOM     28  C   UNL     1      -7.142   1.714   0.014  0.00  0.00    +0.126 A 
BRANCH  28  29
ATOM     29  O   UNL     1      -5.955   2.373   0.012  0.00  0.00    -0.506 OA
ATOM     30  H   UNL     1      -5.613   2.564  -0.872  0.00  0.00    +0.292 HD
ENDBRANCH  28  29
ENDBRANCH  18  19
ENDBRANCH   3  17
TORSDOF 4
