REMARK  Name = ZINC23787544
REMARK  9 active torsions:
REMARK  status: ('A' for Active; 'I' for Inactive)
REMARK    1  A    between atoms: C_1  and  C_2
REMARK    2  A    between atoms: C_2  and  C_3
REMARK    3  A    between atoms: C_2  and  C_4
REMARK    4  A    between atoms: C_4  and  C_6
REMARK    5  A    between atoms: C_4  and  N_23
REMARK    6  A    between atoms: N_8  and  N_9
REMARK    7  A    between atoms: C_10  and  C_12
REMARK    8  A    between atoms: C_15  and  N_18
REMARK    9  A    between atoms: C_24  and  C_26
REMARK                            x       y       z     vdW  Elec       q    Type
REMARK                         _______ _______ _______ _____ _____    ______ ____
ROOT
ATOM      1  C   UNL     1      -6.091   3.198   0.143  0.00  0.00    +0.250 C 
ATOM      2  O   UNL     1      -6.033   2.087  -0.339  0.00  0.00    -0.272 OA
ATOM      3  N   UNL     1      -4.972   3.792   0.603  0.00  0.00    -0.233 N 
ATOM      4  H   UNL     1      -5.009   4.831   0.964  0.00  0.00    +0.173 HD
ENDROOT
BRANCH   3   5
ATOM      5  N   UNL     1      -3.762   3.086   0.622  0.00  0.00    -0.230 N 
ATOM      6  C   UNL     1      -2.643   3.680   1.082  0.00  0.00    +0.260 C 
ATOM      7  O   UNL     1      -2.683   4.828   1.480  0.00  0.00    -0.269 OA
ATOM      8  H   UNL     1      -3.725   2.048   0.262  0.00  0.00    +0.173 HD
BRANCH   6   9
ATOM      9  C   UNL     1      -1.367   2.937   1.102  0.00  0.00    +0.038 A 
ATOM     10  C   UNL     1      -1.317   1.619   0.640  0.00  0.00    +0.015 A 
ATOM     11  C   UNL     1      -0.126   0.927   0.665  0.00  0.00    +0.028 A 
ATOM     12  C   UNL     1       1.027   1.541   1.140  0.00  0.00    +0.069 A 
ATOM     13  C   UNL     1       0.982   2.854   1.596  0.00  0.00    +0.028 A 
ATOM     14  C   UNL     1      -0.206   3.551   1.579  0.00  0.00    +0.015 A 
BRANCH  12  15
ATOM     15  N   UNL     1       2.236   0.836   1.160  0.00  0.00    -0.200 N 
ATOM     16  C   UNL     1       3.439   1.281   1.586  0.00  0.00    +0.250 A 
ATOM     17  N   UNL     1       4.292   0.303   1.429  0.00  0.00    -0.116 NA
ATOM     18  N   UNL     1       3.711  -0.729   0.934  0.00  0.00    -0.023 NA
ATOM     19  N   UNL     1       2.458  -0.489   0.746  0.00  0.00    -0.039 NA
ENDBRANCH  12  15
ENDBRANCH   6   9
ENDBRANCH   3   5
BRANCH   1  20
ATOM     20  C   UNL     1      -7.414   3.915   0.228  0.00  0.00    +0.163 C 
BRANCH  20  21
ATOM     21  N   UNL     1      -8.495   2.933   0.343  0.00  0.00    -0.303 N 
ATOM     22  C   UNL     1      -9.662   3.280   0.921  0.00  0.00    +0.220 C 
ATOM     23  O   UNL     1      -9.817   4.405   1.346  0.00  0.00    -0.275 OA
ATOM     24  H   UNL     1      -8.354   1.913  -0.043  0.00  0.00    +0.149 HD
BRANCH  22  25
ATOM     25  C   UNL     1     -10.774   2.270   1.038  0.00  0.00    +0.048 C 
ATOM     26  C   UNL     1     -10.293   1.075   1.865  0.00  0.00    +0.019 C 
ATOM     27  C   UNL     1     -11.422   0.050   1.984  0.00  0.00    -0.009 C 
ATOM     28  C   UNL     1     -12.626   0.695   2.674  0.00  0.00    +0.007 C 
ATOM     29  C   UNL     1     -13.107   1.889   1.847  0.00  0.00    -0.009 C 
ATOM     30  C   UNL     1     -11.978   2.915   1.728  0.00  0.00    +0.019 C 
ATOM     31  C   UNL     1     -13.514   1.413   0.451  0.00  0.00    +0.007 C 
ATOM     32  C   UNL     1     -12.310   0.768  -0.238  0.00  0.00    -0.009 C 
ATOM     33  C   UNL     1     -11.828  -0.426   0.588  0.00  0.00    +0.007 C 
ATOM     34  C   UNL     1     -11.181   1.793  -0.357  0.00  0.00    +0.019 C 
ENDBRANCH  22  25
ENDBRANCH  20  21
BRANCH  20  36
ATOM     35  C   UNL     1      -8.915   5.560  -0.904  0.00  0.00    +0.009 C 
ATOM     36  C   UNL     1      -7.620   4.756  -1.033  0.00  0.00    +0.012 C 
ATOM     37  C   UNL     1      -6.440   5.714  -1.206  0.00  0.00    +0.009 C 
ENDBRANCH  20  36
ENDBRANCH   1  20
TORSDOF 7
