REMARK  Name = ZINC54734461
REMARK  5 active torsions:
REMARK  status: ('A' for Active; 'I' for Inactive)
REMARK    1  A    between atoms: C_1  and  C_2
REMARK    2  A    between atoms: C_5  and  C_7
REMARK    3  A    between atoms: C_7  and  C_9
REMARK    4  A    between atoms: C_7  and  N_10
REMARK    5  A    between atoms: C_19  and  C_21
REMARK                            x       y       z     vdW  Elec       q    Type
REMARK                         _______ _______ _______ _____ _____    ______ ____
ROOT
ATOM      1  N   UNL     1       2.233  -4.149   0.829  0.00  0.00    -0.292 N 
ATOM      2  C   UNL     1       2.560  -5.326   1.399  0.00  0.00    +0.303 C 
ATOM      3  O   UNL     1       1.840  -6.294   1.253  0.00  0.00    -0.253 OA
ATOM      4  N   UNL     1       3.687  -5.429   2.132  0.00  0.00    -0.279 N 
ATOM      5  C   UNL     1       4.466  -4.206   2.408  0.00  0.00    +0.110 C 
ATOM      6  C   UNL     1       4.968  -4.153   3.862  0.00  0.00    +0.019 C 
ATOM      7  C   UNL     1       3.893  -4.647   4.799  0.00  0.00    +0.002 C 
ATOM      8  C   UNL     1       4.069  -6.146   5.024  0.00  0.00    +0.002 C 
ATOM      9  C   UNL     1       3.436  -6.991   4.000  0.00  0.00    +0.027 C 
ATOM     10  C   UNL     1       4.079  -6.732   2.621  0.00  0.00    +0.108 C 
ATOM     11  H   UNL     1       2.768  -3.360   1.004  0.00  0.00    +0.151 HD
ENDROOT
BRANCH  10  12
ATOM     12  C   UNL     1       3.618  -7.790   1.652  0.00  0.00    -0.024 A 
ATOM     13  C   UNL     1       4.137  -7.852   0.368  0.00  0.00    +0.025 A 
ATOM     14  C   UNL     1       3.690  -8.837  -0.492  0.00  0.00    +0.111 A 
ATOM     15  N   UNL     1       2.782  -9.710  -0.104  0.00  0.00    -0.263 NA
ATOM     16  C   UNL     1       2.266  -9.682   1.109  0.00  0.00    +0.111 A 
ATOM     17  C   UNL     1       2.669  -8.730   2.026  0.00  0.00    +0.025 A 
ENDBRANCH  10  12
BRANCH   1  18
ATOM     18  C   UNL     1       1.068  -4.063  -0.055  0.00  0.00    +0.108 C 
ATOM     19  C   UNL     1       1.473  -4.470  -1.473  0.00  0.00    +0.033 C 
BRANCH  18  24
ATOM     20  C   UNL     1       0.077   1.514  -0.108  0.00  0.00    +0.051 C 
ATOM     21  C   UNL     1       0.078   0.007  -0.092  0.00  0.00    -0.013 A 
ATOM     22  C   UNL     1      -0.974  -0.847  -0.079  0.00  0.00    +0.011 A 
ATOM     23  C   UNL     1      -0.732  -2.208  -0.066  0.00  0.00    +0.013 A 
ATOM     24  C   UNL     1       0.550  -2.648  -0.067  0.00  0.00    +0.010 A 
ATOM     25  S   UNL     1       1.466  -1.116  -0.093  0.00  0.00    -0.097 S 
ENDBRANCH  18  24
ENDBRANCH   1  18
TORSDOF 3
