REMARK  Name = ZINC12245914
REMARK  9 active torsions:
REMARK  status: ('A' for Active; 'I' for Inactive)
REMARK    1  A    between atoms: C_1  and  O_2
REMARK    2  A    between atoms: O_2  and  C_3
REMARK    3  A    between atoms: C_3  and  C_4
REMARK    4  A    between atoms: C_7  and  C_9
REMARK    5  A    between atoms: C_9  and  N_68
REMARK    6  A    between atoms: C_16  and  C_18
REMARK    7  A    between atoms: N_20  and  C_21
REMARK    8  A    between atoms: C_21  and  C_22
REMARK    9  A    between atoms: C_22  and  C_27
REMARK                            x       y       z     vdW  Elec       q    Type
REMARK                         _______ _______ _______ _____ _____    ______ ____
ROOT
ATOM      1  C   UNL     1      -0.437   0.083   1.229  0.00  0.00    -0.078 C 
ATOM      2  C   UNL     1      -0.500   1.613   1.197  0.00  0.00    -0.011 C 
ATOM      3  C   UNL     1       0.910   2.157   0.947  0.00  0.00    -0.021 C 
ATOM      4  C   UNL     1       1.629   1.543  -0.259  0.00  0.00    -0.011 C 
ATOM      5  C   UNL     1       1.567   0.016  -0.141  0.00  0.00    -0.078 C 
ATOM      6  C   UNL     1       1.174   3.628   1.261  0.00  0.00    +0.020 C 
ATOM      7  C   UNL     1       1.754   2.535   2.162  0.00  0.00    +0.082 C 
ATOM      8  N   UNL     1       0.149  -0.397  -0.042  0.00  0.00    +0.384 N 
ATOM      9  H   UNL     1      -0.372   0.015  -0.824  0.00  0.00    -0.081 HD
ENDROOT
BRANCH   7  10
ATOM     10  C   UNL     1       3.238   2.284   2.085  0.00  0.00    +0.217 C 
ATOM     11  O   UNL     1       3.932   2.970   1.365  0.00  0.00    -0.275 OA
ATOM     12  N   UNL     1       3.793   1.297   2.816  0.00  0.00    -0.314 N 
ATOM     13  H   UNL     1       3.238   0.749   3.392  0.00  0.00    +0.149 HD
BRANCH  12  14
ATOM     14  C   UNL     1       5.236   1.053   2.741  0.00  0.00    +0.115 C 
BRANCH  14  15
ATOM     15  C   UNL     1       5.627  -0.013   3.766  0.00  0.00    +0.011 C 
ATOM     16  C   UNL     1       5.190   0.424   5.175  0.00  0.00    +0.013 C 
ATOM     17  C   UNL     1       6.475   0.520   6.024  0.00  0.00    +0.001 C 
ATOM     18  C   UNL     1       7.603   0.736   4.985  0.00  0.00    +0.001 C 
ATOM     19  C   UNL     1       7.161  -0.169   3.808  0.00  0.00    +0.013 C 
BRANCH  15  20
ATOM     20  C   UNL     1       4.984  -1.329   3.411  0.00  0.00    -0.040 A 
ATOM     21  C   UNL     1       4.236  -1.444   2.255  0.00  0.00    +0.004 A 
ATOM     22  C   UNL     1       3.650  -2.652   1.927  0.00  0.00    +0.000 A 
ATOM     23  C   UNL     1       3.805  -3.744   2.761  0.00  0.00    +0.000 A 
ATOM     24  C   UNL     1       4.548  -3.628   3.920  0.00  0.00    +0.000 A 
ATOM     25  C   UNL     1       5.138  -2.421   4.245  0.00  0.00    +0.004 A 
ENDBRANCH  15  20
ENDBRANCH  14  15
ENDBRANCH  12  14
ENDBRANCH   7  10
BRANCH   8  26
ATOM     26  C   UNL     1       0.047  -1.868  -0.120  0.00  0.00    -0.003 C 
BRANCH  26  30
ATOM     27  C   UNL     1       0.329  -2.843  -3.627  0.00  0.00    +0.131 A 
ATOM     28  C   UNL     1       1.615  -2.991  -3.261  0.00  0.00    +0.047 A 
ATOM     29  C   UNL     1       1.693  -2.641  -1.893  0.00  0.00    +0.043 A 
ATOM     30  C   UNL     1       0.450  -2.309  -1.504  0.00  0.00    +0.089 A 
ATOM     31  O   UNL     1      -0.372  -2.430  -2.559  0.00  0.00    -0.464 OA
BRANCH  27  32
ATOM     32  C   UNL     1      -0.230  -3.099  -5.003  0.00  0.00    +0.233 C 
BRANCH  32  34
ATOM     33  C   UNL     1      -1.199  -4.811  -6.373  0.00  0.00    +0.194 C 
ATOM     34  O   UNL     1      -0.650  -4.462  -5.101  0.00  0.00    -0.375 OA
ENDBRANCH  32  34
ENDBRANCH  27  32
ENDBRANCH  26  30
ENDBRANCH   8  26
TORSDOF 8
