REMARK  Name = ZINC66389370
REMARK  12 active torsions:
REMARK  status: ('A' for Active; 'I' for Inactive)
REMARK    1  A    between atoms: C_1  and  C_2
REMARK    2  A    between atoms: C_2  and  C_3
REMARK    3  A    between atoms: C_2  and  C_4
REMARK    4  A    between atoms: C_4  and  C_6
REMARK    5  A    between atoms: C_4  and  N_13
REMARK    6  A    between atoms: N_8  and  C_9
REMARK    7  A    between atoms: C_9  and  C_10
REMARK    8  A    between atoms: C_9  and  C_11
REMARK    9  A    between atoms: C_9  and  C_12
REMARK   10  A    between atoms: N_13  and  C_14
REMARK   11  A    between atoms: C_14  and  C_15
REMARK   12  A    between atoms: C_15  and  C_21
REMARK                            x       y       z     vdW  Elec       q    Type
REMARK                         _______ _______ _______ _____ _____    ______ ____
ROOT
ATOM      1  N   UNL     1      -1.279  -1.767  -0.114  0.00  0.00    +0.387 N 
ATOM      2  H   UNL     1      -2.240  -1.915  -0.386  0.00  0.00    -0.085 HD
ATOM      3  H   UNL     1      -0.687  -2.423  -0.600  0.00  0.00    -0.085 HD
ENDROOT
BRANCH   1   4
ATOM      4  C   UNL     1      -0.878  -0.397  -0.458  0.00  0.00    +0.019 C 
BRANCH   4   5
ATOM      5  C   UNL     1      -1.172  -0.138  -1.913  0.00  0.00    +0.200 C 
ATOM      6  O   UNL     1      -1.353  -1.067  -2.670  0.00  0.00    -0.278 OA
ATOM      7  N   UNL     1      -1.232   1.128  -2.374  0.00  0.00    -0.312 N 
ATOM      8  H   UNL     1      -1.012   1.868  -1.787  0.00  0.00    +0.149 HD
BRANCH   7   9
ATOM      9  C   UNL     1      -1.631   1.385  -3.760  0.00  0.00    +0.026 C 
ATOM     10  C   UNL     1      -3.041   0.838  -3.994  0.00  0.00    +0.031 C 
ATOM     11  C   UNL     1      -1.619   2.892  -4.023  0.00  0.00    +0.031 C 
ATOM     12  C   UNL     1      -0.651   0.693  -4.709  0.00  0.00    +0.031 C 
ENDBRANCH   7   9
ENDBRANCH   4   5
BRANCH   4  14
ATOM     13  C   UNL     1       1.409  -1.110  -1.170  0.00  0.00    +0.006 C 
ATOM     14  C   UNL     1       0.621  -0.225  -0.202  0.00  0.00    -0.023 C 
ATOM     15  C   UNL     1       1.011   1.239  -0.417  0.00  0.00    +0.006 C 
ENDBRANCH   4  14
ENDBRANCH   1   4
BRANCH   1  16
ATOM     16  C   UNL     1      -1.145  -1.967   1.335  0.00  0.00    -0.070 C 
BRANCH  16  17
ATOM     17  C   UNL     1      -1.523  -3.407   1.688  0.00  0.00    -0.015 C 
ATOM     18  C   UNL     1      -1.239  -3.662   3.172  0.00  0.00    +0.038 C 
ATOM     19  C   UNL     1       0.262  -3.512   3.429  0.00  0.00    +0.160 C 
ATOM     20  O   UNL     1       0.981  -4.420   2.592  0.00  0.00    -0.380 OA
ATOM     21  C   UNL     1       0.792  -4.199   1.193  0.00  0.00    +0.160 C 
ATOM     22  C   UNL     1      -0.689  -4.377   0.846  0.00  0.00    +0.038 C 
BRANCH  17  23
ATOM     23  C   UNL     1      -2.987  -3.627   1.408  0.00  0.00    -0.041 A 
ATOM     24  C   UNL     1      -3.785  -2.565   1.025  0.00  0.00    +0.004 A 
ATOM     25  C   UNL     1      -5.128  -2.766   0.768  0.00  0.00    +0.002 A 
ATOM     26  C   UNL     1      -5.675  -4.030   0.894  0.00  0.00    +0.020 A 
ATOM     27  C   UNL     1      -4.877  -5.093   1.277  0.00  0.00    +0.041 A 
ATOM     28  C   UNL     1      -3.531  -4.892   1.529  0.00  0.00    +0.024 A 
ATOM     29 CL   UNL     1      -5.563  -6.680   1.436  0.00  0.00    -0.084 Cl
ENDBRANCH  17  23
ENDBRANCH  16  17
ENDBRANCH   1  16
TORSDOF 7
