REMARK  Name = ZINC39859360
REMARK  14 active torsions:
REMARK  status: ('A' for Active; 'I' for Inactive)
REMARK    1  A    between atoms: C_1  and  C_2
REMARK    2  A    between atoms: C_2  and  C_3
REMARK    3  A    between atoms: C_7  and  C_26
REMARK    4  A    between atoms: C_8  and  N_9
REMARK    5  A    between atoms: N_9  and  C_10
REMARK    6  A    between atoms: C_10  and  N_12
REMARK    7  A    between atoms: N_12  and  C_13
REMARK    8  A    between atoms: C_13  and  C_15
REMARK    9  A    between atoms: C_13  and  N_19
REMARK   10  A    between atoms: C_20  and  C_22
REMARK   11  A    between atoms: C_22  and  C_23
REMARK   12  A    between atoms: C_22  and  C_24
REMARK   13  A    between atoms: C_22  and  C_25
REMARK   14  A    between atoms: C_26  and  C_27
REMARK                            x       y       z     vdW  Elec       q    Type
REMARK                         _______ _______ _______ _____ _____    ______ ____
ROOT
ATOM      1  N   UNL     1       4.259   0.025   1.254  0.00  0.00    -0.305 N 
ATOM      2  H   UNL     1       3.715   0.547   1.864  0.00  0.00    +0.150 HD
ENDROOT
BRANCH   1   3
ATOM      3  C   UNL     1       3.750  -0.376   0.072  0.00  0.00    +0.136 C 
ATOM      4  S   UNL     1       4.710  -1.298  -1.005  0.00  0.00    -0.019 S 
BRANCH   3   5
ATOM      5  N   UNL     1       2.485  -0.052  -0.262  0.00  0.00    -0.296 N 
ATOM      6  H   UNL     1       1.964   0.528   0.316  0.00  0.00    +0.154 HD
BRANCH   5  12
ATOM      7  C   UNL     1       2.160   0.091  -2.651  0.00  0.00    -0.026 A 
ATOM      8  C   UNL     1       1.609  -0.407  -3.815  0.00  0.00    +0.005 A 
ATOM      9  C   UNL     1       0.818  -1.541  -3.777  0.00  0.00    +0.001 A 
ATOM     10  C   UNL     1       0.576  -2.179  -2.574  0.00  0.00    +0.005 A 
ATOM     11  C   UNL     1       1.124  -1.685  -1.407  0.00  0.00    -0.026 A 
ATOM     12  C   UNL     1       1.923  -0.550  -1.442  0.00  0.00    +0.039 A 
BRANCH   7  14
ATOM     13  C   UNL     1       3.317   1.694  -4.149  0.00  0.00    +0.009 C 
ATOM     14  C   UNL     1       3.022   1.327  -2.693  0.00  0.00    +0.033 C 
ENDBRANCH   7  14
BRANCH  11  15
ATOM     15  C   UNL     1       0.859  -2.381  -0.096  0.00  0.00    +0.033 C 
ATOM     16  C   UNL     1      -0.329  -1.718   0.603  0.00  0.00    +0.009 C 
ENDBRANCH  11  15
ENDBRANCH   5  12
ENDBRANCH   3   5
ENDBRANCH   1   3
BRANCH   1  17
ATOM     17  C   UNL     1       5.633  -0.329   1.617  0.00  0.00    +0.211 C 
BRANCH  17  18
ATOM     18  C   UNL     1       6.340   0.900   2.194  0.00  0.00    +0.225 C 
ATOM     19 CL   UNL     1       5.457   1.467   3.661  0.00  0.00    -0.080 Cl
ATOM     20 CL   UNL     1       8.032   0.465   2.641  0.00  0.00    -0.080 Cl
ATOM     21 CL   UNL     1       6.363   2.215   0.961  0.00  0.00    -0.080 Cl
ENDBRANCH  17  18
BRANCH  17  22
ATOM     22  N   UNL     1       5.615  -1.397   2.619  0.00  0.00    -0.293 N 
ATOM     23  C   UNL     1       5.927  -2.659   2.264  0.00  0.00    +0.220 C 
ATOM     24  O   UNL     1       6.224  -2.910   1.115  0.00  0.00    -0.275 OA
ATOM     25  H   UNL     1       5.378  -1.196   3.538  0.00  0.00    +0.151 HD
BRANCH  23  26
ATOM     26  C   UNL     1       5.908  -3.758   3.295  0.00  0.00    +0.039 C 
ATOM     27  C   UNL     1       6.298  -5.083   2.636  0.00  0.00    +0.020 C 
ATOM     28  C   UNL     1       6.904  -3.430   4.409  0.00  0.00    +0.020 C 
ATOM     29  C   UNL     1       4.502  -3.878   3.887  0.00  0.00    +0.020 C 
ENDBRANCH  23  26
ENDBRANCH  17  22
ENDBRANCH   1  17
TORSDOF 9
