REMARK  Name = ZINC01276311
REMARK  9 active torsions:
REMARK  status: ('A' for Active; 'I' for Inactive)
REMARK    1  A    between atoms: C_1  and  C_2
REMARK    2  A    between atoms: C_2  and  C_3
REMARK    3  A    between atoms: C_3  and  C_5
REMARK    4  A    between atoms: C_3  and  N_6
REMARK    5  A    between atoms: N_9  and  C_17
REMARK    6  A    between atoms: C_10  and  C_15
REMARK    7  A    between atoms: C_10  and  O_16
REMARK    8  A    between atoms: C_12  and  C_13
REMARK    9  A    between atoms: C_12  and  C_14
REMARK                            x       y       z     vdW  Elec       q    Type
REMARK                         _______ _______ _______ _____ _____    ______ ____
ROOT
ATOM      1  N   UNL     1      -3.489  -0.558   0.233  0.00  0.00    -0.277 N 
ATOM      2  C   UNL     1      -2.251  -0.051   0.240  0.00  0.00    +0.312 C 
ATOM      3  O   UNL     1      -2.115   1.152   0.364  0.00  0.00    -0.252 OA
ATOM      4  N   UNL     1      -1.156  -0.810   0.116  0.00  0.00    -0.226 N 
ATOM      5  C   UNL     1      -1.217  -2.260  -0.028  0.00  0.00    +0.140 C 
ATOM      6  C   UNL     1      -2.541  -2.832   0.453  0.00  0.00    +0.080 C 
ATOM      7  C   UNL     1      -3.752  -1.987   0.086  0.00  0.00    +0.038 C 
ATOM      8  C   UNL     1      -4.909  -2.357   1.036  0.00  0.00    +0.032 C 
ATOM      9  C   UNL     1      -4.210  -2.281  -1.346  0.00  0.00    +0.032 C 
ATOM     10  C   UNL     1      -0.950  -2.646  -1.486  0.00  0.00    +0.064 C 
ENDROOT
BRANCH   4  11
ATOM     11  C   UNL     1       0.101  -0.183   0.127  0.00  0.00    +0.042 A 
ATOM     12  C   UNL     1       0.571   0.452  -1.014  0.00  0.00    +0.025 A 
ATOM     13  C   UNL     1       1.807   1.069  -1.002  0.00  0.00    +0.023 A 
ATOM     14  C   UNL     1       2.577   1.054   0.148  0.00  0.00    +0.059 A 
ATOM     15  C   UNL     1       2.111   0.421   1.288  0.00  0.00    +0.061 A 
ATOM     16  C   UNL     1       0.874  -0.197   1.280  0.00  0.00    +0.045 A 
ATOM     17 CL   UNL     1       3.079   0.405   2.729  0.00  0.00    -0.082 Cl
ATOM     18 CL   UNL     1       4.130   1.830   0.161  0.00  0.00    -0.082 Cl
ENDBRANCH   4  11
BRANCH   1  19
ATOM     19  C   UNL     1      -4.627   0.359   0.378  0.00  0.00    +0.075 C 
ATOM     20  C   UNL     1      -4.695   1.284  -0.839  0.00  0.00    +0.028 C 
BRANCH  19  22
ATOM     21  C   UNL     1      -4.505   0.284   2.872  0.00  0.00    +0.006 C 
ATOM     22  C   UNL     1      -4.448   1.197   1.646  0.00  0.00    +0.019 C 
ENDBRANCH  19  22
ENDBRANCH   1  19
BRANCH   5  23
ATOM     23  O   UNL     1      -0.161  -2.828   0.774  0.00  0.00    -0.371 OA
ATOM     24  H   UNL     1       0.728  -2.590   0.479  0.00  0.00    +0.212 HD
ENDBRANCH   5  23
TORSDOF 4
