REMARK  Name = ZINC17157339
REMARK  5 active torsions:
REMARK  status: ('A' for Active; 'I' for Inactive)
REMARK    1  A    between atoms: C_1  and  C_2
REMARK    2  A    between atoms: N_11  and  C_15
REMARK    3  A    between atoms: C_15  and  C_16
REMARK    4  A    between atoms: N_18  and  N_19
REMARK    5  A    between atoms: C_20  and  C_22
REMARK                            x       y       z     vdW  Elec       q    Type
REMARK                         _______ _______ _______ _____ _____    ______ ____
ROOT
ATOM      1  C   UNL     1      -1.658   5.108   2.846  0.00  0.00    +0.247 C 
ATOM      2  O   UNL     1      -1.215   5.906   2.048  0.00  0.00    -0.273 OA
ATOM      3  N   UNL     1      -1.519   3.786   2.625  0.00  0.00    -0.233 N 
ATOM      4  H   UNL     1      -1.873   3.147   3.263  0.00  0.00    +0.173 HD
ENDROOT
BRANCH   3   5
ATOM      5  N   UNL     1      -0.863   3.334   1.472  0.00  0.00    -0.234 N 
ATOM      6  C   UNL     1      -0.724   2.012   1.250  0.00  0.00    +0.235 C 
ATOM      7  O   UNL     1      -1.167   1.213   2.049  0.00  0.00    -0.274 OA
ATOM      8  H   UNL     1      -0.509   3.973   0.834  0.00  0.00    +0.173 HD
BRANCH   6   9
ATOM      9  C   UNL     1      -0.019   1.526   0.010  0.00  0.00    +0.049 C 
ATOM     10  C   UNL     1       1.417   2.055  -0.000  0.00  0.00    +0.019 C 
ATOM     11  C   UNL     1       2.133   1.562  -1.259  0.00  0.00    -0.009 C 
ATOM     12  C   UNL     1       2.154   0.032  -1.268  0.00  0.00    +0.007 C 
ATOM     13  C   UNL     1       0.718  -0.497  -1.257  0.00  0.00    -0.009 C 
ATOM     14  C   UNL     1       0.002  -0.004   0.002  0.00  0.00    +0.019 C 
ATOM     15  C   UNL     1      -0.022   0.009  -2.496  0.00  0.00    +0.007 C 
ATOM     16  C   UNL     1      -0.043   1.539  -2.488  0.00  0.00    -0.009 C 
ATOM     17  C   UNL     1       1.393   2.069  -2.499  0.00  0.00    +0.007 C 
ATOM     18  C   UNL     1      -0.759   2.033  -1.229  0.00  0.00    +0.019 C 
ENDBRANCH   6   9
ENDBRANCH   3   5
BRANCH   1  19
ATOM     19  C   UNL     1      -2.363   5.594   4.086  0.00  0.00    +0.215 C 
BRANCH  19  29
ATOM     20  C   UNL     1      -3.078   9.179   6.595  0.00  0.00    +0.010 C 
ATOM     21  C   UNL     1      -2.075   9.967   5.749  0.00  0.00    +0.018 C 
ATOM     22  C   UNL     1      -0.743  10.064   6.497  0.00  0.00    +0.006 C 
ATOM     23  C   UNL     1       0.265  10.834   5.641  0.00  0.00    +0.000 C 
ATOM     24  C   UNL     1       0.485  10.094   4.320  0.00  0.00    +0.003 C 
ATOM     25  C   UNL     1      -0.842   9.997   3.564  0.00  0.00    +0.035 C 
ATOM     26  C   UNL     1      -1.864   9.254   4.418  0.00  0.00    +0.115 C 
ATOM     27  C   UNL     1      -1.424   7.827   4.652  0.00  0.00    +0.247 C 
ATOM     28  O   UNL     1      -0.421   7.452   5.219  0.00  0.00    -0.273 OA
ATOM     29  N   UNL     1      -2.383   7.059   4.094  0.00  0.00    -0.215 N 
ATOM     30  C   UNL     1      -3.358   7.801   3.554  0.00  0.00    +0.310 C 
ATOM     31  O   UNL     1      -4.332   7.335   2.997  0.00  0.00    -0.252 OA
ATOM     32  N   UNL     1      -3.136   9.122   3.697  0.00  0.00    -0.285 N 
ATOM     33  H   UNL     1      -3.706   9.843   3.386  0.00  0.00    +0.151 HD
ENDBRANCH  19  29
ENDBRANCH   1  19
TORSDOF 4
