REMARK  Name = ZINC11072497
REMARK  7 active torsions:
REMARK  status: ('A' for Active; 'I' for Inactive)
REMARK    1  A    between atoms: C_1  and  C_2
REMARK    2  A    between atoms: C_15  and  C_17
REMARK    3  A    between atoms: C_17  and  N_52
REMARK    4  A    between atoms: C_18  and  N_52
REMARK    5  A    between atoms: C_19  and  C_20
REMARK    6  A    between atoms: C_19  and  N_52
REMARK    7  A    between atoms: N_22  and  C_23
REMARK                            x       y       z     vdW  Elec       q    Type
REMARK                         _______ _______ _______ _____ _____    ______ ____
ROOT
ATOM      1  C   UNL     1      -6.106   1.835  -0.146  0.00  0.00    +0.019 C 
ENDROOT
BRANCH   1  15
ATOM      2  C   UNL     1      -9.965   0.106   1.742  0.00  0.00    +0.029 C 
ATOM      3  C   UNL     1      -9.545   0.199   0.274  0.00  0.00    +0.087 C 
ATOM      4  C   UNL     1     -10.750   0.612  -0.573  0.00  0.00    +0.118 C 
ATOM      5  C   UNL     1     -10.293   1.090  -1.926  0.00  0.00    +0.219 C 
ATOM      6  O   UNL     1     -10.437   0.376  -2.897  0.00  0.00    -0.275 OA
ATOM      7  N   UNL     1      -9.723   2.307  -2.068  0.00  0.00    -0.284 N 
ATOM      8  C   UNL     1      -9.468   3.108  -0.948  0.00  0.00    +0.055 A 
ATOM      9  C   UNL     1      -9.848   4.439  -0.923  0.00  0.00    +0.025 A 
ATOM     10  C   UNL     1      -9.555   5.217   0.183  0.00  0.00    +0.002 A 
ATOM     11  C   UNL     1      -8.885   4.669   1.262  0.00  0.00    +0.002 A 
ATOM     12  C   UNL     1      -8.514   3.337   1.249  0.00  0.00    +0.025 A 
ATOM     13  C   UNL     1      -8.815   2.549   0.156  0.00  0.00    +0.058 A 
ATOM     14  N   UNL     1      -8.477   1.189   0.135  0.00  0.00    -0.268 N 
ATOM     15  C   UNL     1      -7.194   0.802  -0.004  0.00  0.00    +0.204 C 
ATOM     16  O   UNL     1      -6.914  -0.378  -0.015  0.00  0.00    -0.277 OA
ATOM     17  H   UNL     1      -9.489   2.629  -2.952  0.00  0.00    +0.155 HD
ENDBRANCH   1  15
BRANCH   1  19
ATOM     18  C   UNL     1      -4.735   0.406  -1.538  0.00  0.00    -0.095 C 
ATOM     19  N   UNL     1      -4.804   1.145  -0.260  0.00  0.00    +0.389 N 
ATOM     20  H   UNL     1      -4.711   0.479   0.516  0.00  0.00    -0.081 HD
BRANCH  19  21
ATOM     21  C   UNL     1      -3.703   2.127  -0.184  0.00  0.00    +0.019 C 
BRANCH  21  22
ATOM     22  C   UNL     1      -2.395   1.385  -0.081  0.00  0.00    +0.201 C 
ATOM     23  O   UNL     1      -2.384   0.172  -0.088  0.00  0.00    -0.278 OA
ATOM     24  N   UNL     1      -1.238   2.069   0.019  0.00  0.00    -0.285 N 
ATOM     25  H   UNL     1      -1.251   3.036   0.089  0.00  0.00    +0.155 HD
BRANCH  24  26
ATOM     26  C   UNL     1      -0.017   1.383   0.021  0.00  0.00    +0.070 A 
ATOM     27  C   UNL     1       0.077   0.134   0.619  0.00  0.00    +0.046 A 
ATOM     28  C   UNL     1       1.282  -0.544   0.614  0.00  0.00    +0.043 A 
ATOM     29  C   UNL     1       2.394   0.022   0.015  0.00  0.00    +0.023 A 
ATOM     30  C   UNL     1       2.304   1.266  -0.581  0.00  0.00    +0.041 A 
ATOM     31  C   UNL     1       1.101   1.949  -0.580  0.00  0.00    +0.145 A 
ATOM     32  F   UNL     1       1.014   3.165  -1.162  0.00  0.00    -0.204 F 
ATOM     33 CL   UNL     1       1.401  -2.106   1.362  0.00  0.00    -0.083 Cl
ENDBRANCH  24  26
ENDBRANCH  21  22
ENDBRANCH  19  21
ENDBRANCH   1  19
TORSDOF 5
