REMARK  Name = ZINC62626357
REMARK  14 active torsions:
REMARK  status: ('A' for Active; 'I' for Inactive)
REMARK    1  A    between atoms: C_1  and  C_2
REMARK    2  A    between atoms: C_2  and  C_3
REMARK    3  A    between atoms: C_3  and  N_4
REMARK    4  A    between atoms: C_8  and  S_30
REMARK    5  A    between atoms: C_12  and  C_13
REMARK    6  A    between atoms: C_13  and  N_14
REMARK    7  A    between atoms: N_14  and  C_15
REMARK    8  A    between atoms: C_20  and  C_21
REMARK    9  A    between atoms: C_21  and  N_22
REMARK   10  A    between atoms: C_25  and  C_28
REMARK   11  A    between atoms: C_28  and  O_29
REMARK   12  A    between atoms: S_30  and  N_33
REMARK   13  A    between atoms: N_33  and  C_34
REMARK   14  A    between atoms: N_33  and  C_35
REMARK                            x       y       z     vdW  Elec       q    Type
REMARK                         _______ _______ _______ _____ _____    ______ ____
ROOT
ATOM      1  C   UNL     1       2.938  -2.262  -0.052  0.00  0.00    +0.176 C 
ENDROOT
BRANCH   1  10
ATOM      2  N   UNL     1       0.762  -1.976   1.234  0.00  0.00    -0.326 N 
ATOM      3  C   UNL     1      -0.187  -2.810   1.789  0.00  0.00    +0.069 A 
ATOM      4  C   UNL     1      -1.373  -2.600   2.480  0.00  0.00    +0.030 A 
ATOM      5  C   UNL     1      -2.111  -3.681   2.914  0.00  0.00    +0.030 A 
ATOM      6  C   UNL     1      -1.676  -4.975   2.664  0.00  0.00    +0.108 A 
ATOM      7  C   UNL     1      -0.512  -5.200   1.986  0.00  0.00    +0.058 A 
ATOM      8  C   UNL     1       0.252  -4.120   1.536  0.00  0.00    +0.091 A 
ATOM      9  N   UNL     1       1.422  -4.020   0.854  0.00  0.00    -0.231 NA
ATOM     10  C   UNL     1       1.716  -2.766   0.672  0.00  0.00    +0.128 A 
BRANCH   6  11
ATOM     11  S   UNL     1      -2.635  -6.342   3.227  0.00  0.00    +0.060 S 
ATOM     12  O   UNL     1      -1.744  -7.441   3.348  0.00  0.00    -0.153 OA
ATOM     13  O   UNL     1      -3.414  -5.869   4.318  0.00  0.00    -0.153 OA
BRANCH  11  14
ATOM     14  N   UNL     1      -3.699  -6.725   2.018  0.00  0.00    -0.183 NA
ATOM     15  C   UNL     1      -3.319  -7.696   0.988  0.00  0.00    +0.131 C 
ATOM     16  C   UNL     1      -5.021  -6.094   1.976  0.00  0.00    +0.131 C 
ENDBRANCH  11  14
ENDBRANCH   6  11
BRANCH   2  17
ATOM     17  C   UNL     1       0.742  -0.511   1.242  0.00  0.00    +0.123 C 
BRANCH  17  19
ATOM     18  C   UNL     1      -0.019   1.526   0.010  0.00  0.00    +0.005 C 
ATOM     19  C   UNL     1       0.002  -0.004   0.002  0.00  0.00    +0.018 C 
ENDBRANCH  17  19
ENDBRANCH   2  17
ENDBRANCH   1  10
BRANCH   1  20
ATOM     20  N   UNL     1       4.037  -2.095   0.902  0.00  0.00    -0.337 N 
ATOM     21  H   UNL     1       3.901  -2.304   1.840  0.00  0.00    +0.147 HD
BRANCH  20  22
ATOM     22  C   UNL     1       5.280  -1.635   0.462  0.00  0.00    +0.029 A 
ATOM     23  C   UNL     1       5.475  -1.331  -0.879  0.00  0.00    +0.023 A 
ATOM     24  C   UNL     1       6.705  -0.876  -1.311  0.00  0.00    +0.002 A 
ATOM     25  C   UNL     1       7.743  -0.724  -0.409  0.00  0.00    +0.000 A 
ATOM     26  C   UNL     1       7.553  -1.027   0.926  0.00  0.00    +0.003 A 
ATOM     27  C   UNL     1       6.323  -1.477   1.366  0.00  0.00    -0.043 A 
BRANCH  27  28
ATOM     28  C   UNL     1       6.115  -1.800   2.823  0.00  0.00    -0.041 C 
BRANCH  28  29
ATOM     29  N   UNL     1       6.214  -3.252   3.021  0.00  0.00    +0.382 N 
ATOM     30  C   UNL     1       7.577  -3.696   2.707  0.00  0.00    -0.078 C 
ATOM     31  C   UNL     1       7.664  -5.218   2.833  0.00  0.00    -0.013 C 
ATOM     32  C   UNL     1       7.310  -5.627   4.266  0.00  0.00    +0.011 C 
ATOM     33  C   UNL     1       5.915  -5.095   4.608  0.00  0.00    -0.013 C 
ATOM     34  C   UNL     1       5.893  -3.578   4.416  0.00  0.00    -0.078 C 
ATOM     35  H   UNL     1       5.561  -3.720   2.409  0.00  0.00    -0.081 HD
BRANCH  32  36
ATOM     36  C   UNL     1       7.317  -7.153   4.379  0.00  0.00    +0.159 C 
BRANCH  36  37
ATOM     37  O   UNL     1       7.102  -7.531   5.740  0.00  0.00    -0.395 OA
ATOM     38  H   UNL     1       7.094  -8.487   5.887  0.00  0.00    +0.209 HD
ENDBRANCH  36  37
ENDBRANCH  32  36
ENDBRANCH  28  29
ENDBRANCH  27  28
ENDBRANCH  20  22
ENDBRANCH   1  20
TORSDOF 11
