REMARK  Name = ZINC09360656
REMARK  7 active torsions:
REMARK  status: ('A' for Active; 'I' for Inactive)
REMARK    1  A    between atoms: C_1  and  C_2
REMARK    2  A    between atoms: C_3  and  C_19
REMARK    3  A    between atoms: N_10  and  C_11
REMARK    4  A    between atoms: C_19  and  C_20
REMARK    5  A    between atoms: C_20  and  C_21
REMARK    6  A    between atoms: C_21  and  C_22
REMARK    7  A    between atoms: C_21  and  C_23
REMARK                            x       y       z     vdW  Elec       q    Type
REMARK                         _______ _______ _______ _____ _____    ______ ____
ROOT
ATOM      1  C   UNL     1      -0.035   1.486  -0.252  0.00  0.00    +0.066 C 
ATOM      2  C   UNL     1      -0.003  -0.009  -0.065  0.00  0.00    +0.050 A 
ATOM      3  C   UNL     1      -1.162  -0.693   0.158  0.00  0.00    +0.038 A 
ATOM      4  C   UNL     1      -1.106  -2.088   0.328  0.00  0.00    +0.256 A 
ATOM      5  O   UNL     1      -2.123  -2.731   0.529  0.00  0.00    -0.267 OA
ATOM      6  N   UNL     1       0.095  -2.702   0.264  0.00  0.00    -0.295 N 
ATOM      7  H   UNL     1       0.157  -3.663   0.379  0.00  0.00    +0.172 HD
ATOM      8  C   UNL     1       1.218  -1.967   0.039  0.00  0.00    +0.200 A 
ATOM      9  N   UNL     1       1.156  -0.660  -0.125  0.00  0.00    -0.221 NA
ATOM     10  N   UNL     1       2.433  -2.597  -0.024  0.00  0.00    -0.284 N 
ATOM     11  H   UNL     1       2.479  -3.566   0.005  0.00  0.00    +0.155 HD
ENDROOT
BRANCH  10  12
ATOM     12  C   UNL     1       3.607  -1.843  -0.132  0.00  0.00    +0.052 A 
ATOM     13  C   UNL     1       3.688  -0.592   0.466  0.00  0.00    +0.026 A 
ATOM     14  C   UNL     1       4.848   0.149   0.359  0.00  0.00    +0.022 A 
ATOM     15  C   UNL     1       5.930  -0.352  -0.343  0.00  0.00    +0.042 A 
ATOM     16  C   UNL     1       5.853  -1.598  -0.940  0.00  0.00    +0.041 A 
ATOM     17  C   UNL     1       4.697  -2.347  -0.831  0.00  0.00    +0.064 A 
ATOM     18 CL   UNL     1       4.603  -3.914  -1.574  0.00  0.00    -0.082 Cl
ATOM     19 CL   UNL     1       7.386   0.584  -0.475  0.00  0.00    -0.083 Cl
ENDBRANCH  10  12
BRANCH   3  20
ATOM     20  C   UNL     1      -2.481   0.034   0.222  0.00  0.00    +0.042 C 
BRANCH  20  21
ATOM     21  C   UNL     1      -3.153  -0.008  -1.151  0.00  0.00    +0.008 C 
BRANCH  21  22
ATOM     22  C   UNL     1      -4.492   0.731  -1.087  0.00  0.00    -0.017 C 
ATOM     23  C   UNL     1      -4.243   2.213  -0.803  0.00  0.00    +0.007 C 
ATOM     24  C   UNL     1      -5.221   0.583  -2.423  0.00  0.00    +0.007 C 
ENDBRANCH  21  22
ENDBRANCH  20  21
ENDBRANCH   3  20
TORSDOF 4
