REMARK  Name = ZINC20465631
REMARK  9 active torsions:
REMARK  status: ('A' for Active; 'I' for Inactive)
REMARK    1  A    between atoms: C_1  and  C_2
REMARK    2  A    between atoms: C_5  and  S_8
REMARK    3  A    between atoms: S_8  and  N_11
REMARK    4  A    between atoms: N_11  and  C_12
REMARK    5  A    between atoms: C_12  and  C_13
REMARK    6  A    between atoms: C_15  and  N_25
REMARK    7  A    between atoms: C_17  and  O_24
REMARK    8  A    between atoms: C_19  and  C_22
REMARK    9  A    between atoms: C_22  and  O_23
REMARK                            x       y       z     vdW  Elec       q    Type
REMARK                         _______ _______ _______ _____ _____    ______ ____
ROOT
ATOM      1  C   UNL     1      -0.755   1.626   1.180  0.00  0.00    +0.154 C 
ATOM      2  C   UNL     1      -0.007   1.145  -0.083  0.00  0.00    +0.118 C 
ATOM      3  C   UNL     1      -0.877   1.654  -1.254  0.00  0.00    +0.165 C 
ATOM      4  C   UNL     1      -2.050   2.382  -0.562  0.00  0.00    +0.174 C 
ATOM      5  O   UNL     1      -1.538   2.757   0.735  0.00  0.00    -0.366 OA
ENDROOT
BRANCH   2   6
ATOM      6  N   UNL     1       1.335   1.738  -0.143  0.00  0.00    -0.292 NA
ATOM      7  C   UNL     1       1.262   3.205  -0.179  0.00  0.00    +0.104 C 
ATOM      8  C   UNL     1       2.678   3.785  -0.161  0.00  0.00    +0.122 C 
ATOM      9  N   UNL     1       3.431   3.269  -1.313  0.00  0.00    -0.314 N 
ATOM     10  C   UNL     1       3.504   1.802  -1.277  0.00  0.00    +0.122 C 
ATOM     11  C   UNL     1       2.088   1.222  -1.295  0.00  0.00    +0.104 C 
ATOM     12  C   UNL     1       4.701   3.830  -1.370  0.00  0.00    +0.099 A 
ATOM     13  C   UNL     1       4.843   5.214  -1.417  0.00  0.00    +0.042 A 
ATOM     14  C   UNL     1       6.113   5.758  -1.468  0.00  0.00    +0.005 A 
ATOM     15  C   UNL     1       7.203   4.898  -1.481  0.00  0.00    +0.018 A 
ATOM     16  C   UNL     1       6.989   3.535  -1.437  0.00  0.00    +0.084 A 
ATOM     17  N   UNL     1       5.766   3.043  -1.384  0.00  0.00    -0.350 N 
ATOM     18  H   UNL     1       5.643   1.951  -1.351  0.00  0.00    +0.166 HD
ENDBRANCH   2   6
BRANCH   3  19
ATOM     19  O   UNL     1      -0.135   2.563  -2.070  0.00  0.00    -0.388 OA
ATOM     20  H   UNL     1      -0.607   3.021  -2.952  0.00  0.00    +0.210 HD
ENDBRANCH   3  19
BRANCH   1  21
ATOM     21  C   UNL     1       0.242   2.055   2.259  0.00  0.00    +0.139 C 
BRANCH  21  22
ATOM     22  N   UNL     1      -0.479   2.356   3.498  0.00  0.00    -0.187 NA
ATOM     23  H   UNL     1      -1.536   2.658   3.460  0.00  0.00    +0.148 HD
BRANCH  22  24
ATOM     24  S   UNL     1       0.348   2.484   4.927  0.00  0.00    +0.058 S 
ATOM     25  O   UNL     1      -0.612   2.804   5.925  0.00  0.00    -0.153 OA
ATOM     26  O   UNL     1       1.186   1.339   5.015  0.00  0.00    -0.153 OA
BRANCH  24  31
ATOM     27  C   UNL     1       4.001   7.262   4.451  0.00  0.00    +0.044 C 
ATOM     28  C   UNL     1       3.089   6.069   4.571  0.00  0.00    -0.050 A 
ATOM     29  C   UNL     1       1.807   6.225   5.062  0.00  0.00    +0.005 A 
ATOM     30  C   UNL     1       0.970   5.130   5.171  0.00  0.00    +0.029 A 
ATOM     31  C   UNL     1       1.415   3.879   4.788  0.00  0.00    +0.105 A 
ATOM     32  C   UNL     1       2.699   3.721   4.302  0.00  0.00    +0.029 A 
ATOM     33  C   UNL     1       3.535   4.817   4.189  0.00  0.00    +0.005 A 
ENDBRANCH  24  31
ENDBRANCH  22  24
ENDBRANCH  21  22
ENDBRANCH   1  21
BRANCH   4  34
ATOM     34  C   UNL     1      -2.449   3.626  -1.358  0.00  0.00    +0.190 C 
BRANCH  34  35
ATOM     35  O   UNL     1      -3.608   4.219  -0.767  0.00  0.00    -0.392 OA
ATOM     36  H   UNL     1      -4.044   5.129  -1.204  0.00  0.00    +0.210 HD
ENDBRANCH  34  35
ENDBRANCH   4  34
TORSDOF 8
