REMARK  Name = ZINC22857902
REMARK  3 active torsions:
REMARK  status: ('A' for Active; 'I' for Inactive)
REMARK    1  A    between atoms: C_8  and  C_24
REMARK    2  A    between atoms: N_10  and  S_11
REMARK    3  A    between atoms: S_11  and  C_14
REMARK                            x       y       z     vdW  Elec       q    Type
REMARK                         _______ _______ _______ _____ _____    ______ ____
ROOT
ATOM      1  C   UNL     1       4.422   4.931   2.833  0.00  0.00    +0.000 A 
ATOM      2  C   UNL     1       4.387   4.216   1.649  0.00  0.00    +0.002 A 
ATOM      3  C   UNL     1       3.179   3.841   1.101  0.00  0.00    +0.025 A 
ATOM      4  C   UNL     1       1.982   4.176   1.737  0.00  0.00    +0.055 A 
ATOM      5  C   UNL     1       2.028   4.897   2.920  0.00  0.00    -0.022 A 
ATOM      6  C   UNL     1       3.241   5.270   3.466  0.00  0.00    +0.005 A 
ATOM      7  C   UNL     1       0.612   5.133   3.394  0.00  0.00    +0.070 C 
ATOM      8  C   UNL     1      -0.269   4.460   2.330  0.00  0.00    +0.187 C 
ATOM      9  N   UNL     1       0.669   3.903   1.351  0.00  0.00    -0.191 N 
ENDROOT
BRANCH   8  10
ATOM     10  C   UNL     1      -1.166   5.477   1.673  0.00  0.00    +0.233 C 
ATOM     11  O   UNL     1      -0.835   5.992   0.627  0.00  0.00    -0.274 OA
ATOM     12  N   UNL     1      -2.337   5.814   2.250  0.00  0.00    -0.328 N 
ATOM     13  H   UNL     1      -2.992   6.557   1.770  0.00  0.00    +0.145 HD
ATOM     14  H   UNL     1      -2.638   5.347   3.199  0.00  0.00    +0.145 HD
ENDBRANCH   8  10
BRANCH   9  15
ATOM     15  S   UNL     1       0.234   3.065  -0.009  0.00  0.00    +0.075 S 
ATOM     16  O   UNL     1       1.245   3.311  -0.978  0.00  0.00    -0.150 OA
ATOM     17  O   UNL     1      -1.135   3.358  -0.247  0.00  0.00    -0.150 OA
BRANCH  15  18
ATOM     18  C   UNL     1       0.321   1.350   0.385  0.00  0.00    +0.109 A 
ATOM     19  C   UNL     1       1.463   0.627   0.091  0.00  0.00    +0.029 A 
ATOM     20  C   UNL     1       1.522  -0.715   0.401  0.00  0.00    +0.006 A 
ATOM     21  C   UNL     1       0.443  -1.349   1.004  0.00  0.00    -0.044 A 
ATOM     22  C   UNL     1      -0.692  -0.629   1.300  0.00  0.00    -0.042 A 
ATOM     23  C   UNL     1      -0.750   0.723   0.986  0.00  0.00    +0.032 A 
ATOM     24  C   UNL     1      -1.891  -1.246   1.970  0.00  0.00    +0.035 C 
ATOM     25  C   UNL     1      -1.849  -2.768   1.851  0.00  0.00    +0.005 C 
ATOM     26  C   UNL     1      -0.475  -3.253   2.326  0.00  0.00    +0.005 C 
ATOM     27  C   UNL     1       0.571  -2.821   1.301  0.00  0.00    +0.035 C 
ENDBRANCH  15  18
ENDBRANCH   9  15
TORSDOF 3
