REMARK  Name = ZINC07350143
REMARK  4 active torsions:
REMARK  status: ('A' for Active; 'I' for Inactive)
REMARK    1  A    between atoms: C_2  and  C_3
REMARK    2  A    between atoms: C_3  and  N_4
REMARK    3  A    between atoms: N_14  and  C_15
REMARK    4  A    between atoms: C_15  and  C_17
REMARK                            x       y       z     vdW  Elec       q    Type
REMARK                         _______ _______ _______ _____ _____    ______ ____
ROOT
ATOM      1  N   UNL     1      -2.127  -7.097   0.661  0.00  0.00    -0.316 N 
ATOM      2  C   UNL     1      -1.929  -8.466   0.632  0.00  0.00    +0.076 A 
ATOM      3  C   UNL     1      -0.653  -8.869   0.213  0.00  0.00    +0.040 A 
ATOM      4  C   UNL     1      -0.288 -10.191   0.126  0.00  0.00    +0.017 A 
ATOM      5  C   UNL     1      -1.202 -11.176   0.460  0.00  0.00    +0.003 A 
ATOM      6  C   UNL     1      -2.470 -10.809   0.876  0.00  0.00    +0.022 A 
ATOM      7  C   UNL     1      -2.837  -9.485   0.964  0.00  0.00    +0.066 A 
ATOM      8 CL   UNL     1      -4.438  -9.070   1.491  0.00  0.00    -0.081 Cl
ATOM      9  S   UNL     1       0.173  -7.332  -0.115  0.00  0.00    -0.052 S 
ATOM     10  C   UNL     1      -1.122  -6.255   0.300  0.00  0.00    +0.167 A 
ATOM     11  N   UNL     1      -1.132  -4.927   0.266  0.00  0.00    -0.152 NA
ENDROOT
BRANCH  11  12
ATOM     12  C   UNL     1      -0.039  -4.260  -0.120  0.00  0.00    +0.270 C 
ATOM     13  O   UNL     1       0.966  -4.870  -0.441  0.00  0.00    -0.268 OA
BRANCH  12  14
ATOM     14  C   UNL     1      -0.050  -2.781  -0.157  0.00  0.00    +0.042 A 
ATOM     15  C   UNL     1      -1.199  -2.080   0.211  0.00  0.00    +0.017 A 
ATOM     16  C   UNL     1      -1.207  -0.703   0.174  0.00  0.00    +0.050 A 
ATOM     17  C   UNL     1      -0.074  -0.007  -0.228  0.00  0.00    +0.162 A 
ATOM     18  C   UNL     1       1.077  -0.700  -0.594  0.00  0.00    +0.163 A 
ATOM     19  C   UNL     1       1.090  -2.083  -0.560  0.00  0.00    +0.062 A 
ATOM     20  O   UNL     1       2.198  -0.033  -0.983  0.00  0.00    -0.485 OA
ATOM     21  C   UNL     1       2.032   1.338  -1.361  0.00  0.00    +0.270 C 
ATOM     22  C   UNL     1       1.158   2.025  -0.303  0.00  0.00    +0.270 C 
ATOM     23  O   UNL     1      -0.105   1.353  -0.260  0.00  0.00    -0.485 OA
ENDBRANCH  12  14
ENDBRANCH  11  12
BRANCH   1  24
ATOM     24  C   UNL     1      -3.421  -6.554   1.082  0.00  0.00    +0.151 C 
BRANCH  24  26
ATOM     25  C   UNL     1      -3.745  -5.355   3.184  0.00  0.00    +0.005 C 
ATOM     26  C   UNL     1      -3.474  -6.489   2.586  0.00  0.00    -0.013 C 
ENDBRANCH  24  26
ENDBRANCH   1  24
TORSDOF 4
