REMARK  Name = ZINC57950501
REMARK  7 active torsions:
REMARK  status: ('A' for Active; 'I' for Inactive)
REMARK    1  A    between atoms: C_1  and  C_2
REMARK    2  A    between atoms: C_2  and  C_3
REMARK    3  A    between atoms: C_2  and  N_4
REMARK    4  A    between atoms: C_8  and  S_9
REMARK    5  A    between atoms: S_9  and  C_10
REMARK    6  A    between atoms: C_10  and  C_11
REMARK    7  A    between atoms: C_13  and  C_18
REMARK                            x       y       z     vdW  Elec       q    Type
REMARK                         _______ _______ _______ _____ _____    ______ ____
ROOT
ATOM      1  N   UNL     1      -1.372  -0.511   0.012  0.00  0.00    -0.288 N 
ATOM      2  C   UNL     1      -2.309  -0.271   0.977  0.00  0.00    +0.215 A 
ATOM      3  N   UNL     1      -3.412  -0.891   0.634  0.00  0.00    -0.113 NA
ATOM      4  N   UNL     1      -3.179  -1.548  -0.581  0.00  0.00    -0.121 NA
ATOM      5  C   UNL     1      -1.944  -1.303  -0.944  0.00  0.00    +0.193 A 
ATOM      6  N   UNL     1      -2.126   0.496   2.120  0.00  0.00    -0.328 N 
ATOM      7  H   UNL     1      -1.269   0.918   2.289  0.00  0.00    +0.145 HD
ATOM      8  H   UNL     1      -2.855   0.610   2.750  0.00  0.00    +0.145 HD
ENDROOT
BRANCH   1  10
ATOM      9  C   UNL     1      -0.019   1.526   0.010  0.00  0.00    +0.031 C 
ATOM     10  C   UNL     1       0.002  -0.004   0.002  0.00  0.00    +0.086 C 
ATOM     11  C   UNL     1       0.742  -0.511   1.242  0.00  0.00    +0.031 C 
ENDBRANCH   1  10
BRANCH   5  12
ATOM     12  S   UNL     1      -1.157  -1.893  -2.406  0.00  0.00    -0.081 S 
BRANCH  12  13
ATOM     13  C   UNL     1      -2.442  -2.872  -3.231  0.00  0.00    +0.115 C 
BRANCH  13  14
ATOM     14  C   UNL     1      -1.893  -3.442  -4.514  0.00  0.00    -0.001 A 
ATOM     15  C   UNL     1      -2.001  -2.726  -5.687  0.00  0.00    +0.026 A 
ATOM     16  C   UNL     1      -1.491  -3.256  -6.875  0.00  0.00    +0.052 A 
ATOM     17  C   UNL     1      -0.875  -4.510  -6.866  0.00  0.00    +0.021 A 
ATOM     18  C   UNL     1      -0.772  -5.216  -5.687  0.00  0.00    +0.040 A 
ATOM     19  C   UNL     1      -1.276  -4.683  -4.510  0.00  0.00    +0.127 A 
ATOM     20  F   UNL     1      -1.168  -5.378  -3.357  0.00  0.00    -0.205 F 
BRANCH  16  21
ATOM     21  C   UNL     1      -1.601  -2.517  -8.096  0.00  0.00    +0.099 C 
ATOM     22  N   UNL     1      -1.687  -1.931  -9.066  0.00  0.00    -0.191 NA
ENDBRANCH  16  21
ENDBRANCH  13  14
ENDBRANCH  12  13
ENDBRANCH   5  12
TORSDOF 5
