REMARK  Name = ZINC12411736
REMARK  10 active torsions:
REMARK  status: ('A' for Active; 'I' for Inactive)
REMARK    1  A    between atoms: C_1  and  C_2
REMARK    2  A    between atoms: C_2  and  N_3
REMARK    3  A    between atoms: N_3  and  C_4
REMARK    4  A    between atoms: N_3  and  C_6
REMARK    5  A    between atoms: C_4  and  C_5
REMARK    6  A    between atoms: C_9  and  C_12
REMARK    7  A    between atoms: C_17  and  C_22
REMARK    8  A    between atoms: C_28  and  C_40
REMARK    9  A    between atoms: C_29  and  C_30
REMARK   10  A    between atoms: N_32  and  C_33
REMARK                            x       y       z     vdW  Elec       q    Type
REMARK                         _______ _______ _______ _____ _____    ______ ____
ROOT
ATOM      1  C   UNL     1      -0.036   0.011   0.023  0.00  0.00    +0.090 C 
ATOM      2  C   UNL     1      -0.710  -0.483  -1.233  0.00  0.00    +0.024 C 
ATOM      3  C   UNL     1      -1.893  -1.131  -1.171  0.00  0.00    +0.016 C 
ATOM      4  C   UNL     1      -2.572  -1.632  -2.421  0.00  0.00    +0.060 C 
ATOM      5  C   UNL     1      -2.222  -0.717  -3.597  0.00  0.00    +0.039 C 
ATOM      6  C   UNL     1      -0.698  -0.696  -3.759  0.00  0.00    +0.088 C 
ATOM      7  C   UNL     1      -0.075  -0.249  -2.465  0.00  0.00    +0.162 C 
ATOM      8  O   UNL     1       0.996   0.324  -2.485  0.00  0.00    -0.292 OA
ATOM      9  N   UNL     1      -2.501  -1.352   0.036  0.00  0.00    -0.321 N 
ATOM     10  C   UNL     1      -1.782  -1.299   1.198  0.00  0.00    +0.014 C 
ATOM     11  C   UNL     1      -0.600  -0.664   1.238  0.00  0.00    +0.043 C 
ATOM     12  C   UNL     1      -2.321  -1.958   2.442  0.00  0.00    +0.061 C 
ATOM     13  H   UNL     1      -3.578  -1.575   0.076  0.00  0.00    +0.152 HD
ENDROOT
BRANCH   1  17
ATOM     14  C   UNL     1      -0.625   4.231   0.362  0.00  0.00    +0.030 A 
ATOM     15  C   UNL     1       0.661   3.711   0.284  0.00  0.00    +0.023 A 
ATOM     16  C   UNL     1       0.848   2.347   0.174  0.00  0.00    +0.006 A 
ATOM     17  C   UNL     1      -0.244   1.499   0.142  0.00  0.00    -0.035 A 
ATOM     18  C   UNL     1      -1.526   2.013   0.214  0.00  0.00    +0.006 A 
ATOM     19  C   UNL     1      -1.719   3.376   0.330  0.00  0.00    +0.023 A 
BRANCH  14  20
ATOM     20  N   UNL     1      -0.817   5.610   0.472  0.00  0.00    -0.330 N 
BRANCH  20  22
ATOM     21  C   UNL     1      -2.603   6.237   2.021  0.00  0.00    +0.024 C 
ATOM     22  C   UNL     1      -2.174   6.156   0.555  0.00  0.00    +0.102 C 
ENDBRANCH  20  22
BRANCH  20  23
ATOM     23  C   UNL     1       0.338   6.510   0.506  0.00  0.00    +0.102 C 
ATOM     24  C   UNL     1       0.697   6.933  -0.920  0.00  0.00    +0.024 C 
ENDBRANCH  20  23
ENDBRANCH  14  20
ENDBRANCH   1  17
BRANCH   5  25
ATOM     25  C   UNL     1      -2.858  -1.246  -4.857  0.00  0.00    -0.006 A 
ATOM     26  C   UNL     1      -3.741  -0.639  -5.687  0.00  0.00    +0.011 A 
ATOM     27  C   UNL     1      -4.196  -1.324  -6.798  0.00  0.00    +0.008 A 
ATOM     28  C   UNL     1      -3.744  -2.581  -7.026  0.00  0.00    +0.045 A 
ATOM     29  S   UNL     1      -2.636  -2.831  -5.648  0.00  0.00    -0.101 S 
ENDBRANCH   5  25
BRANCH  11  30
ATOM     30  C   UNL     1       0.130  -0.631   2.452  0.00  0.00    +0.247 C 
ATOM     31  O   UNL     1      -0.316  -1.175   3.446  0.00  0.00    -0.270 OA
ATOM     32  N   UNL     1       1.318   0.002   2.507  0.00  0.00    -0.282 N 
ATOM     33  H   UNL     1       1.763   0.418   1.591  0.00  0.00    +0.155 HD
BRANCH  32  34
ATOM     34  C   UNL     1       1.987   0.131   3.730  0.00  0.00    +0.034 A 
ATOM     35  C   UNL     1       1.263   0.279   4.906  0.00  0.00    +0.026 A 
ATOM     36  C   UNL     1       1.925   0.401   6.112  0.00  0.00    +0.040 A 
ATOM     37  C   UNL     1       3.309   0.386   6.148  0.00  0.00    +0.124 A 
ATOM     38  C   UNL     1       4.033   0.244   4.976  0.00  0.00    +0.040 A 
ATOM     39  C   UNL     1       3.375   0.117   3.768  0.00  0.00    +0.026 A 
ATOM     40  F   UNL     1       3.955   0.510   7.328  0.00  0.00    -0.205 F 
ENDBRANCH  32  34
ENDBRANCH  11  30
TORSDOF 7
