REMARK  Name = ZINC00881871
REMARK  5 active torsions:
REMARK  status: ('A' for Active; 'I' for Inactive)
REMARK    1  A    between atoms: C_1  and  C_2
REMARK    2  A    between atoms: C_5  and  C_8
REMARK    3  A    between atoms: C_13  and  C_18
REMARK    4  A    between atoms: C_13  and  C_19
REMARK    5  A    between atoms: C_25  and  O_27
REMARK                            x       y       z     vdW  Elec       q    Type
REMARK                         _______ _______ _______ _____ _____    ______ ____
ROOT
ATOM      1  C   UNL     1      -0.434   4.378  -1.314  0.00  0.00    +0.058 C 
ATOM      2  C   UNL     1      -1.742   3.700  -0.909  0.00  0.00    +0.081 C 
ATOM      3  C   UNL     1      -1.902   3.740   0.609  0.00  0.00    +0.182 C 
ATOM      4  C   UNL     1      -0.722   3.103   1.327  0.00  0.00    +0.094 C 
ATOM      5  C   UNL     1      -0.730   1.580   1.268  0.00  0.00    +0.036 C 
ATOM      6  N   UNL     1      -2.077   1.026   1.317  0.00  0.00    -0.294 N 
ATOM      7  C   UNL     1      -3.186   1.769   1.256  0.00  0.00    +0.303 C 
ATOM      8  O   UNL     1      -4.262   1.240   1.463  0.00  0.00    -0.253 OA
ATOM      9  N   UNL     1      -3.153   3.082   0.996  0.00  0.00    -0.262 N 
ATOM     10  C   UNL     1      -0.013   1.086   0.008  0.00  0.00    +0.031 C 
ATOM     11  C   UNL     1       0.048   1.047   2.489  0.00  0.00    +0.031 C 
ATOM     12  O   UNL     1      -1.996   5.120   0.998  0.00  0.00    -0.468 OA
ATOM     13  C   UNL     1      -1.024   5.960   0.559  0.00  0.00    +0.131 A 
ATOM     14  C   UNL     1      -0.237   5.655  -0.538  0.00  0.00    +0.002 A 
ATOM     15  C   UNL     1       0.757   6.535  -0.933  0.00  0.00    +0.011 A 
ATOM     16  C   UNL     1       0.950   7.724  -0.257  0.00  0.00    +0.046 A 
ATOM     17  C   UNL     1       0.154   8.038   0.835  0.00  0.00    +0.120 A 
ATOM     18  C   UNL     1      -0.830   7.155   1.243  0.00  0.00    +0.091 A 
ATOM     19  H   UNL     1      -2.178   0.056   1.399  0.00  0.00    +0.151 HD
ATOM     20  H   UNL     1      -3.964   3.607   1.062  0.00  0.00    +0.154 HD
ENDROOT
BRANCH   1  25
ATOM     21  C   UNL     1      -0.638   5.569  -6.965  0.00  0.00    +0.044 C 
ATOM     22  C   UNL     1      -0.585   5.258  -5.492  0.00  0.00    -0.050 A 
ATOM     23  C   UNL     1       0.392   4.413  -4.998  0.00  0.00    +0.003 A 
ATOM     24  C   UNL     1       0.441   4.129  -3.646  0.00  0.00    +0.004 A 
ATOM     25  C   UNL     1      -0.487   4.688  -2.788  0.00  0.00    -0.040 A 
ATOM     26  C   UNL     1      -1.467   5.528  -3.282  0.00  0.00    +0.004 A 
ATOM     27  C   UNL     1      -1.514   5.816  -4.634  0.00  0.00    +0.003 A 
ENDBRANCH   1  25
BRANCH  17  28
ATOM     28  O   UNL     1       0.340   9.209   1.500  0.00  0.00    -0.507 OA
ATOM     29  H   UNL     1      -0.186   9.944   1.157  0.00  0.00    +0.292 HD
ENDBRANCH  17  28
TORSDOF 2
