REMARK  Name = ZINC59850045
REMARK  11 active torsions:
REMARK  status: ('A' for Active; 'I' for Inactive)
REMARK    1  A    between atoms: C_1  and  C_2
REMARK    2  A    between atoms: C_2  and  C_3
REMARK    3  A    between atoms: N_11  and  C_15
REMARK    4  A    between atoms: C_15  and  C_16
REMARK    5  A    between atoms: N_18  and  C_19
REMARK    6  A    between atoms: C_19  and  C_20
REMARK    7  A    between atoms: C_20  and  C_21
REMARK    8  A    between atoms: C_21  and  C_22
REMARK    9  A    between atoms: C_22  and  N_23
REMARK   10  A    between atoms: N_26  and  C_29
REMARK   11  A    between atoms: C_29  and  C_30
REMARK                            x       y       z     vdW  Elec       q    Type
REMARK                         _______ _______ _______ _____ _____    ______ ____
ROOT
ATOM      1  C   UNL     1      -2.610  -3.550  -6.148  0.00  0.00    +0.231 C 
ATOM      2  O   UNL     1      -2.350  -2.391  -6.394  0.00  0.00    -0.274 OA
ATOM      3  N   UNL     1      -3.721  -4.115  -6.659  0.00  0.00    -0.314 N 
ATOM      4  H   UNL     1      -3.929  -5.042  -6.462  0.00  0.00    +0.149 HD
ENDROOT
BRANCH   1   5
ATOM      5  C   UNL     1      -1.689  -4.357  -5.270  0.00  0.00    +0.213 C 
BRANCH   5  14
ATOM      6  C   UNL     1       0.718  -0.497  -1.257  0.00  0.00    -0.011 C 
ATOM      7  C   UNL     1      -0.089  -0.096  -2.493  0.00  0.00    +0.006 C 
ATOM      8  C   UNL     1       0.635  -0.580  -3.752  0.00  0.00    +0.035 C 
ATOM      9  C   UNL     1       0.795  -2.095  -3.700  0.00  0.00    +0.113 C 
ATOM     10  C   UNL     1       1.577  -2.512  -2.459  0.00  0.00    +0.035 C 
ATOM     11  C   UNL     1       0.849  -2.021  -1.205  0.00  0.00    +0.006 C 
ATOM     12  C   UNL     1      -0.556  -2.771  -3.725  0.00  0.00    +0.247 C 
ATOM     13  O   UNL     1      -1.447  -2.660  -2.910  0.00  0.00    -0.273 OA
ATOM     14  N   UNL     1      -0.562  -3.523  -4.845  0.00  0.00    -0.215 N 
ATOM     15  C   UNL     1       0.589  -3.413  -5.519  0.00  0.00    +0.310 C 
ATOM     16  O   UNL     1       0.821  -3.996  -6.559  0.00  0.00    -0.252 OA
ATOM     17  N   UNL     1       1.461  -2.583  -4.914  0.00  0.00    -0.285 N 
ATOM     18  H   UNL     1       2.352  -2.354  -5.221  0.00  0.00    +0.151 HD
BRANCH   6  20
ATOM     19  C   UNL     1      -0.019   1.526   0.010  0.00  0.00    +0.004 C 
ATOM     20  C   UNL     1       0.002  -0.004   0.002  0.00  0.00    -0.000 C 
ENDBRANCH   6  20
ENDBRANCH   5  14
ENDBRANCH   1   5
BRANCH   3  21
ATOM     21  C   UNL     1      -4.616  -3.329  -7.512  0.00  0.00    +0.104 C 
BRANCH  21  22
ATOM     22  C   UNL     1      -5.793  -4.201  -7.956  0.00  0.00    +0.017 C 
BRANCH  22  23
ATOM     23  C   UNL     1      -6.727  -3.381  -8.848  0.00  0.00    -0.017 C 
BRANCH  23  24
ATOM     24  C   UNL     1      -7.904  -4.252  -9.291  0.00  0.00    -0.079 C 
BRANCH  24  25
ATOM     25  N   UNL     1      -8.801  -3.465 -10.147  0.00  0.00    +0.381 N 
ATOM     26  C   UNL     1      -9.396  -2.376  -9.361  0.00  0.00    -0.063 C 
ATOM     27  C   UNL     1     -10.317  -1.544 -10.257  0.00  0.00    +0.066 C 
ATOM     28  N   UNL     1     -11.371  -2.407 -10.808  0.00  0.00    -0.302 NA
ATOM     29  C   UNL     1     -10.789  -3.516 -11.577  0.00  0.00    +0.066 C 
ATOM     30  C   UNL     1      -9.865  -4.332 -10.670  0.00  0.00    -0.063 C 
ATOM     31  H   UNL     1      -8.276  -3.075 -10.916  0.00  0.00    -0.082 HD
BRANCH  28  32
ATOM     32  C   UNL     1     -12.310  -1.632 -11.630  0.00  0.00    +0.119 C 
BRANCH  32  33
ATOM     33  C   UNL     1     -13.502  -2.488 -11.973  0.00  0.00    -0.033 A 
ATOM     34  C   UNL     1     -13.491  -3.263 -13.118  0.00  0.00    +0.005 A 
ATOM     35  C   UNL     1     -14.584  -4.048 -13.432  0.00  0.00    +0.000 A 
ATOM     36  C   UNL     1     -15.689  -4.059 -12.601  0.00  0.00    +0.000 A 
ATOM     37  C   UNL     1     -15.700  -3.285 -11.456  0.00  0.00    +0.000 A 
ATOM     38  C   UNL     1     -14.605  -2.503 -11.139  0.00  0.00    +0.005 A 
ENDBRANCH  32  33
ENDBRANCH  28  32
ENDBRANCH  24  25
ENDBRANCH  23  24
ENDBRANCH  22  23
ENDBRANCH  21  22
ENDBRANCH   3  21
TORSDOF 10
