REMARK  Name = ZINC08951887
REMARK  11 active torsions:
REMARK  status: ('A' for Active; 'I' for Inactive)
REMARK    1  A    between atoms: C_1  and  C_2
REMARK    2  A    between atoms: C_2  and  N_62
REMARK    3  A    between atoms: C_4  and  C_16
REMARK    4  A    between atoms: C_18  and  O_26
REMARK    5  A    between atoms: C_19  and  O_24
REMARK    6  A    between atoms: C_20  and  O_22
REMARK    7  A    between atoms: O_22  and  C_23
REMARK    8  A    between atoms: O_24  and  C_25
REMARK    9  A    between atoms: O_26  and  C_27
REMARK   10  A    between atoms: C_28  and  C_29
REMARK   11  A    between atoms: C_28  and  N_62
REMARK                            x       y       z     vdW  Elec       q    Type
REMARK                         _______ _______ _______ _____ _____    ______ ____
ROOT
ATOM      1  C   UNL     1       2.102   5.662   0.034  0.00  0.00    +0.033 C 
ATOM      2  C   UNL     1       2.288   4.179   0.361  0.00  0.00    +0.079 C 
ATOM      3  C   UNL     1       3.468   3.617  -0.443  0.00  0.00    +0.040 C 
ATOM      4  C   UNL     1       3.696   2.167  -0.010  0.00  0.00    +0.055 C 
ATOM      5  C   UNL     1       2.383   1.424  -0.009  0.00  0.00    +0.005 A 
ATOM      6  C   UNL     1       2.403   0.038  -0.017  0.00  0.00    +0.057 A 
ATOM      7  C   UNL     1       1.221  -0.679  -0.012  0.00  0.00    +0.167 A 
ATOM      8  C   UNL     1       0.002  -0.004   0.002  0.00  0.00    +0.170 A 
ATOM      9  C   UNL     1      -0.017   1.379   0.010  0.00  0.00    +0.095 A 
ATOM     10  C   UNL     1       1.175   2.097   0.002  0.00  0.00    +0.126 A 
ATOM     11  O   UNL     1       1.111   3.455  -0.001  0.00  0.00    -0.503 OA
ATOM     12  O   UNL     1      -1.006  -0.924   0.006  0.00  0.00    -0.452 OA
ATOM     13  C   UNL     1      -0.401  -2.160  -0.420  0.00  0.00    +0.466 C 
ATOM     14  O   UNL     1       0.975  -2.023  -0.018  0.00  0.00    -0.453 OA
ENDROOT
BRANCH   4  15
ATOM     15  C   UNL     1       4.647   1.502  -0.971  0.00  0.00    -0.033 A 
ATOM     16  C   UNL     1       4.315   1.397  -2.308  0.00  0.00    +0.054 A 
ATOM     17  C   UNL     1       5.191   0.790  -3.197  0.00  0.00    +0.165 A 
ATOM     18  C   UNL     1       6.398   0.278  -2.738  0.00  0.00    +0.204 A 
ATOM     19  C   UNL     1       6.726   0.381  -1.392  0.00  0.00    +0.165 A 
ATOM     20  C   UNL     1       5.848   0.994  -0.511  0.00  0.00    +0.054 A 
BRANCH  19  21
ATOM     21  O   UNL     1       7.907  -0.119  -0.938  0.00  0.00    -0.491 OA
ATOM     22  C   UNL     1       8.178   0.022   0.458  0.00  0.00    +0.277 C 
ENDBRANCH  19  21
BRANCH  18  23
ATOM     23  O   UNL     1       7.258  -0.324  -3.606  0.00  0.00    -0.488 OA
ATOM     24  C   UNL     1       7.106  -1.732  -3.797  0.00  0.00    +0.277 C 
ENDBRANCH  18  23
BRANCH  17  25
ATOM     25  O   UNL     1       4.865   0.693  -4.513  0.00  0.00    -0.491 OA
ATOM     26  C   UNL     1       3.608   1.241  -4.914  0.00  0.00    +0.277 C 
ENDBRANCH  17  25
ENDBRANCH   4  15
BRANCH   2  27
ATOM     27  N   UNL     1       2.540   4.012   1.805  0.00  0.00    +0.408 N 
ATOM     28  H   UNL     1       2.651   3.014   2.016  0.00  0.00    -0.079 HD
ATOM     29  H   UNL     1       1.744   4.388   2.333  0.00  0.00    -0.079 HD
BRANCH  27  30
ATOM     30  C   UNL     1       3.767   4.731   2.197  0.00  0.00    -0.041 C 
BRANCH  30  31
ATOM     31  C   UNL     1       3.999   4.543   3.674  0.00  0.00    -0.064 A 
ATOM     32  C   UNL     1       3.463   5.441   4.578  0.00  0.00    +0.002 A 
ATOM     33  C   UNL     1       3.671   5.266   5.933  0.00  0.00    +0.000 A 
ATOM     34  C   UNL     1       4.425   4.198   6.384  0.00  0.00    +0.000 A 
ATOM     35  C   UNL     1       4.966   3.303   5.479  0.00  0.00    +0.000 A 
ATOM     36  C   UNL     1       4.753   3.476   4.125  0.00  0.00    +0.002 A 
ENDBRANCH  30  31
ENDBRANCH  27  30
ENDBRANCH   2  27
TORSDOF 7
