REMARK  Name = ZINC09357316
REMARK  7 active torsions:
REMARK  status: ('A' for Active; 'I' for Inactive)
REMARK    1  A    between atoms: C_4  and  C_7
REMARK    2  A    between atoms: C_7  and  S_8
REMARK    3  A    between atoms: S_8  and  C_9
REMARK    4  A    between atoms: C_15  and  C_30
REMARK    5  A    between atoms: C_17  and  C_22
REMARK    6  A    between atoms: C_22  and  C_24
REMARK    7  A    between atoms: C_33  and  O_36
REMARK                            x       y       z     vdW  Elec       q    Type
REMARK                         _______ _______ _______ _____ _____    ______ ____
ROOT
ATOM      1  C   UNL     1      -2.855  -2.814   0.253  0.00  0.00    +0.160 A 
ATOM      2  N   UNL     1      -3.196  -1.538   0.137  0.00  0.00    -0.133 NA
ATOM      3  N   UNL     1      -2.333  -0.620   0.085  0.00  0.00    -0.125 NA
ATOM      4  C   UNL     1      -1.034  -0.874   0.132  0.00  0.00    +0.192 A 
ATOM      5  S   UNL     1      -1.072  -2.658   0.283  0.00  0.00    -0.024 S 
ATOM      6  N   UNL     1       0.048  -0.004   0.085  0.00  0.00    -0.230 N 
ATOM      7  C   UNL     1      -0.023   1.457  -0.041  0.00  0.00    +0.152 C 
ATOM      8  C   UNL     1       1.406   1.948  -0.046  0.00  0.00    +0.077 C 
ATOM      9  C   UNL     1       2.196   0.854   0.067  0.00  0.00    +0.250 C 
ATOM     10  C   UNL     1       1.346  -0.351   0.147  0.00  0.00    +0.293 C 
ATOM     11  O   UNL     1       1.759  -1.490   0.255  0.00  0.00    -0.266 OA
ATOM     12  O   UNL     1       3.549   0.863   0.100  0.00  0.00    -0.282 OA
ENDROOT
BRANCH   7  13
ATOM     13  C   UNL     1      -0.705   1.833  -1.330  0.00  0.00    -0.022 A 
ATOM     14  C   UNL     1      -0.379   1.175  -2.502  0.00  0.00    +0.009 A 
ATOM     15  C   UNL     1      -1.008   1.515  -3.684  0.00  0.00    +0.046 A 
ATOM     16  C   UNL     1      -1.959   2.525  -3.697  0.00  0.00    +0.117 A 
ATOM     17  C   UNL     1      -2.280   3.187  -2.522  0.00  0.00    +0.046 A 
ATOM     18  C   UNL     1      -1.653   2.840  -1.341  0.00  0.00    +0.009 A 
BRANCH  16  19
ATOM     19  O   UNL     1      -2.575   2.864  -4.860  0.00  0.00    -0.507 OA
ATOM     20  H   UNL     1      -3.329   3.665  -4.870  0.00  0.00    +0.292 HD
ENDBRANCH  16  19
ENDBRANCH   7  13
BRANCH   8  21
ATOM     21  C   UNL     1       1.851   3.340  -0.153  0.00  0.00    +0.195 C 
ATOM     22  O   UNL     1       2.470   3.707  -1.134  0.00  0.00    -0.287 OA
BRANCH  21  23
ATOM     23  C   UNL     1       1.548   4.298   0.931  0.00  0.00    +0.022 A 
ATOM     24  C   UNL     1       0.938   3.857   2.107  0.00  0.00    +0.012 A 
ATOM     25  C   UNL     1       0.663   4.756   3.117  0.00  0.00    +0.001 A 
ATOM     26  C   UNL     1       0.980   6.094   2.962  0.00  0.00    +0.000 A 
ATOM     27  C   UNL     1       1.579   6.539   1.796  0.00  0.00    +0.001 A 
ATOM     28  C   UNL     1       1.865   5.650   0.781  0.00  0.00    +0.012 A 
ENDBRANCH  21  23
ENDBRANCH   8  21
BRANCH   1  29
ATOM     29  S   UNL     1      -3.868  -4.252   0.351  0.00  0.00    -0.092 S 
BRANCH  29  30
ATOM     30  C   UNL     1      -5.506  -3.491   0.246  0.00  0.00    +0.111 C 
BRANCH  30  34
ATOM     31  C   UNL     1      -8.504  -6.529   0.432  0.00  0.00    +0.000 A 
ATOM     32  C   UNL     1      -8.047  -5.936   1.595  0.00  0.00    +0.000 A 
ATOM     33  C   UNL     1      -7.077  -4.953   1.534  0.00  0.00    +0.004 A 
ATOM     34  C   UNL     1      -6.564  -4.563   0.312  0.00  0.00    -0.037 A 
ATOM     35  C   UNL     1      -7.024  -5.152  -0.851  0.00  0.00    +0.004 A 
ATOM     36  C   UNL     1      -7.990  -6.138  -0.791  0.00  0.00    +0.000 A 
ENDBRANCH  30  34
ENDBRANCH  29  30
ENDBRANCH   1  29
TORSDOF 7
