REMARK  Name = ZINC13594257
REMARK  9 active torsions:
REMARK  status: ('A' for Active; 'I' for Inactive)
REMARK    1  A    between atoms: C_1  and  N_2
REMARK    2  A    between atoms: N_2  and  C_3
REMARK    3  A    between atoms: C_3  and  C_4
REMARK    4  A    between atoms: C_4  and  C_5
REMARK    5  A    between atoms: C_11  and  C_13
REMARK    6  A    between atoms: C_13  and  C_14
REMARK    7  A    between atoms: N_21  and  C_22
REMARK    8  A    between atoms: C_22  and  C_23
REMARK    9  A    between atoms: C_28  and  C_29
REMARK                            x       y       z     vdW  Elec       q    Type
REMARK                         _______ _______ _______ _____ _____    ______ ____
ROOT
ATOM      1  C   UNL     1      -0.548  -0.154  -2.112  0.00  0.00    +0.028 C 
ATOM      2  C   UNL     1      -0.608   1.135  -2.882  0.00  0.00    +0.200 C 
ATOM      3  O   UNL     1       0.077   2.065  -2.513  0.00  0.00    -0.278 OA
ATOM      4  N   UNL     1      -1.387   1.298  -3.957  0.00  0.00    -0.318 N 
ATOM      5  C   UNL     1      -2.267   0.245  -4.459  0.00  0.00    +0.085 C 
ATOM      6  C   UNL     1      -1.841  -1.107  -3.884  0.00  0.00    -0.058 C 
ATOM      7  N   UNL     1      -1.721  -0.981  -2.424  0.00  0.00    +0.391 N 
ATOM      8  H   UNL     1      -1.367   2.149  -4.422  0.00  0.00    +0.149 HD
ATOM      9  H   UNL     1      -2.551  -0.544  -2.051  0.00  0.00    -0.080 HD
ENDROOT
BRANCH   1  10
ATOM     10  C   UNL     1      -0.527   0.151  -0.613  0.00  0.00    +0.090 C 
BRANCH  10  13
ATOM     11  C   UNL     1      -0.957   0.993   2.059  0.00  0.00    +0.132 C 
ATOM     12  N   UNL     1      -1.902   1.403   1.017  0.00  0.00    -0.304 N 
ATOM     13  C   UNL     1      -1.712   1.011  -0.258  0.00  0.00    +0.214 C 
ATOM     14  O   UNL     1      -2.494   1.351  -1.120  0.00  0.00    -0.276 OA
BRANCH  12  15
ATOM     15  C   UNL     1      -3.055   2.239   1.362  0.00  0.00    +0.112 C 
BRANCH  15  16
ATOM     16  C   UNL     1      -2.670   3.715   1.236  0.00  0.00    +0.057 C 
BRANCH  16  17
ATOM     17  C   UNL     1      -3.856   4.575   1.591  0.00  0.00    -0.009 A 
ATOM     18  C   UNL     1      -4.803   5.018   0.732  0.00  0.00    +0.108 A 
ATOM     19  N   UNL     1      -5.686   5.754   1.439  0.00  0.00    -0.284 N 
ATOM     20  H   UNL     1      -6.473   6.198   1.084  0.00  0.00    +0.188 HD
ATOM     21  N   UNL     1      -5.268   5.763   2.776  0.00  0.00    -0.182 NA
ATOM     22  C   UNL     1      -4.174   5.052   2.866  0.00  0.00    +0.137 A 
ENDBRANCH  16  17
ENDBRANCH  15  16
ENDBRANCH  12  15
ENDBRANCH  10  13
ENDBRANCH   1  10
BRANCH   7  23
ATOM     23  C   UNL     1      -1.555  -2.314  -1.829  0.00  0.00    -0.041 C 
BRANCH  23  24
ATOM     24  C   UNL     1      -2.831  -3.099  -1.992  0.00  0.00    -0.052 A 
ATOM     25  C   UNL     1      -3.966  -2.480  -2.481  0.00  0.00    +0.002 A 
ATOM     26  C   UNL     1      -5.136  -3.200  -2.630  0.00  0.00    +0.000 A 
ATOM     27  C   UNL     1      -5.172  -4.540  -2.291  0.00  0.00    +0.001 A 
ATOM     28  C   UNL     1      -4.036  -5.159  -1.804  0.00  0.00    +0.012 A 
ATOM     29  C   UNL     1      -2.865  -4.440  -1.659  0.00  0.00    +0.056 A 
BRANCH  29  30
ATOM     30  C   UNL     1      -1.625  -5.117  -1.132  0.00  0.00    +0.418 C 
ATOM     31  F   UNL     1      -1.938  -6.423  -0.740  0.00  0.00    -0.166 F 
ATOM     32  F   UNL     1      -0.651  -5.152  -2.135  0.00  0.00    -0.166 F 
ATOM     33  F   UNL     1      -1.137  -4.404  -0.032  0.00  0.00    -0.166 F 
ENDBRANCH  29  30
ENDBRANCH  23  24
ENDBRANCH   7  23
TORSDOF 8
