REMARK  Name = ZINC60089681
REMARK  5 active torsions:
REMARK  status: ('A' for Active; 'I' for Inactive)
REMARK    1  A    between atoms: C_6  and  C_7
REMARK    2  A    between atoms: C_13  and  C_15
REMARK    3  A    between atoms: C_15  and  N_16
REMARK    4  A    between atoms: N_16  and  C_17
REMARK    5  A    between atoms: C_22  and  C_23
REMARK                            x       y       z     vdW  Elec       q    Type
REMARK                         _______ _______ _______ _____ _____    ______ ____
ROOT
ATOM      1  C   UNL     1      -1.363  -0.893   0.031  0.00  0.00    +0.106 C 
ATOM      2  C   UNL     1      -1.995  -0.930  -1.377  0.00  0.00    +0.029 C 
ATOM      3  C   UNL     1      -3.511  -0.780  -1.081  0.00  0.00    +0.021 C 
ATOM      4  C   UNL     1      -3.498   0.183   0.132  0.00  0.00    +0.108 C 
ATOM      5  N   UNL     1      -2.318  -0.222   0.924  0.00  0.00    -0.293 N 
ATOM      6  C   UNL     1      -2.145  -0.012   2.245  0.00  0.00    +0.233 C 
ATOM      7  O   UNL     1      -1.130  -0.391   2.791  0.00  0.00    -0.274 OA
ENDROOT
BRANCH   1  13
ATOM      8  C   UNL     1      -0.091   1.261  -0.029  0.00  0.00    +0.009 A 
ATOM      9  C   UNL     1       1.093   1.976  -0.066  0.00  0.00    +0.050 A 
ATOM     10  C   UNL     1       2.301   1.302  -0.081  0.00  0.00    +0.162 A 
ATOM     11  C   UNL     1       2.324  -0.086  -0.061  0.00  0.00    +0.162 A 
ATOM     12  C   UNL     1       1.138  -0.798  -0.025  0.00  0.00    +0.055 A 
ATOM     13  C   UNL     1      -0.069  -0.121  -0.009  0.00  0.00    -0.023 A 
ATOM     14  O   UNL     1       3.521  -0.741  -0.076  0.00  0.00    -0.488 OA
ATOM     15  C   UNL     1       4.273  -0.642  -1.287  0.00  0.00    +0.232 C 
ATOM     16  C   UNL     1       5.098   0.635  -1.306  0.00  0.00    +0.082 C 
ATOM     17  C   UNL     1       4.232   1.885  -1.324  0.00  0.00    +0.232 C 
ATOM     18  O   UNL     1       3.476   1.995  -0.116  0.00  0.00    -0.488 OA
ENDBRANCH   1  13
BRANCH   6  19
ATOM     19  C   UNL     1      -3.212   0.693   3.042  0.00  0.00    +0.197 C 
BRANCH  19  20
ATOM     20  N   UNL     1      -2.788   0.796   4.441  0.00  0.00    -0.335 N 
ATOM     21  H   UNL     1      -1.931   0.434   4.716  0.00  0.00    +0.147 HD
BRANCH  20  22
ATOM     22  C   UNL     1      -3.614   1.412   5.373  0.00  0.00    +0.040 A 
ATOM     23  C   UNL     1      -4.790   2.029   4.965  0.00  0.00    +0.025 A 
ATOM     24  C   UNL     1      -5.608   2.640   5.892  0.00  0.00    +0.022 A 
ATOM     25  C   UNL     1      -5.265   2.644   7.236  0.00  0.00    +0.042 A 
ATOM     26  C   UNL     1      -4.103   2.037   7.660  0.00  0.00    +0.035 A 
ATOM     27  C   UNL     1      -3.267   1.409   6.733  0.00  0.00    +0.059 A 
ATOM     28 CL   UNL     1      -6.306   3.418   8.390  0.00  0.00    -0.084 Cl
BRANCH  27  29
ATOM     29  C   UNL     1      -2.025   0.752   7.180  0.00  0.00    +0.243 C 
ATOM     30  O   UNL     1      -1.246   0.301   6.361  0.00  0.00    -0.270 OA
ATOM     31  N   UNL     1      -1.752   0.651   8.496  0.00  0.00    -0.325 N 
ATOM     32  H   UNL     1      -2.373   1.010   9.149  0.00  0.00    +0.145 HD
ATOM     33  H   UNL     1      -0.935   0.219   8.790  0.00  0.00    +0.145 HD
ENDBRANCH  27  29
ENDBRANCH  20  22
ENDBRANCH  19  20
ENDBRANCH   6  19
TORSDOF 5
