REMARK  Name = ZINC02845559
REMARK  6 active torsions:
REMARK  status: ('A' for Active; 'I' for Inactive)
REMARK    1  A    between atoms: C_3  and  S_26
REMARK    2  A    between atoms: C_6  and  N_7
REMARK    3  A    between atoms: C_8  and  C_10
REMARK    4  A    between atoms: C_10  and  S_11
REMARK    5  A    between atoms: S_11  and  C_12
REMARK    6  A    between atoms: S_26  and  N_29
REMARK                            x       y       z     vdW  Elec       q    Type
REMARK                         _______ _______ _______ _____ _____    ______ ____
ROOT
ATOM      1  N   UNL     1       4.171  -5.876   4.688  0.00  0.00    -0.285 N 
ATOM      2  C   UNL     1       3.715  -4.717   4.173  0.00  0.00    +0.227 C 
ATOM      3  O   UNL     1       4.112  -3.659   4.614  0.00  0.00    -0.275 OA
ATOM      4  H   UNL     1       3.805  -6.720   4.382  0.00  0.00    +0.155 HD
ENDROOT
BRANCH   1  10
ATOM      5  C   UNL     1       6.128  -6.869   5.696  0.00  0.00    +0.025 A 
ATOM      6  C   UNL     1       7.120  -6.848   6.657  0.00  0.00    +0.030 A 
ATOM      7  C   UNL     1       7.156  -5.831   7.594  0.00  0.00    +0.105 A 
ATOM      8  C   UNL     1       6.204  -4.829   7.568  0.00  0.00    +0.030 A 
ATOM      9  C   UNL     1       5.213  -4.841   6.606  0.00  0.00    +0.025 A 
ATOM     10  C   UNL     1       5.174  -5.861   5.664  0.00  0.00    +0.034 A 
BRANCH   7  11
ATOM     11  S   UNL     1       8.418  -5.813   8.823  0.00  0.00    +0.056 S 
ATOM     12  O   UNL     1       9.507  -6.561   8.299  0.00  0.00    -0.153 OA
ATOM     13  O   UNL     1       8.555  -4.463   9.245  0.00  0.00    -0.153 OA
BRANCH  11  14
ATOM     14  N   UNL     1       7.846  -6.660  10.126  0.00  0.00    -0.204 NA
ATOM     15  H   UNL     1       6.958  -7.050  10.099  0.00  0.00    +0.144 HD
ATOM     16  H   UNL     1       8.398  -6.766  10.916  0.00  0.00    +0.144 HD
ENDBRANCH  11  14
ENDBRANCH   7  11
ENDBRANCH   1  10
BRANCH   2  17
ATOM     17  C   UNL     1       2.712  -4.735   3.049  0.00  0.00    +0.171 C 
BRANCH  17  18
ATOM     18  S   UNL     1       2.299  -3.036   2.580  0.00  0.00    -0.096 S 
BRANCH  18  19
ATOM     19  C   UNL     1       1.143  -3.347   1.287  0.00  0.00    +0.109 A 
ATOM     20  C   UNL     1       0.528  -2.267   0.594  0.00  0.00    +0.043 A 
ATOM     21  C   UNL     1       0.715  -0.826   0.798  0.00  0.00    -0.025 A 
ATOM     22  C   UNL     1      -0.003  -0.005   0.006  0.00  0.00    -0.004 A 
ATOM     23  S   UNL     1      -0.940  -1.078  -1.052  0.00  0.00    -0.073 S 
ATOM     24  C   UNL     1      -0.376  -2.635  -0.420  0.00  0.00    +0.113 A 
ATOM     25  N   UNL     1      -0.625  -3.901  -0.697  0.00  0.00    -0.228 NA
ATOM     26  C   UNL     1      -0.024  -4.861  -0.019  0.00  0.00    +0.223 A 
ATOM     27  N   UNL     1       0.836  -4.589   0.946  0.00  0.00    -0.229 NA
ATOM     28  C   UNL     1      -0.018   1.492   0.009  0.00  0.00    +0.043 C 
ATOM     29  C   UNL     1       1.425   2.014  -0.011  0.00  0.00    +0.005 C 
ATOM     30  C   UNL     1       1.902   2.164   1.430  0.00  0.00    +0.001 C 
ATOM     31  C   UNL     1       1.262   1.089   2.307  0.00  0.00    +0.005 C 
ATOM     32  C   UNL     1       1.689  -0.299   1.847  0.00  0.00    +0.037 C 
ENDBRANCH  18  19
ENDBRANCH  17  18
ENDBRANCH   2  17
TORSDOF 6
