REMARK  Name = ZINC66875378
REMARK  5 active torsions:
REMARK  status: ('A' for Active; 'I' for Inactive)
REMARK    1  A    between atoms: C_13  and  C_15
REMARK    2  A    between atoms: C_15  and  N_16
REMARK    3  A    between atoms: C_19  and  N_22
REMARK    4  A    between atoms: C_23  and  C_25
REMARK    5  A    between atoms: C_25  and  C_26
REMARK                            x       y       z     vdW  Elec       q    Type
REMARK                         _______ _______ _______ _____ _____    ______ ____
ROOT
ATOM      1  N   UNL     1      -0.630  -4.873  -2.995  0.00  0.00    +0.386 N 
ATOM      2  C   UNL     1      -0.102  -4.521  -4.319  0.00  0.00    -0.076 C 
ATOM      3  C   UNL     1      -1.016  -5.093  -5.405  0.00  0.00    +0.003 C 
ATOM      4  C   UNL     1      -1.074  -6.617  -5.265  0.00  0.00    +0.069 C 
ATOM      5  C   UNL     1      -1.556  -6.973  -3.855  0.00  0.00    +0.003 C 
ATOM      6  C   UNL     1      -0.622  -6.331  -2.827  0.00  0.00    -0.076 C 
ATOM      7  H   UNL     1      -1.576  -4.531  -2.911  0.00  0.00    -0.081 HD
ENDROOT
BRANCH   4   8
ATOM      8  N   UNL     1      -2.007  -7.165  -6.253  0.00  0.00    -0.313 N 
ATOM      9  C   UNL     1      -1.870  -8.437  -6.676  0.00  0.00    +0.213 C 
ATOM     10  O   UNL     1      -0.975  -9.129  -6.239  0.00  0.00    -0.276 OA
ATOM     11  H   UNL     1      -2.723  -6.612  -6.603  0.00  0.00    +0.149 HD
BRANCH   9  12
ATOM     12  C   UNL     1      -2.829  -9.000  -7.693  0.00  0.00    +0.099 C 
BRANCH  12  13
ATOM     13  C   UNL     1      -2.455 -10.452  -7.998  0.00  0.00    -0.002 C 
ATOM     14  C   UNL     1      -1.104 -10.505  -8.741  0.00  0.00    +0.004 C 
ATOM     15  C   UNL     1      -1.276 -11.658  -9.761  0.00  0.00    +0.000 C 
ATOM     16  C   UNL     1      -2.745 -11.491 -10.221  0.00  0.00    +0.000 C 
ATOM     17  C   UNL     1      -3.499 -11.079  -8.939  0.00  0.00    +0.004 C 
ENDBRANCH  12  13
ENDBRANCH   9  12
ENDBRANCH   4   8
BRANCH   1  18
ATOM     18  C   UNL     1       0.206  -4.257  -1.957  0.00  0.00    +0.019 C 
BRANCH  18  29
ATOM     19  C   UNL     1      -0.019   1.525   0.010  0.00  0.00    +0.002 C 
ATOM     20  C   UNL     1       1.419   2.050  -0.001  0.00  0.00    +0.003 C 
ATOM     21  C   UNL     1       2.121   1.565  -1.270  0.00  0.00    +0.033 C 
ATOM     22  C   UNL     1       2.134   0.041  -1.308  0.00  0.00    +0.139 C 
ATOM     23  C   UNL     1       0.704  -0.506  -1.263  0.00  0.00    +0.105 C 
ATOM     24  C   UNL     1       0.002  -0.004   0.002  0.00  0.00    +0.025 C 
ATOM     25  N   UNL     1       0.788  -1.977  -1.193  0.00  0.00    -0.295 N 
ATOM     26  C   UNL     1       1.647  -2.563  -0.152  0.00  0.00    +0.136 C 
ATOM     27  C   UNL     1       3.028  -1.902  -0.228  0.00  0.00    +0.179 C 
ATOM     28  O   UNL     1       2.864  -0.480  -0.198  0.00  0.00    -0.373 OA
ATOM     29  C   UNL     1       0.101  -2.756  -2.052  0.00  0.00    +0.199 C 
ATOM     30  O   UNL     1      -0.602  -2.250  -2.901  0.00  0.00    -0.278 OA
ENDBRANCH  18  29
ENDBRANCH   1  18
TORSDOF 5
