REMARK  Name = ZINC35888511
REMARK  9 active torsions:
REMARK  status: ('A' for Active; 'I' for Inactive)
REMARK    1  A    between atoms: C_1  and  C_2
REMARK    2  A    between atoms: N_8  and  C_9
REMARK    3  A    between atoms: C_9  and  C_10
REMARK    4  A    between atoms: C_10  and  C_11
REMARK    5  A    between atoms: C_11  and  N_12
REMARK    6  A    between atoms: C_13  and  C_15
REMARK    7  A    between atoms: C_15  and  C_16
REMARK    8  A    between atoms: C_16  and  C_18
REMARK    9  A    between atoms: C_16  and  C_27
REMARK                            x       y       z     vdW  Elec       q    Type
REMARK                         _______ _______ _______ _____ _____    ______ ____
ROOT
ATOM      1  C   UNL     1       0.707   0.375   9.766  0.00  0.00    +0.060 C 
ENDROOT
BRANCH   1   2
ATOM      2  C   UNL     1       1.568   0.084  10.968  0.00  0.00    -0.015 A 
ATOM      3  C   UNL     1       1.941  -1.128  11.408  0.00  0.00    +0.087 A 
ATOM      4  N   UNL     1       2.721  -0.999  12.525  0.00  0.00    -0.360 N 
ATOM      5  H   UNL     1       3.109  -1.736  13.022  0.00  0.00    +0.165 HD
ATOM      6  C   UNL     1       2.872   0.333  12.839  0.00  0.00    +0.047 A 
ATOM      7  C   UNL     1       2.161   1.070  11.874  0.00  0.00    +0.003 A 
ATOM      8  C   UNL     1       2.142   2.464  11.938  0.00  0.00    +0.010 A 
ATOM      9  C   UNL     1       2.817   3.107  12.937  0.00  0.00    +0.001 A 
ATOM     10  C   UNL     1       3.522   2.385  13.889  0.00  0.00    +0.002 A 
ATOM     11  C   UNL     1       3.547   1.008  13.851  0.00  0.00    +0.026 A 
ENDBRANCH   1   2
BRANCH   1  12
ATOM     12  C   UNL     1      -0.643  -0.271   9.947  0.00  0.00    -0.036 A 
ATOM     13  C   UNL     1      -0.736  -1.641  10.108  0.00  0.00    +0.008 A 
ATOM     14  C   UNL     1      -1.972  -2.238  10.274  0.00  0.00    +0.050 A 
ATOM     15  C   UNL     1      -3.121  -1.464  10.280  0.00  0.00    +0.166 A 
ATOM     16  C   UNL     1      -3.027  -0.084  10.118  0.00  0.00    +0.167 A 
ATOM     17  C   UNL     1      -1.785   0.508   9.957  0.00  0.00    +0.053 A 
ATOM     18  O   UNL     1      -4.284   0.447  10.159  0.00  0.00    -0.453 OA
ATOM     19  C   UNL     1      -5.176  -0.661   9.939  0.00  0.00    +0.466 C 
ATOM     20  O   UNL     1      -4.436  -1.798  10.423  0.00  0.00    -0.453 OA
ENDBRANCH   1  12
BRANCH   1  21
ATOM     21  C   UNL     1       1.377  -0.187   8.511  0.00  0.00    +0.108 C 
BRANCH  21  23
ATOM     22  N   UNL     1       0.983  -0.177   6.069  0.00  0.00    -0.315 N 
ATOM     23  C   UNL     1       0.579   0.209   7.295  0.00  0.00    +0.214 C 
ATOM     24  O   UNL     1      -0.427   0.876   7.421  0.00  0.00    -0.276 OA
ATOM     25  H   UNL     1       1.787  -0.710   5.968  0.00  0.00    +0.149 HD
BRANCH  22  26
ATOM     26  C   UNL     1       0.207   0.209   4.887  0.00  0.00    +0.102 C 
BRANCH  26  27
ATOM     27  C   UNL     1       0.877  -0.353   3.631  0.00  0.00    +0.000 C 
BRANCH  27  28
ATOM     28  C   UNL     1       0.067   0.050   2.397  0.00  0.00    -0.077 C 
BRANCH  28  35
ATOM     29  C   UNL     1      -0.019   1.526   0.010  0.00  0.00    -0.013 C 
ATOM     30  C   UNL     1       0.002  -0.004   0.002  0.00  0.00    -0.072 C 
ATOM     31  C   UNL     1       0.717  -0.497  -1.258  0.00  0.00    -0.016 C 
ATOM     32  C   UNL     1       0.735  -2.028  -1.262  0.00  0.00    -0.003 C 
ATOM     33  C   UNL     1       1.410  -2.524   0.020  0.00  0.00    -0.019 C 
ATOM     34  C   UNL     1       0.669  -1.956   1.232  0.00  0.00    -0.078 C 
ATOM     35  N   UNL     1       0.711  -0.490   1.192  0.00  0.00    +0.381 N 
ATOM     36  H   UNL     1       1.671  -0.182   1.159  0.00  0.00    -0.081 HD
ENDBRANCH  28  35
ENDBRANCH  27  28
ENDBRANCH  26  27
ENDBRANCH  22  26
ENDBRANCH  21  23
ENDBRANCH   1  21
TORSDOF 8
