REMARK  Name = ZINC40322253
REMARK  10 active torsions:
REMARK  status: ('A' for Active; 'I' for Inactive)
REMARK    1  A    between atoms: C_1  and  C_2
REMARK    2  A    between atoms: C_2  and  O_3
REMARK    3  A    between atoms: O_3  and  C_4
REMARK    4  A    between atoms: C_7  and  C_10
REMARK    5  A    between atoms: C_10  and  C_12
REMARK    6  A    between atoms: C_10  and  N_31
REMARK    7  A    between atoms: C_12  and  N_13
REMARK    8  A    between atoms: C_14  and  C_16
REMARK    9  A    between atoms: C_19  and  S_21
REMARK   10  A    between atoms: S_21  and  C_24
REMARK                            x       y       z     vdW  Elec       q    Type
REMARK                         _______ _______ _______ _____ _____    ______ ____
ROOT
ATOM      1  C   UNL     1       2.453  -6.619  -1.305  0.00  0.00    +0.094 C 
ENDROOT
BRANCH   1   2
ATOM      2  N   UNL     1       2.590  -6.270   0.111  0.00  0.00    -0.310 N 
ATOM      3  C   UNL     1       3.721  -6.579   0.775  0.00  0.00    +0.279 C 
ATOM      4  O   UNL     1       4.629  -7.148   0.199  0.00  0.00    -0.267 OA
ATOM      5  H   UNL     1       1.866  -5.816   0.570  0.00  0.00    +0.149 HD
BRANCH   3   6
ATOM      6  C   UNL     1       3.857  -6.229   2.193  0.00  0.00    +0.192 A 
ATOM      7  C   UNL     1       4.946  -6.478   2.979  0.00  0.00    +0.056 A 
ATOM      8  C   UNL     1       4.644  -5.976   4.255  0.00  0.00    +0.070 A 
ATOM      9  C   UNL     1       3.401  -5.450   4.192  0.00  0.00    +0.246 A 
ATOM     10  O   UNL     1       2.932  -5.600   2.947  0.00  0.00    -0.433 OA
BRANCH   9  11
ATOM     11  S   UNL     1       2.541  -4.688   5.528  0.00  0.00    +0.058 S 
ATOM     12  O   UNL     1       1.155  -4.790   5.229  0.00  0.00    -0.161 OA
ATOM     13  O   UNL     1       3.103  -5.211   6.724  0.00  0.00    -0.161 OA
BRANCH  11  14
ATOM     14  C   UNL     1       2.939  -2.972   5.492  0.00  0.00    +0.097 A 
ATOM     15  C   UNL     1       4.034  -2.502   6.192  0.00  0.00    +0.029 A 
ATOM     16  C   UNL     1       4.347  -1.156   6.165  0.00  0.00    +0.022 A 
ATOM     17  C   UNL     1       3.563  -0.279   5.436  0.00  0.00    +0.041 A 
ATOM     18  C   UNL     1       2.467  -0.750   4.736  0.00  0.00    +0.022 A 
ATOM     19  C   UNL     1       2.158  -2.097   4.760  0.00  0.00    +0.029 A 
ATOM     20 CL   UNL     1       3.955   1.412   5.402  0.00  0.00    -0.084 Cl
ENDBRANCH  11  14
ENDBRANCH   9  11
ENDBRANCH   3   6
ENDBRANCH   1   2
BRANCH   1  21
ATOM     21  C   UNL     1       1.143  -6.045  -1.849  0.00  0.00    -0.020 C 
BRANCH  21  22
ATOM     22  N   UNL     1       0.977  -6.446  -3.252  0.00  0.00    +0.385 N 
ATOM     23  C   UNL     1      -0.240  -5.805  -3.787  0.00  0.00    -0.078 C 
ATOM     24  C   UNL     1      -0.100  -5.698  -5.284  0.00  0.00    -0.019 C 
ATOM     25  C   UNL     1      -0.790  -6.874  -6.000  0.00  0.00    -0.002 C 
ATOM     26  C   UNL     1      -0.551  -8.210  -5.268  0.00  0.00    -0.002 C 
ATOM     27  C   UNL     1       0.867  -8.348  -4.773  0.00  0.00    -0.019 C 
ATOM     28  C   UNL     1       0.944  -7.840  -3.318  0.00  0.00    -0.078 C 
ATOM     29  H   UNL     1       1.772  -6.115  -3.778  0.00  0.00    -0.081 HD
ENDBRANCH  21  22
BRANCH  21  33
ATOM     30  C   UNL     1       1.242  -1.780  -1.587  0.00  0.00    +0.121 A 
ATOM     31  C   UNL     1       0.562  -2.519  -0.630  0.00  0.00    +0.046 A 
ATOM     32  C   UNL     1       0.531  -3.898  -0.717  0.00  0.00    +0.005 A 
ATOM     33  C   UNL     1       1.178  -4.541  -1.756  0.00  0.00    -0.059 A 
ATOM     34  C   UNL     1       1.857  -3.807  -2.711  0.00  0.00    +0.005 A 
ATOM     35  C   UNL     1       1.885  -2.428  -2.632  0.00  0.00    +0.046 A 
BRANCH  30  36
ATOM     36  O   UNL     1       1.273  -0.424  -1.504  0.00  0.00    -0.492 OA
BRANCH  36  38
ATOM     37  C   UNL     1       0.734   1.696  -0.476  0.00  0.00    +0.048 C 
ATOM     38  C   UNL     1       0.589   0.174  -0.402  0.00  0.00    +0.225 C 
ENDBRANCH  36  38
ENDBRANCH  30  36
ENDBRANCH  21  33
ENDBRANCH   1  21
TORSDOF 9
