REMARK  Name = ZINC19523115
REMARK  5 active torsions:
REMARK  status: ('A' for Active; 'I' for Inactive)
REMARK    1  A    between atoms: C_1  and  C_2
REMARK    2  A    between atoms: C_2  and  C_3
REMARK    3  A    between atoms: C_6  and  C_9
REMARK    4  A    between atoms: C_7  and  C_8
REMARK    5  A    between atoms: C_25  and  C_31
REMARK                            x       y       z     vdW  Elec       q    Type
REMARK                         _______ _______ _______ _____ _____    ______ ____
ROOT
ATOM      1  C   UNL     1       4.669  -1.598   0.076  0.00  0.00    +0.282 C 
ATOM      2  O   UNL     1       4.556  -2.732   0.505  0.00  0.00    -0.267 OA
ATOM      3  N   UNL     1       3.595  -0.786   0.029  0.00  0.00    -0.294 N 
ATOM      4  C   UNL     1       3.554   0.606  -0.456  0.00  0.00    +0.112 C 
ATOM      5  C   UNL     1       2.117   0.879  -0.935  0.00  0.00    +0.015 C 
ATOM      6  C   UNL     1       1.477   1.934  -0.002  0.00  0.00    +0.009 C 
ATOM      7  C   UNL     1      -0.019   1.536   0.011  0.00  0.00    +0.046 C 
ATOM      8  C   UNL     1       0.002  -0.004   0.002  0.00  0.00    +0.104 C 
ATOM      9  C   UNL     1       1.336  -0.429  -0.625  0.00  0.00    +0.052 C 
ATOM     10  C   UNL     1       2.213  -1.109   0.453  0.00  0.00    +0.115 C 
ATOM     11  N   UNL     1      -1.109  -0.503  -0.812  0.00  0.00    -0.322 N 
ATOM     12  C   UNL     1      -1.484  -1.837  -0.685  0.00  0.00    +0.041 A 
ATOM     13  C   UNL     1      -2.064  -2.533  -1.732  0.00  0.00    +0.024 A 
ATOM     14  C   UNL     1      -2.431  -3.853  -1.556  0.00  0.00    +0.005 A 
ATOM     15  C   UNL     1      -2.224  -4.485  -0.340  0.00  0.00    -0.050 A 
ATOM     16  C   UNL     1      -1.643  -3.807   0.712  0.00  0.00    +0.018 A 
ATOM     17  C   UNL     1      -1.263  -2.477   0.546  0.00  0.00    +0.058 A 
ATOM     18  C   UNL     1      -0.616  -1.720   1.633  0.00  0.00    +0.247 C 
ATOM     19  O   UNL     1      -0.558  -2.185   2.755  0.00  0.00    -0.270 OA
ATOM     20  N   UNL     1      -0.090  -0.505   1.371  0.00  0.00    -0.290 N 
ATOM     21  C   UNL     1      -2.636  -5.924  -0.165  0.00  0.00    +0.044 C 
ATOM     22  H   UNL     1      -1.629   0.173  -1.507  0.00  0.00    +0.148 HD
ATOM     23  H   UNL     1       0.272   0.110   2.208  0.00  0.00    +0.151 HD
ENDROOT
BRANCH   1  27
ATOM     24  C   UNL     1       8.127  -0.985  -0.918  0.00  0.00    -0.006 A 
ATOM     25  C   UNL     1       7.533   0.194  -1.204  0.00  0.00    +0.199 A 
ATOM     26  O   UNL     1       6.234   0.110  -0.888  0.00  0.00    -0.458 OA
ATOM     27  C   UNL     1       5.974  -1.116  -0.388  0.00  0.00    +0.192 A 
ATOM     28  C   UNL     1       7.137  -1.831  -0.395  0.00  0.00    +0.003 A 
ATOM     29  C   UNL     1       7.322  -3.252   0.069  0.00  0.00    +0.048 C 
BRANCH  24  31
ATOM     30  C   UNL     1       9.754  -2.029  -2.471  0.00  0.00    +0.009 C 
ATOM     31  C   UNL     1       9.581  -1.327  -1.123  0.00  0.00    +0.035 C 
ENDBRANCH  24  31
ENDBRANCH   1  27
TORSDOF 2
