REMARK  Name = ZINC35807161
REMARK  6 active torsions:
REMARK  status: ('A' for Active; 'I' for Inactive)
REMARK    1  A    between atoms: C_1  and  C_2
REMARK    2  A    between atoms: C_2  and  O_3
REMARK    3  A    between atoms: O_3  and  C_4
REMARK    4  A    between atoms: C_9  and  C_10
REMARK    5  A    between atoms: C_10  and  C_12
REMARK    6  A    between atoms: C_33  and  C_40
REMARK                            x       y       z     vdW  Elec       q    Type
REMARK                         _______ _______ _______ _____ _____    ______ ____
ROOT
ATOM      1  C   UNL     1       2.675  -2.003  -4.694  0.00  0.00    +0.066 C 
ATOM      2  C   UNL     1       1.660  -2.251  -5.836  0.00  0.00    -0.055 C 
ATOM      3  C   UNL     1       1.173  -3.709  -5.767  0.00  0.00    -0.016 C 
ATOM      4  C   UNL     1       2.155  -4.515  -6.640  0.00  0.00    -0.020 C 
ATOM      5  C   UNL     1       3.184  -3.484  -7.145  0.00  0.00    -0.076 C 
ATOM      6  N   UNL     1       2.490  -2.158  -7.076  0.00  0.00    +0.395 N 
ATOM      7  C   UNL     1       3.480  -1.099  -6.816  0.00  0.00    +0.060 C 
ATOM      8  C   UNL     1       3.642  -0.973  -5.303  0.00  0.00    +0.085 C 
ATOM      9  C   UNL     1       3.333   0.415  -4.816  0.00  0.00    -0.011 A 
ATOM     10  C   UNL     1       2.221   1.222  -4.899  0.00  0.00    +0.006 A 
ATOM     11  C   UNL     1       2.239   2.486  -4.337  0.00  0.00    +0.000 A 
ATOM     12  C   UNL     1       3.377   2.936  -3.692  0.00  0.00    +0.002 A 
ATOM     13  C   UNL     1       4.494   2.131  -3.607  0.00  0.00    +0.023 A 
ATOM     14  C   UNL     1       4.484   0.857  -4.170  0.00  0.00    +0.038 A 
ATOM     15  N   UNL     1       5.472  -0.129  -4.215  0.00  0.00    -0.285 N 
ATOM     16  C   UNL     1       5.057  -1.235  -4.862  0.00  0.00    +0.228 C 
ATOM     17  O   UNL     1       5.699  -2.246  -5.053  0.00  0.00    -0.275 OA
ATOM     18  C   UNL     1       4.793  -1.416  -7.481  0.00  0.00    -0.026 A 
ATOM     19  C   UNL     1       5.689  -2.454  -7.355  0.00  0.00    +0.008 A 
ATOM     20  C   UNL     1       6.840  -2.471  -8.122  0.00  0.00    -0.050 A 
ATOM     21  C   UNL     1       7.088  -1.443  -9.014  0.00  0.00    +0.005 A 
ATOM     22  C   UNL     1       6.194  -0.402  -9.143  0.00  0.00    +0.024 A 
ATOM     23  C   UNL     1       5.032  -0.377  -8.374  0.00  0.00    +0.036 A 
ATOM     24  N   UNL     1       3.991   0.553  -8.323  0.00  0.00    -0.286 N 
ATOM     25  C   UNL     1       3.043   0.205  -7.434  0.00  0.00    +0.212 C 
ATOM     26  O   UNL     1       2.030   0.822  -7.178  0.00  0.00    -0.277 OA
ATOM     27  C   UNL     1       7.822  -3.606  -7.986  0.00  0.00    +0.044 C 
ATOM     28  H   UNL     1       6.354  -0.029  -3.825  0.00  0.00    +0.155 HD
ATOM     29  H   UNL     1       3.956   1.356  -8.865  0.00  0.00    +0.155 HD
ATOM     30  H   UNL     1       1.930  -1.978  -7.896  0.00  0.00    -0.079 HD
ENDROOT
BRANCH   1  31
ATOM     31  C   UNL     1       1.984  -1.433  -3.482  0.00  0.00    +0.169 C 
ATOM     32  O   UNL     1       0.913  -0.875  -3.600  0.00  0.00    -0.292 OA
BRANCH  31  38
ATOM     33  C   UNL     1       1.967  -1.025  -1.025  0.00  0.00    +0.131 A 
ATOM     34  C   UNL     1       2.563  -1.150   0.221  0.00  0.00    +0.046 A 
ATOM     35  C   UNL     1       3.782  -1.787   0.345  0.00  0.00    +0.004 A 
ATOM     36  C   UNL     1       4.420  -2.306  -0.771  0.00  0.00    +0.001 A 
ATOM     37  C   UNL     1       3.845  -2.191  -2.017  0.00  0.00    +0.015 A 
ATOM     38  C   UNL     1       2.607  -1.554  -2.158  0.00  0.00    +0.059 A 
BRANCH  33  39
ATOM     39  O   UNL     1       0.770  -0.399  -1.148  0.00  0.00    -0.492 OA
BRANCH  39  41
ATOM     40  C   UNL     1      -1.155   0.780  -0.287  0.00  0.00    +0.048 C 
ATOM     41  C   UNL     1       0.180   0.114   0.048  0.00  0.00    +0.226 C 
ENDBRANCH  39  41
ENDBRANCH  33  39
ENDBRANCH  31  38
ENDBRANCH   1  31
TORSDOF 4
