REMARK  Name = ZINC06779931
REMARK  9 active torsions:
REMARK  status: ('A' for Active; 'I' for Inactive)
REMARK    1  A    between atoms: C_1  and  C_2
REMARK    2  A    between atoms: C_2  and  C_4
REMARK    3  A    between atoms: C_2  and  N_10
REMARK    4  A    between atoms: N_10  and  C_11
REMARK    5  A    between atoms: C_11  and  C_12
REMARK    6  A    between atoms: C_15  and  O_20
REMARK    7  A    between atoms: C_17  and  O_18
REMARK    8  A    between atoms: O_18  and  C_19
REMARK    9  A    between atoms: O_20  and  C_21
REMARK                            x       y       z     vdW  Elec       q    Type
REMARK                         _______ _______ _______ _____ _____    ______ ____
ROOT
ATOM      1  N   UNL     1       0.950  -0.924   1.140  0.00  0.00    -0.300 N 
ATOM      2  C   UNL     1       0.686  -1.010   2.487  0.00  0.00    +0.131 C 
ATOM      3  N   UNL     1       0.558  -2.171   3.022  0.00  0.00    -0.368 N 
ATOM      4  C   UNL     1       0.245  -2.498   4.395  0.00  0.00    +0.115 C 
ATOM      5  C   UNL     1       0.591  -1.390   5.381  0.00  0.00    +0.032 C 
ATOM      6  C   UNL     1      -0.171  -0.112   4.995  0.00  0.00    +0.079 C 
ATOM      7  S   UNL     1       0.542   0.477   3.425  0.00  0.00    -0.092 S 
ATOM      8  H   UNL     1       0.688  -2.927   2.427  0.00  0.00    +0.161 HD
ENDROOT
BRANCH   1  10
ATOM      9  C   UNL     1       0.066   1.335   0.833  0.00  0.00    +0.033 C 
ATOM     10  C   UNL     1       0.106  -0.090   0.280  0.00  0.00    +0.103 C 
BRANCH  10  11
ATOM     11  C   UNL     1      -1.290  -0.656   0.247  0.00  0.00    -0.027 A 
ATOM     12  C   UNL     1      -1.968  -0.894   1.428  0.00  0.00    +0.005 A 
ATOM     13  C   UNL     1      -3.249  -1.412   1.397  0.00  0.00    +0.000 A 
ATOM     14  C   UNL     1      -3.852  -1.694   0.185  0.00  0.00    +0.000 A 
ATOM     15  C   UNL     1      -3.174  -1.455  -0.996  0.00  0.00    +0.000 A 
ATOM     16  C   UNL     1      -1.895  -0.932  -0.965  0.00  0.00    +0.005 A 
ENDBRANCH  10  11
ENDBRANCH   1  10
BRANCH   1  17
ATOM     17  C   UNL     1       2.076  -1.665   0.565  0.00  0.00    +0.146 C 
BRANCH  17  18
ATOM     18  C   UNL     1       3.279  -0.762   0.475  0.00  0.00    +0.012 A 
ATOM     19  C   UNL     1       3.626  -0.194  -0.736  0.00  0.00    +0.012 A 
ATOM     20  C   UNL     1       4.729   0.634  -0.823  0.00  0.00    +0.046 A 
ATOM     21  C   UNL     1       5.489   0.898   0.308  0.00  0.00    +0.124 A 
ATOM     22  C   UNL     1       5.143   0.330   1.524  0.00  0.00    +0.091 A 
ATOM     23  C   UNL     1       4.033  -0.496   1.609  0.00  0.00    +0.128 A 
BRANCH  23  24
ATOM     24  O   UNL     1       3.687  -1.050   2.801  0.00  0.00    -0.495 OA
ATOM     25  C   UNL     1       4.508  -0.733   3.926  0.00  0.00    +0.277 C 
ENDBRANCH  23  24
BRANCH  21  26
ATOM     26  O   UNL     1       6.574   1.713   0.222  0.00  0.00    -0.495 OA
ATOM     27  C   UNL     1       6.872   2.263  -1.062  0.00  0.00    +0.277 C 
ENDBRANCH  21  26
ENDBRANCH  17  18
ENDBRANCH   1  17
TORSDOF 6
