REMARK  Name = ZINC35492214
REMARK  13 active torsions:
REMARK  status: ('A' for Active; 'I' for Inactive)
REMARK    1  A    between atoms: C_1  and  C_2
REMARK    2  A    between atoms: C_2  and  N_3
REMARK    3  A    between atoms: N_3  and  C_4
REMARK    4  A    between atoms: N_3  and  C_6
REMARK    5  A    between atoms: C_4  and  C_5
REMARK    6  A    between atoms: C_6  and  C_7
REMARK    7  A    between atoms: C_7  and  C_8
REMARK    8  A    between atoms: C_8  and  C_9
REMARK    9  A    between atoms: C_9  and  C_11
REMARK   10  A    between atoms: C_9  and  N_12
REMARK   11  A    between atoms: C_13  and  C_15
REMARK   12  A    between atoms: N_19  and  C_20
REMARK   13  A    between atoms: C_20  and  C_21
REMARK                            x       y       z     vdW  Elec       q    Type
REMARK                         _______ _______ _______ _____ _____    ______ ____
ROOT
ATOM      1  C   UNL     1     -11.741  -1.195 -15.704  0.00  0.00    +0.109 A 
ATOM      2  C   UNL     1     -11.035  -0.701 -16.779  0.00  0.00    +0.079 A 
ATOM      3  C   UNL     1     -11.583  -1.260 -17.940  0.00  0.00    +0.153 A 
ATOM      4  C   UNL     1     -12.626  -2.094 -17.548  0.00  0.00    +0.088 A 
ATOM      5  N   UNL     1     -12.712  -2.054 -16.180  0.00  0.00    -0.329 N 
ATOM      6  C   UNL     1     -13.161  -2.645 -18.735  0.00  0.00    +0.067 A 
ATOM      7  C   UNL     1     -12.452  -2.143 -19.761  0.00  0.00    +0.198 A 
ATOM      8  O   UNL     1     -11.506  -1.313 -19.288  0.00  0.00    -0.461 OA
ENDROOT
BRANCH   1  10
ATOM      9  N   UNL     1     -10.402  -0.168 -13.946  0.00  0.00    -0.308 N 
ATOM     10  C   UNL     1     -11.498  -0.870 -14.296  0.00  0.00    +0.261 C 
ATOM     11  O   UNL     1     -12.286  -1.234 -13.443  0.00  0.00    -0.269 OA
ATOM     12  H   UNL     1      -9.809   0.178 -14.631  0.00  0.00    +0.149 HD
BRANCH   9  13
ATOM     13  C   UNL     1     -10.108   0.073 -12.531  0.00  0.00    +0.070 C 
ATOM     14  C   UNL     1     -10.109  -1.258 -11.777  0.00  0.00    +0.028 C 
BRANCH  13  15
ATOM     15  C   UNL     1     -11.174   0.997 -11.938  0.00  0.00    +0.020 C 
BRANCH  15  16
ATOM     16  C   UNL     1     -11.109   2.360 -12.630  0.00  0.00    -0.017 C 
BRANCH  16  17
ATOM     17  C   UNL     1     -12.109   3.313 -11.972  0.00  0.00    -0.079 C 
BRANCH  17  18
ATOM     18  N   UNL     1     -11.924   4.667 -12.513  0.00  0.00    +0.379 N 
ATOM     19  H   UNL     1     -10.976   4.969 -12.345  0.00  0.00    -0.082 HD
BRANCH  18  21
ATOM     20  C   UNL     1     -10.976   4.072 -14.691  0.00  0.00    -0.017 C 
ATOM     21  C   UNL     1     -12.185   4.656 -13.959  0.00  0.00    -0.082 C 
ENDBRANCH  18  21
BRANCH  18  22
ATOM     22  C   UNL     1     -12.857   5.590 -11.853  0.00  0.00    -0.082 C 
ATOM     23  C   UNL     1     -12.562   7.022 -12.304  0.00  0.00    -0.017 C 
ENDBRANCH  18  22
ENDBRANCH  17  18
ENDBRANCH  16  17
ENDBRANCH  15  16
ENDBRANCH  13  15
ENDBRANCH   9  13
ENDBRANCH   1  10
BRANCH   5  24
ATOM     24  C   UNL     1     -13.675  -2.795 -15.361  0.00  0.00    +0.157 C 
BRANCH  24  25
ATOM     25  C   UNL     1     -13.198  -4.214 -15.185  0.00  0.00    -0.028 A 
ATOM     26  C   UNL     1     -13.481  -5.163 -16.150  0.00  0.00    +0.006 A 
ATOM     27  C   UNL     1     -13.043  -6.464 -15.989  0.00  0.00    +0.015 A 
ATOM     28  C   UNL     1     -12.322  -6.817 -14.863  0.00  0.00    +0.018 A 
ATOM     29  C   UNL     1     -12.039  -5.867 -13.898  0.00  0.00    +0.015 A 
ATOM     30  C   UNL     1     -12.473  -4.565 -14.062  0.00  0.00    +0.006 A 
ATOM     31 BR   UNL     1     -11.724  -8.597 -14.642  0.00  0.00    -0.050 Br
ENDBRANCH  24  25
ENDBRANCH   5  24
TORSDOF 10
