REMARK  Name = ZINC39929653
REMARK  7 active torsions:
REMARK  status: ('A' for Active; 'I' for Inactive)
REMARK    1  A    between atoms: C_1  and  C_2
REMARK    2  A    between atoms: P_7  and  S_19
REMARK    3  A    between atoms: C_10  and  S_11
REMARK    4  A    between atoms: S_11  and  C_12
REMARK    5  A    between atoms: C_12  and  C_13
REMARK    6  A    between atoms: S_19  and  C_20
REMARK    7  A    between atoms: C_20  and  C_21
REMARK                            x       y       z     vdW  Elec       q    Type
REMARK                         _______ _______ _______ _____ _____    ______ ____
ROOT
ATOM      1  C   UNL     1      -0.018   1.503   0.010  0.00  0.00    +0.068 C 
ATOM      2  C   UNL     1       0.002  -0.004   0.002  0.00  0.00    +0.069 C 
ATOM      3  C   UNL     1      -1.081  -0.784   0.003  0.00  0.00    +0.048 C 
ATOM      4  C   UNL     1      -0.525  -2.186  -0.239  0.00  0.00    +0.236 C 
ATOM      5  N   UNL     1      -1.103  -3.001   0.844  0.00  0.00    -0.239 NA
ATOM      6  P   UNL     1      -2.749  -2.955   0.970  0.00  0.00    +0.158 P 
ATOM      7  S   UNL     1      -3.498  -4.140  -0.258  0.00  0.00    -0.015 S 
ATOM      8  N   UNL     1      -3.287  -1.438   0.660  0.00  0.00    -0.223 NA
ATOM      9  C   UNL     1      -2.500  -0.500   0.212  0.00  0.00    +0.107 C 
ATOM     10  N   UNL     1       0.917  -1.983  -0.108  0.00  0.00    -0.163 NA
ATOM     11  N   UNL     1       1.122  -0.766  -0.013  0.00  0.00    -0.157 NA
ATOM     12  H   UNL     1      -0.554  -3.529   1.443  0.00  0.00    +0.132 HD
ENDROOT
BRANCH   9  13
ATOM     13  S   UNL     1      -3.151   1.094  -0.164  0.00  0.00    -0.101 S 
BRANCH  13  14
ATOM     14  C   UNL     1      -4.912   0.957   0.254  0.00  0.00    +0.111 C 
BRANCH  14  15
ATOM     15  C   UNL     1      -5.597   2.270  -0.024  0.00  0.00    -0.037 A 
ATOM     16  C   UNL     1      -5.670   3.235   0.964  0.00  0.00    +0.004 A 
ATOM     17  C   UNL     1      -6.298   4.439   0.709  0.00  0.00    +0.000 A 
ATOM     18  C   UNL     1      -6.854   4.679  -0.534  0.00  0.00    +0.000 A 
ATOM     19  C   UNL     1      -6.781   3.715  -1.522  0.00  0.00    +0.000 A 
ATOM     20  C   UNL     1      -6.148   2.512  -1.268  0.00  0.00    +0.004 A 
ENDBRANCH  14  15
ENDBRANCH  13  14
ENDBRANCH   9  13
BRANCH   6  21
ATOM     21  S   UNL     1      -3.322  -3.517   2.932  0.00  0.00    -0.086 S 
BRANCH  21  22
ATOM     22  C   UNL     1      -5.133  -3.417   2.905  0.00  0.00    +0.112 C 
BRANCH  22  23
ATOM     23  C   UNL     1      -5.691  -4.596   2.150  0.00  0.00    -0.037 A 
ATOM     24  C   UNL     1      -5.892  -4.511   0.785  0.00  0.00    +0.004 A 
ATOM     25  C   UNL     1      -6.403  -5.592   0.093  0.00  0.00    +0.000 A 
ATOM     26  C   UNL     1      -6.713  -6.760   0.765  0.00  0.00    +0.000 A 
ATOM     27  C   UNL     1      -6.511  -6.845   2.130  0.00  0.00    +0.000 A 
ATOM     28  C   UNL     1      -5.996  -5.765   2.822  0.00  0.00    +0.004 A 
ENDBRANCH  22  23
ENDBRANCH  21  22
ENDBRANCH   6  21
TORSDOF 6
