REMARK  Name = ZINC66587771
REMARK  6 active torsions:
REMARK  status: ('A' for Active; 'I' for Inactive)
REMARK    1  A    between atoms: C_1  and  C_2
REMARK    2  A    between atoms: C_4  and  C_25
REMARK    3  A    between atoms: N_8  and  S_12
REMARK    4  A    between atoms: S_12  and  C_15
REMARK    5  A    between atoms: C_20  and  S_21
REMARK    6  A    between atoms: S_21  and  C_24
REMARK                            x       y       z     vdW  Elec       q    Type
REMARK                         _______ _______ _______ _____ _____    ______ ____
ROOT
ATOM      1  S   UNL     1       0.139  -2.396   4.466  0.00  0.00    +0.077 S 
ATOM      2  O   UNL     1       0.910  -3.086   5.441  0.00  0.00    -0.150 OA
ATOM      3  O   UNL     1       0.714  -1.462   3.562  0.00  0.00    -0.150 OA
ENDROOT
BRANCH   1  11
ATOM      4  C   UNL     1      -2.102  -0.087   0.413  0.00  0.00    +0.044 C 
ATOM      5  C   UNL     1      -1.899  -1.538   0.763  0.00  0.00    -0.048 A 
ATOM      6  C   UNL     1      -2.262  -2.525  -0.135  0.00  0.00    +0.007 A 
ATOM      7  C   UNL     1      -2.080  -3.856   0.184  0.00  0.00    -0.045 A 
ATOM      8  C   UNL     1      -1.532  -4.213   1.405  0.00  0.00    -0.022 A 
ATOM      9  C   UNL     1      -1.165  -3.225   2.305  0.00  0.00    +0.055 A 
ATOM     10  C   UNL     1      -1.346  -1.885   1.980  0.00  0.00    +0.028 A 
ATOM     11  N   UNL     1      -0.601  -3.555   3.543  0.00  0.00    -0.203 N 
ATOM     12  C   UNL     1      -0.676  -4.946   4.009  0.00  0.00    +0.132 C 
ATOM     13  C   UNL     1      -0.312  -5.856   2.829  0.00  0.00    +0.025 C 
ATOM     14  C   UNL     1      -1.352  -5.674   1.724  0.00  0.00    +0.039 C 
ATOM     15  C   UNL     1      -2.479  -4.925  -0.800  0.00  0.00    +0.044 C 
ENDBRANCH   1  11
BRANCH   1  16
ATOM     16  C   UNL     1      -1.127  -1.538   5.340  0.00  0.00    +0.133 A 
ATOM     17  C   UNL     1      -2.407  -2.060   5.390  0.00  0.00    +0.031 A 
ATOM     18  C   UNL     1      -3.401  -1.387   6.076  0.00  0.00    +0.002 A 
ATOM     19  C   UNL     1      -3.115  -0.192   6.711  0.00  0.00    +0.002 A 
ATOM     20  C   UNL     1      -1.836   0.328   6.662  0.00  0.00    +0.029 A 
ATOM     21  C   UNL     1      -0.841  -0.347   5.979  0.00  0.00    +0.114 A 
BRANCH  21  22
ATOM     22  S   UNL     1       0.792   0.313   5.921  0.00  0.00    -0.004 S 
ATOM     23  O   UNL     1       1.119   0.349   4.539  0.00  0.00    -0.170 OA
ATOM     24  O   UNL     1       0.725   1.512   6.681  0.00  0.00    -0.170 OA
ATOM     25  C   UNL     1       1.821  -0.912   6.776  0.00  0.00    +0.200 C 
ENDBRANCH  21  22
ENDBRANCH   1  16
TORSDOF 3
