REMARK  Name = ZINC67241584
REMARK  8 active torsions:
REMARK  status: ('A' for Active; 'I' for Inactive)
REMARK    1  A    between atoms: C_1  and  C_2
REMARK    2  A    between atoms: N_11  and  C_15
REMARK    3  A    between atoms: C_15  and  C_16
REMARK    4  A    between atoms: N_18  and  C_19
REMARK    5  A    between atoms: C_23  and  C_25
REMARK    6  A    between atoms: C_25  and  C_27
REMARK    7  A    between atoms: C_25  and  S_28
REMARK    8  A    between atoms: S_28  and  C_29
REMARK                            x       y       z     vdW  Elec       q    Type
REMARK                         _______ _______ _______ _____ _____    ______ ____
ROOT
ATOM      1  C   UNL     1       0.910   1.508   4.347  0.00  0.00    +0.214 C 
ENDROOT
BRANCH   1  11
ATOM      2  C   UNL     1      -0.006   1.536   0.009  0.00  0.00    +0.010 C 
ATOM      3  C   UNL     1       0.003   0.006   0.000  0.00  0.00    +0.018 C 
ATOM      4  C   UNL     1      -1.437  -0.513   0.008  0.00  0.00    +0.006 C 
ATOM      5  C   UNL     1      -1.427  -2.043   0.020  0.00  0.00    +0.000 C 
ATOM      6  C   UNL     1      -0.709  -2.539   1.278  0.00  0.00    +0.003 C 
ATOM      7  C   UNL     1       0.734  -2.029   1.275  0.00  0.00    +0.035 C 
ATOM      8  C   UNL     1       0.736  -0.504   1.236  0.00  0.00    +0.115 C 
ATOM      9  C   UNL     1       0.110   0.057   2.491  0.00  0.00    +0.247 C 
ATOM     10  O   UNL     1      -1.027  -0.107   2.881  0.00  0.00    -0.273 OA
ATOM     11  N   UNL     1       1.081   0.779   3.087  0.00  0.00    -0.215 N 
ATOM     12  C   UNL     1       2.220   0.748   2.385  0.00  0.00    +0.310 C 
ATOM     13  O   UNL     1       3.237   1.323   2.720  0.00  0.00    -0.252 OA
ATOM     14  N   UNL     1       2.112   0.007   1.265  0.00  0.00    -0.285 N 
ATOM     15  H   UNL     1       2.807  -0.156   0.608  0.00  0.00    +0.151 HD
ENDBRANCH   1  11
BRANCH   1  16
ATOM     16  C   UNL     1       1.265   0.606   5.501  0.00  0.00    +0.235 C 
ATOM     17  O   UNL     1       1.625  -0.533   5.292  0.00  0.00    -0.274 OA
ATOM     18  N   UNL     1       1.182   1.065   6.765  0.00  0.00    -0.284 N 
ATOM     19  H   UNL     1       0.960   1.995   6.930  0.00  0.00    +0.155 HD
BRANCH  18  20
ATOM     20  C   UNL     1       1.417   0.201   7.840  0.00  0.00    +0.034 A 
ATOM     21  C   UNL     1       0.694   0.342   9.018  0.00  0.00    +0.023 A 
ATOM     22  C   UNL     1       0.928  -0.512  10.077  0.00  0.00    +0.002 A 
ATOM     23  C   UNL     1       1.883  -1.507   9.966  0.00  0.00    +0.005 A 
ATOM     24  C   UNL     1       2.605  -1.650   8.796  0.00  0.00    -0.033 A 
ATOM     25  C   UNL     1       2.370  -0.803   7.730  0.00  0.00    +0.028 A 
BRANCH  24  26
ATOM     26  C   UNL     1       3.644  -2.735   8.680  0.00  0.00    +0.073 C 
ATOM     27  C   UNL     1       4.715  -2.532   9.753  0.00  0.00    +0.024 C 
BRANCH  26  28
ATOM     28  S   UNL     1       2.857  -4.353   8.910  0.00  0.00    -0.156 S 
ATOM     29  C   UNL     1       4.192  -5.540   8.593  0.00  0.00    +0.085 C 
ENDBRANCH  26  28
ENDBRANCH  24  26
ENDBRANCH  18  20
ENDBRANCH   1  16
TORSDOF 5
