REMARK  Name = ZINC23380091
REMARK  6 active torsions:
REMARK  status: ('A' for Active; 'I' for Inactive)
REMARK    1  A    between atoms: C_1  and  C_2
REMARK    2  A    between atoms: C_7  and  N_8
REMARK    3  A    between atoms: N_11  and  C_14
REMARK    4  A    between atoms: C_14  and  C_15
REMARK    5  A    between atoms: C_18  and  C_21
REMARK    6  A    between atoms: C_26  and  C_28
REMARK                            x       y       z     vdW  Elec       q    Type
REMARK                         _______ _______ _______ _____ _____    ______ ____
ROOT
ATOM      1  C   UNL     1      -1.236   3.134   0.002  0.00  0.00    -0.033 A 
ATOM      2  C   UNL     1      -1.216   1.751  -0.005  0.00  0.00    +0.005 A 
ATOM      3  C   UNL     1      -0.013   1.076  -0.008  0.00  0.00    +0.012 A 
ATOM      4  C   UNL     1       1.186   1.792  -0.016  0.00  0.00    +0.017 A 
ATOM      5  C   UNL     1       1.158   3.188  -0.015  0.00  0.00    +0.012 A 
ATOM      6  C   UNL     1      -0.052   3.850  -0.006  0.00  0.00    +0.005 A 
ENDROOT
BRANCH   4   7
ATOM      7  C   UNL     1       2.478   1.076  -0.027  0.00  0.00    +0.141 A 
ATOM      8  N   UNL     1       3.639   1.790  -0.040  0.00  0.00    -0.305 N 
ATOM      9  C   UNL     1       4.824   1.143  -0.049  0.00  0.00    +0.287 A 
ATOM     10  O   UNL     1       5.874   1.765  -0.060  0.00  0.00    -0.265 OA
ATOM     11  C   UNL     1       4.824  -0.269  -0.056  0.00  0.00    +0.208 A 
ATOM     12  C   UNL     1       3.629  -0.927  -0.037  0.00  0.00    +0.081 A 
ATOM     13  N   UNL     1       2.487  -0.240  -0.023  0.00  0.00    -0.231 NA
ATOM     14  C   UNL     1       3.600  -2.434  -0.043  0.00  0.00    +0.069 C 
ATOM     15  F   UNL     1       5.987  -0.956  -0.076  0.00  0.00    -0.198 F 
ATOM     16  H   UNL     1       3.609   2.890  -0.043  0.00  0.00    +0.170 HD
ENDBRANCH   4   7
BRANCH   1  17
ATOM     17  C   UNL     1      -2.554   3.865   0.011  0.00  0.00    +0.119 C 
BRANCH  17  21
ATOM     18  N   UNL     1      -3.912   5.688  -3.549  0.00  0.00    -0.327 N 
ATOM     19  C   UNL     1      -4.819   4.758  -2.863  0.00  0.00    +0.120 C 
ATOM     20  C   UNL     1      -4.375   4.598  -1.407  0.00  0.00    +0.103 C 
ATOM     21  N   UNL     1      -2.992   4.104  -1.371  0.00  0.00    -0.295 NA
ATOM     22  C   UNL     1      -2.085   5.034  -2.057  0.00  0.00    +0.103 C 
ATOM     23  C   UNL     1      -2.529   5.194  -3.513  0.00  0.00    +0.120 C 
BRANCH  18  30
ATOM     24  C   UNL     1      -4.562   8.371  -4.352  0.00  0.00    +0.047 C 
ATOM     25  C   UNL     1      -4.653   7.199  -5.294  0.00  0.00    -0.013 A 
ATOM     26  C   UNL     1      -5.059   7.380  -6.599  0.00  0.00    +0.087 A 
ATOM     27  N   UNL     1      -5.142   6.359  -7.431  0.00  0.00    -0.367 N 
ATOM     28  C   UNL     1      -4.842   5.129  -7.057  0.00  0.00    +0.084 A 
ATOM     29  C   UNL     1      -4.421   4.864  -5.771  0.00  0.00    +0.041 A 
ATOM     30  C   UNL     1      -4.327   5.914  -4.859  0.00  0.00    +0.035 A 
ATOM     31  H   UNL     1      -5.468   6.519  -8.469  0.00  0.00    +0.165 HD
ENDBRANCH  18  30
ENDBRANCH  17  21
ENDBRANCH   1  17
TORSDOF 4
