REMARK  Name = ZINC16609215
REMARK  12 active torsions:
REMARK  status: ('A' for Active; 'I' for Inactive)
REMARK    1  A    between atoms: C_1  and  C_2
REMARK    2  A    between atoms: C_2  and  N_3
REMARK    3  A    between atoms: C_4  and  C_37
REMARK    4  A    between atoms: C_5  and  C_30
REMARK    5  A    between atoms: C_6  and  C_11
REMARK    6  A    between atoms: C_14  and  N_17
REMARK    7  A    between atoms: C_18  and  C_20
REMARK    8  A    between atoms: C_30  and  O_32
REMARK    9  A    between atoms: O_32  and  C_33
REMARK   10  A    between atoms: C_33  and  C_34
REMARK   11  A    between atoms: C_34  and  C_35
REMARK   12  A    between atoms: C_34  and  C_36
REMARK                            x       y       z     vdW  Elec       q    Type
REMARK                         _______ _______ _______ _____ _____    ______ ____
ROOT
ATOM      1  C   UNL     1       3.279   2.648   0.985  0.00  0.00    -0.022 A 
ATOM      2  C   UNL     1       2.939   2.839   2.311  0.00  0.00    +0.007 A 
ATOM      3  C   UNL     1       3.912   2.789   3.290  0.00  0.00    +0.023 A 
ATOM      4  C   UNL     1       5.236   2.557   2.939  0.00  0.00    +0.034 A 
ATOM      5  C   UNL     1       5.575   2.371   1.605  0.00  0.00    +0.023 A 
ATOM      6  C   UNL     1       4.596   2.417   0.632  0.00  0.00    +0.007 A 
ENDROOT
BRANCH   1  10
ATOM      7  N   UNL     1      -0.340   3.719   0.218  0.00  0.00    -0.286 N 
ATOM      8  C   UNL     1       0.637   4.576  -0.198  0.00  0.00    +0.021 C 
ATOM      9  C   UNL     1       1.909   4.154  -0.367  0.00  0.00    +0.078 C 
ATOM     10  C   UNL     1       2.214   2.698  -0.080  0.00  0.00    +0.141 C 
ATOM     11  N   UNL     1       1.089   1.857   0.364  0.00  0.00    -0.315 N 
ATOM     12  C   UNL     1      -0.128   2.423   0.481  0.00  0.00    +0.138 C 
ATOM     13  S   UNL     1      -1.446   1.455   0.989  0.00  0.00    -0.018 S 
ATOM     14  C   UNL     1       0.291   6.017  -0.473  0.00  0.00    +0.061 C 
ATOM     15  H   UNL     1       1.221   0.916   0.563  0.00  0.00    +0.149 HD
BRANCH   7  17
ATOM     16  C   UNL     1      -2.413   4.235  -0.971  0.00  0.00    +0.025 C 
ATOM     17  C   UNL     1      -1.697   4.244   0.381  0.00  0.00    +0.109 C 
ENDBRANCH   7  17
BRANCH   9  18
ATOM     18  C   UNL     1       2.923   5.042  -0.798  0.00  0.00    +0.339 C 
ATOM     19  O   UNL     1       4.034   4.618  -1.056  0.00  0.00    -0.245 OA
BRANCH  18  20
ATOM     20  O   UNL     1       2.658   6.359  -0.923  0.00  0.00    -0.461 OA
BRANCH  20  21
ATOM     21  C   UNL     1       3.694   7.181  -1.463  0.00  0.00    +0.235 C 
BRANCH  21  22
ATOM     22  C   UNL     1       3.260   8.647  -1.414  0.00  0.00    +0.020 C 
ATOM     23  C   UNL     1       4.425   9.539  -1.848  0.00  0.00    +0.010 C 
ATOM     24  C   UNL     1       2.076   8.860  -2.359  0.00  0.00    +0.010 C 
ENDBRANCH  21  22
ENDBRANCH  20  21
ENDBRANCH  18  20
ENDBRANCH   9  18
ENDBRANCH   1  10
BRANCH   4  25
ATOM     25  N   UNL     1       6.225   2.511   3.927  0.00  0.00    -0.281 N 
ATOM     26  C   UNL     1       5.933   2.029   5.151  0.00  0.00    +0.249 C 
ATOM     27  O   UNL     1       4.837   1.549   5.370  0.00  0.00    -0.270 OA
ATOM     28  H   UNL     1       7.121   2.826   3.731  0.00  0.00    +0.155 HD
BRANCH  26  29
ATOM     29  C   UNL     1       6.941   2.084   6.225  0.00  0.00    +0.045 A 
ATOM     30  C   UNL     1       8.233   2.509   5.953  0.00  0.00    +0.014 A 
ATOM     31  C   UNL     1       9.187   2.567   6.961  0.00  0.00    +0.001 A 
ATOM     32  C   UNL     1       8.886   2.200   8.239  0.00  0.00    +0.008 A 
ATOM     33  C   UNL     1       7.591   1.759   8.559  0.00  0.00    -0.017 A 
ATOM     34  C   UNL     1       6.604   1.697   7.546  0.00  0.00    -0.006 A 
ATOM     35  C   UNL     1       5.313   1.255   7.867  0.00  0.00    +0.009 A 
ATOM     36  C   UNL     1       5.023   0.891   9.148  0.00  0.00    +0.001 A 
ATOM     37  C   UNL     1       5.993   0.951  10.146  0.00  0.00    +0.001 A 
ATOM     38  C   UNL     1       7.257   1.375   9.870  0.00  0.00    +0.008 A 
ENDBRANCH  26  29
ENDBRANCH   4  25
TORSDOF 8
