REMARK  Name = ZINC40487232
REMARK  6 active torsions:
REMARK  status: ('A' for Active; 'I' for Inactive)
REMARK    1  A    between atoms: C_1  and  C_2
REMARK    2  A    between atoms: C_5  and  C_8
REMARK    3  A    between atoms: C_8  and  C_9
REMARK    4  A    between atoms: C_15  and  C_17
REMARK    5  A    between atoms: C_17  and  S_18
REMARK    6  A    between atoms: S_18  and  C_19
REMARK                            x       y       z     vdW  Elec       q    Type
REMARK                         _______ _______ _______ _____ _____    ______ ____
ROOT
ATOM      1  C   UNL     1       1.487  -4.759  -0.032  0.00  0.00    +0.015 A 
ATOM      2  C   UNL     1       2.309  -5.048   1.006  0.00  0.00    +0.124 A 
ATOM      3  N   UNL     1       3.529  -5.458   0.709  0.00  0.00    -0.233 NA
ATOM      4  C   UNL     1       3.920  -5.580  -0.541  0.00  0.00    +0.165 A 
ATOM      5  S   UNL     1       2.557  -5.118  -1.415  0.00  0.00    -0.057 S 
ATOM      6  N   UNL     1       5.156  -5.994  -1.023  0.00  0.00    -0.264 N 
ATOM      7  C   UNL     1       6.135  -6.334  -0.162  0.00  0.00    +0.229 C 
ATOM      8  O   UNL     1       5.938  -6.278   1.033  0.00  0.00    -0.275 OA
ATOM      9  H   UNL     1       5.313  -6.038  -1.979  0.00  0.00    +0.157 HD
ENDROOT
BRANCH   1  10
ATOM     10  C   UNL     1       0.059  -4.275  -0.021  0.00  0.00    +0.079 C 
BRANCH  10  15
ATOM     11  C   UNL     1      -0.018   1.503   0.010  0.00  0.00    +0.044 C 
ATOM     12  C   UNL     1       0.002  -0.004   0.002  0.00  0.00    -0.050 A 
ATOM     13  C   UNL     1       0.006  -0.689  -1.199  0.00  0.00    +0.003 A 
ATOM     14  C   UNL     1       0.025  -2.071  -1.206  0.00  0.00    +0.004 A 
ATOM     15  C   UNL     1       0.040  -2.768  -0.013  0.00  0.00    -0.042 A 
ATOM     16  C   UNL     1       0.037  -2.084   1.188  0.00  0.00    +0.004 A 
ATOM     17  C   UNL     1       0.023  -0.702   1.195  0.00  0.00    +0.003 A 
ENDBRANCH  10  15
ENDBRANCH   1  10
BRANCH   7  18
ATOM     18  C   UNL     1       7.476  -6.783  -0.685  0.00  0.00    +0.173 C 
BRANCH  18  19
ATOM     19  S   UNL     1       8.571  -7.167   0.709  0.00  0.00    -0.075 S 
BRANCH  19  20
ATOM     20  C   UNL     1      10.076  -7.669  -0.057  0.00  0.00    +0.212 A 
ATOM     21  N   UNL     1      11.103  -8.030   0.702  0.00  0.00    -0.201 NA
ATOM     22  C   UNL     1      12.238  -8.409   0.122  0.00  0.00    +0.162 A 
ATOM     23  C   UNL     1      12.302  -8.412  -1.287  0.00  0.00    +0.137 A 
ATOM     24  C   UNL     1      13.657  -8.869  -1.639  0.00  0.00    +0.030 A 
ATOM     25  C   UNL     1      14.316  -9.077  -2.849  0.00  0.00    +0.032 A 
ATOM     26  C   UNL     1      15.622  -9.522  -2.849  0.00  0.00    +0.042 A 
ATOM     27  C   UNL     1      16.278  -9.763  -1.651  0.00  0.00    +0.022 A 
ATOM     28  C   UNL     1      15.636  -9.561  -0.448  0.00  0.00    +0.028 A 
ATOM     29  C   UNL     1      14.320  -9.112  -0.427  0.00  0.00    +0.050 A 
ATOM     30  N   UNL     1      13.449  -8.829   0.613  0.00  0.00    -0.338 N 
ATOM     31  H   UNL     1      13.664  -8.915   1.555  0.00  0.00    +0.167 HD
ATOM     32 CL   UNL     1      16.446  -9.783  -4.355  0.00  0.00    -0.084 Cl
ATOM     33  N   UNL     1      11.240  -8.040  -1.988  0.00  0.00    -0.143 NA
ATOM     34  N   UNL     1      10.159  -7.685  -1.383  0.00  0.00    -0.122 NA
ENDBRANCH  19  20
ENDBRANCH  18  19
ENDBRANCH   7  18
TORSDOF 5
