REMARK  Name = ZINC21218943
REMARK  9 active torsions:
REMARK  status: ('A' for Active; 'I' for Inactive)
REMARK    1  A    between atoms: C_1  and  C_2
REMARK    2  A    between atoms: C_2  and  C_3
REMARK    3  A    between atoms: C_3  and  O_4
REMARK    4  A    between atoms: O_4  and  C_5
REMARK    5  A    between atoms: C_8  and  C_11
REMARK    6  A    between atoms: C_16  and  C_26
REMARK    7  A    between atoms: C_30  and  O_33
REMARK    8  A    between atoms: C_31  and  O_32
REMARK    9  A    between atoms: O_33  and  C_34
REMARK                            x       y       z     vdW  Elec       q    Type
REMARK                         _______ _______ _______ _____ _____    ______ ____
ROOT
ATOM      1  C   UNL     1       1.935   0.328   6.029  0.00  0.00    +0.032 C 
ATOM      2  C   UNL     1       1.823  -1.195   6.086  0.00  0.00    +0.059 C 
ATOM      3  C   UNL     1       2.287  -1.698   7.442  0.00  0.00    +0.017 C 
ATOM      4  C   UNL     1       3.257  -1.054   8.113  0.00  0.00    +0.037 C 
ATOM      5  C   UNL     1       3.813  -1.446   9.461  0.00  0.00    +0.140 C 
ATOM      6  N   UNL     1       3.412  -2.759   9.918  0.00  0.00    -0.331 N 
ATOM      7  C   UNL     1       2.077  -3.044  10.201  0.00  0.00    +0.049 A 
ATOM      8  C   UNL     1       1.650  -3.293  11.495  0.00  0.00    +0.025 A 
ATOM      9  C   UNL     1       0.299  -3.460  11.745  0.00  0.00    +0.002 A 
ATOM     10  C   UNL     1      -0.619  -3.380  10.714  0.00  0.00    +0.002 A 
ATOM     11  C   UNL     1      -0.193  -3.153   9.416  0.00  0.00    +0.025 A 
ATOM     12  C   UNL     1       1.159  -3.004   9.162  0.00  0.00    +0.052 A 
ATOM     13  N   UNL     1       1.660  -2.820   7.878  0.00  0.00    -0.316 N 
ATOM     14  C   UNL     1       3.845   0.113   7.569  0.00  0.00    +0.163 C 
ATOM     15  O   UNL     1       4.737   0.662   8.185  0.00  0.00    -0.292 OA
ATOM     16  C   UNL     1       3.406   0.696   6.259  0.00  0.00    +0.088 C 
ATOM     17  H   UNL     1       4.165  -3.551  10.046  0.00  0.00    +0.147 HD
ATOM     18  H   UNL     1       1.517  -3.671   7.196  0.00  0.00    +0.152 HD
ENDROOT
BRANCH   1  22
ATOM     19  C   UNL     1       0.674   1.731   2.195  0.00  0.00    +0.121 A 
ATOM     20  C   UNL     1       1.740   0.849   2.295  0.00  0.00    +0.046 A 
ATOM     21  C   UNL     1       2.149   0.401   3.537  0.00  0.00    +0.007 A 
ATOM     22  C   UNL     1       1.490   0.823   4.677  0.00  0.00    -0.043 A 
ATOM     23  C   UNL     1       0.424   1.698   4.578  0.00  0.00    +0.007 A 
ATOM     24  C   UNL     1       0.015   2.153   3.340  0.00  0.00    +0.046 A 
BRANCH  19  25
ATOM     25  O   UNL     1       0.273   2.177   0.975  0.00  0.00    -0.492 OA
BRANCH  25  26
ATOM     26  C   UNL     1       0.998   1.701  -0.161  0.00  0.00    +0.229 C 
BRANCH  26  28
ATOM     27  C   UNL     1       1.182   1.798  -2.650  0.00  0.00    +0.007 C 
ATOM     28  C   UNL     1       0.406   2.308  -1.434  0.00  0.00    +0.038 C 
ENDBRANCH  26  28
ENDBRANCH  25  26
ENDBRANCH  19  25
ENDBRANCH   1  22
BRANCH   5  29
ATOM     29  C   UNL     1       3.363  -0.428  10.478  0.00  0.00    +0.022 A 
ATOM     30  C   UNL     1       2.248   0.350  10.229  0.00  0.00    +0.009 A 
ATOM     31  C   UNL     1       1.828   1.280  11.162  0.00  0.00    +0.004 A 
ATOM     32  C   UNL     1       2.529   1.444  12.343  0.00  0.00    +0.049 A 
ATOM     33  C   UNL     1       3.650   0.671  12.596  0.00  0.00    +0.162 A 
ATOM     34  C   UNL     1       4.069  -0.270  11.659  0.00  0.00    +0.164 A 
BRANCH  34  35
ATOM     35  O   UNL     1       5.169  -1.031  11.902  0.00  0.00    -0.503 OA
ATOM     36  H   UNL     1       5.729  -0.904  12.841  0.00  0.00    +0.292 HD
ENDBRANCH  34  35
BRANCH  33  37
ATOM     37  O   UNL     1       4.340   0.830  13.757  0.00  0.00    -0.491 OA
ATOM     38  C   UNL     1       3.853   1.813  14.671  0.00  0.00    +0.277 C 
ENDBRANCH  33  37
ENDBRANCH   5  29
TORSDOF 7
