REMARK  Name = ZINC20693397
REMARK  8 active torsions:
REMARK  status: ('A' for Active; 'I' for Inactive)
REMARK    1  A    between atoms: C_1  and  O_2
REMARK    2  A    between atoms: O_2  and  C_3
REMARK    3  A    between atoms: C_5  and  C_10
REMARK    4  A    between atoms: C_8  and  O_9
REMARK    5  A    between atoms: C_21  and  O_26
REMARK    6  A    between atoms: O_26  and  C_27
REMARK    7  A    between atoms: C_27  and  C_28
REMARK    8  A    between atoms: C_28  and  C_29
REMARK                            x       y       z     vdW  Elec       q    Type
REMARK                         _______ _______ _______ _____ _____    ______ ____
ROOT
ATOM      1  C   UNL     1       5.106   3.326  -0.034  0.00  0.00    +0.105 C 
ATOM      2  C   UNL     1       5.005   4.786  -0.438  0.00  0.00    +0.029 C 
ATOM      3  C   UNL     1       4.047   5.670   0.372  0.00  0.00    +0.033 C 
ATOM      4  C   UNL     1       3.626   6.703  -0.696  0.00  0.00    -0.030 C 
ATOM      5  C   UNL     1       3.768   6.195  -1.914  0.00  0.00    -0.023 C 
ATOM      6  C   UNL     1       4.232   4.790  -1.791  0.00  0.00    +0.049 C 
ATOM      7  C   UNL     1       5.096   4.157  -2.812  0.00  0.00    -0.016 A 
ATOM      8  C   UNL     1       5.111   4.572  -4.126  0.00  0.00    +0.051 A 
ATOM      9  C   UNL     1       5.926   3.937  -5.050  0.00  0.00    +0.121 A 
ATOM     10  C   UNL     1       6.729   2.878  -4.650  0.00  0.00    +0.047 A 
ATOM     11  C   UNL     1       6.723   2.464  -3.334  0.00  0.00    +0.027 A 
ATOM     12  C   UNL     1       5.914   3.100  -2.400  0.00  0.00    +0.032 A 
ATOM     13  N   UNL     1       5.956   2.682  -1.059  0.00  0.00    -0.336 N 
ATOM     14  H   UNL     1       6.634   1.863  -0.776  0.00  0.00    +0.147 HD
ENDROOT
BRANCH   1  17
ATOM     15  C   UNL     1       1.710   2.160   1.141  0.00  0.00    +0.162 A 
ATOM     16  C   UNL     1       2.970   2.735   1.129  0.00  0.00    +0.054 A 
ATOM     17  C   UNL     1       3.738   2.693  -0.020  0.00  0.00    -0.023 A 
ATOM     18  C   UNL     1       3.253   2.074  -1.157  0.00  0.00    +0.009 A 
ATOM     19  C   UNL     1       1.999   1.493  -1.150  0.00  0.00    +0.049 A 
ATOM     20  C   UNL     1       1.224   1.531  -0.001  0.00  0.00    +0.158 A 
BRANCH  15  22
ATOM     21  C   UNL     1       1.514   2.867   3.403  0.00  0.00    +0.277 C 
ATOM     22  O   UNL     1       0.951   2.205   2.269  0.00  0.00    -0.491 OA
ENDBRANCH  15  22
BRANCH  20  23
ATOM     23  O   UNL     1      -0.010   0.960   0.007  0.00  0.00    -0.503 OA
ATOM     24  H   UNL     1      -0.392   0.463  -0.896  0.00  0.00    +0.292 HD
ENDBRANCH  20  23
ENDBRANCH   1  17
BRANCH   9  25
ATOM     25  O   UNL     1       5.939   4.349  -6.346  0.00  0.00    -0.492 OA
BRANCH  25  26
ATOM     26  C   UNL     1       6.803   3.648  -7.242  0.00  0.00    +0.233 C 
BRANCH  26  27
ATOM     27  C   UNL     1       6.682   4.250  -8.643  0.00  0.00    +0.076 C 
BRANCH  27  28
ATOM     28  C   UNL     1       7.594   3.510  -9.588  0.00  0.00    -0.044 A 
ATOM     29  C   UNL     1       8.894   3.941  -9.773  0.00  0.00    +0.004 A 
ATOM     30  C   UNL     1       9.732   3.260 -10.637  0.00  0.00    +0.000 A 
ATOM     31  C   UNL     1       9.266   2.154 -11.322  0.00  0.00    +0.000 A 
ATOM     32  C   UNL     1       7.964   1.726 -11.141  0.00  0.00    +0.000 A 
ATOM     33  C   UNL     1       7.128   2.405 -10.274  0.00  0.00    +0.004 A 
ENDBRANCH  27  28
ENDBRANCH  26  27
ENDBRANCH  25  26
ENDBRANCH   9  25
TORSDOF 7
