REMARK  Name = ZINC08568292
REMARK  9 active torsions:
REMARK  status: ('A' for Active; 'I' for Inactive)
REMARK    1  A    between atoms: C_1  and  C_2
REMARK    2  A    between atoms: C_2  and  C_3
REMARK    3  A    between atoms: C_3  and  C_4
REMARK    4  A    between atoms: C_11  and  N_35
REMARK    5  A    between atoms: C_12  and  C_31
REMARK    6  A    between atoms: N_20  and  C_23
REMARK    7  A    between atoms: C_23  and  C_24
REMARK    8  A    between atoms: C_31  and  O_33
REMARK    9  A    between atoms: O_33  and  C_34
REMARK                            x       y       z     vdW  Elec       q    Type
REMARK                         _______ _______ _______ _____ _____    ______ ____
ROOT
ATOM      1  C   UNL     1      -1.216  -2.005  -0.035  0.00  0.00    +0.071 A 
ATOM      2  C   UNL     1      -1.299  -2.833  -1.145  0.00  0.00    +0.061 A 
ATOM      3  C   UNL     1      -1.418  -4.123  -0.703  0.00  0.00    +0.223 A 
ATOM      4  N   UNL     1      -1.410  -4.094   0.638  0.00  0.00    -0.246 N 
ATOM      5  H   UNL     1      -1.479  -4.862   1.227  0.00  0.00    +0.192 HD
ATOM      6  N   UNL     1      -1.277  -2.756   1.040  0.00  0.00    -0.176 NA
ATOM      7  O   UNL     1      -1.522  -5.179  -1.549  0.00  0.00    -0.424 OA
ATOM      8  C   UNL     1      -1.774  -4.926  -2.848  0.00  0.00    +0.198 C 
ATOM      9  C   UNL     1      -1.677  -3.693  -3.406  0.00  0.00    +0.117 C 
ATOM     10  C   UNL     1      -1.271  -2.485  -2.607  0.00  0.00    +0.142 C 
ATOM     11  C   UNL     1       0.076  -1.986  -3.021  0.00  0.00    -0.002 A 
ATOM     12  C   UNL     1       1.318  -2.583  -3.004  0.00  0.00    +0.007 A 
ATOM     13  C   UNL     1       2.389  -1.826  -3.468  0.00  0.00    +0.000 A 
ATOM     14  C   UNL     1       2.212  -0.535  -3.923  0.00  0.00    +0.002 A 
ATOM     15  C   UNL     1       0.967   0.071  -3.944  0.00  0.00    +0.024 A 
ATOM     16  C   UNL     1      -0.117  -0.678  -3.482  0.00  0.00    +0.041 A 
ATOM     17  N   UNL     1      -1.453  -0.328  -3.392  0.00  0.00    -0.265 N 
ATOM     18  C   UNL     1      -2.205  -1.330  -2.890  0.00  0.00    +0.240 C 
ATOM     19  O   UNL     1      -3.403  -1.308  -2.701  0.00  0.00    -0.274 OA
ENDROOT
BRANCH   8  20
ATOM     20  N   UNL     1      -2.148  -5.971  -3.649  0.00  0.00    -0.329 N 
ATOM     21  H   UNL     1      -2.146  -6.875  -3.299  0.00  0.00    +0.145 HD
ATOM     22  H   UNL     1      -2.416  -5.806  -4.567  0.00  0.00    +0.145 HD
ENDBRANCH   8  20
BRANCH   9  23
ATOM     23  C   UNL     1      -1.964  -3.540  -4.770  0.00  0.00    +0.341 C 
ATOM     24  O   UNL     1      -1.056  -3.461  -5.579  0.00  0.00    -0.245 OA
BRANCH  23  25
ATOM     25  O   UNL     1      -3.247  -3.480  -5.188  0.00  0.00    -0.465 OA
ATOM     26  C   UNL     1      -3.465  -3.323  -6.592  0.00  0.00    +0.280 C 
ENDBRANCH  23  25
ENDBRANCH   9  23
BRANCH   1  27
ATOM     27  C   UNL     1      -1.075  -0.505  -0.059  0.00  0.00    +0.057 C 
BRANCH  27  29
ATOM     28  C   UNL     1       0.551   1.391  -0.104  0.00  0.00    +0.004 C 
ATOM     29  C   UNL     1       0.408  -0.132  -0.080  0.00  0.00    +0.003 C 
ENDBRANCH  27  29
ENDBRANCH   1  27
BRANCH  17  30
ATOM     30  C   UNL     1      -1.987   0.975  -3.795  0.00  0.00    +0.148 C 
BRANCH  30  31
ATOM     31  C   UNL     1      -2.388   0.927  -5.247  0.00  0.00    -0.030 A 
ATOM     32  C   UNL     1      -1.471   1.253  -6.228  0.00  0.00    +0.006 A 
ATOM     33  C   UNL     1      -1.838   1.208  -7.560  0.00  0.00    +0.020 A 
ATOM     34  C   UNL     1      -3.124   0.838  -7.910  0.00  0.00    +0.041 A 
ATOM     35  C   UNL     1      -4.042   0.512  -6.928  0.00  0.00    +0.020 A 
ATOM     36  C   UNL     1      -3.672   0.551  -5.597  0.00  0.00    +0.006 A 
ATOM     37 CL   UNL     1      -3.587   0.783  -9.583  0.00  0.00    -0.084 Cl
ENDBRANCH  30  31
ENDBRANCH  17  30
TORSDOF 7
