REMARK  Name = ZINC21234252
REMARK  11 active torsions:
REMARK  status: ('A' for Active; 'I' for Inactive)
REMARK    1  A    between atoms: C_1  and  C_2
REMARK    2  A    between atoms: C_2  and  C_3
REMARK    3  A    between atoms: C_3  and  O_4
REMARK    4  A    between atoms: O_4  and  C_5
REMARK    5  A    between atoms: C_8  and  C_11
REMARK    6  A    between atoms: C_16  and  C_26
REMARK    7  A    between atoms: C_30  and  O_35
REMARK    8  A    between atoms: C_31  and  O_32
REMARK    9  A    between atoms: O_32  and  C_33
REMARK   10  A    between atoms: C_33  and  C_34
REMARK   11  A    between atoms: O_35  and  C_36
REMARK                            x       y       z     vdW  Elec       q    Type
REMARK                         _______ _______ _______ _____ _____    ______ ____
ROOT
ATOM      1  C   UNL     1       1.496   2.075  -0.078  0.00  0.00    +0.032 C 
ATOM      2  C   UNL     1       0.059   1.558  -0.059  0.00  0.00    +0.059 C 
ATOM      3  C   UNL     1       0.055   0.038  -0.048  0.00  0.00    +0.017 C 
ATOM      4  C   UNL     1       1.023  -0.648  -0.677  0.00  0.00    +0.037 C 
ATOM      5  C   UNL     1       1.129  -2.152  -0.765  0.00  0.00    +0.140 C 
ATOM      6  N   UNL     1       0.233  -2.869   0.117  0.00  0.00    -0.331 N 
ATOM      7  C   UNL     1      -1.150  -2.789  -0.042  0.00  0.00    +0.049 A 
ATOM      8  C   UNL     1      -1.903  -3.896  -0.396  0.00  0.00    +0.025 A 
ATOM      9  C   UNL     1      -3.267  -3.758  -0.587  0.00  0.00    +0.002 A 
ATOM     10  C   UNL     1      -3.875  -2.526  -0.429  0.00  0.00    +0.002 A 
ATOM     11  C   UNL     1      -3.127  -1.421  -0.059  0.00  0.00    +0.025 A 
ATOM     12  C   UNL     1      -1.767  -1.562   0.153  0.00  0.00    +0.052 A 
ATOM     13  N   UNL     1      -0.979  -0.521   0.629  0.00  0.00    -0.316 N 
ATOM     14  C   UNL     1       2.070   0.038  -1.337  0.00  0.00    +0.163 C 
ATOM     15  O   UNL     1       2.919  -0.609  -1.918  0.00  0.00    -0.292 OA
ATOM     16  C   UNL     1       2.170   1.534  -1.344  0.00  0.00    +0.088 C 
ATOM     17  H   UNL     1       0.639  -3.489   0.930  0.00  0.00    +0.147 HD
ATOM     18  H   UNL     1      -1.245  -0.152   1.631  0.00  0.00    +0.152 HD
ENDROOT
BRANCH   1  22
ATOM     19  C   UNL     1       1.498   6.348  -0.148  0.00  0.00    +0.121 A 
ATOM     20  C   UNL     1       2.106   5.670   0.898  0.00  0.00    +0.046 A 
ATOM     21  C   UNL     1       2.104   4.289   0.919  0.00  0.00    +0.007 A 
ATOM     22  C   UNL     1       1.497   3.582  -0.103  0.00  0.00    -0.043 A 
ATOM     23  C   UNL     1       0.896   4.255  -1.150  0.00  0.00    +0.007 A 
ATOM     24  C   UNL     1       0.890   5.636  -1.172  0.00  0.00    +0.046 A 
BRANCH  19  25
ATOM     25  O   UNL     1       1.499   7.707  -0.171  0.00  0.00    -0.492 OA
BRANCH  25  26
ATOM     26  C   UNL     1       0.855   8.338  -1.279  0.00  0.00    +0.229 C 
BRANCH  26  28
ATOM     27  C   UNL     1       0.267  10.532  -2.318  0.00  0.00    +0.007 C 
ATOM     28  C   UNL     1       0.956   9.857  -1.131  0.00  0.00    +0.038 C 
ENDBRANCH  26  28
ENDBRANCH  25  26
ENDBRANCH  19  25
ENDBRANCH   1  22
BRANCH   5  29
ATOM     29  C   UNL     1       0.835  -2.570  -2.183  0.00  0.00    +0.023 A 
ATOM     30  C   UNL     1       0.134  -1.723  -3.021  0.00  0.00    +0.009 A 
ATOM     31  C   UNL     1      -0.133  -2.101  -4.324  0.00  0.00    +0.004 A 
ATOM     32  C   UNL     1       0.290  -3.332  -4.790  0.00  0.00    +0.049 A 
ATOM     33  C   UNL     1       0.988  -4.188  -3.953  0.00  0.00    +0.162 A 
ATOM     34  C   UNL     1       1.262  -3.805  -2.643  0.00  0.00    +0.167 A 
BRANCH  33  35
ATOM     35  O   UNL     1       1.404  -5.399  -4.410  0.00  0.00    -0.491 OA
ATOM     36  C   UNL     1       1.088  -5.725  -5.766  0.00  0.00    +0.277 C 
ENDBRANCH  33  35
BRANCH  34  37
ATOM     37  O   UNL     1       1.946  -4.641  -1.818  0.00  0.00    -0.488 OA
BRANCH  37  38
ATOM     38  C   UNL     1       1.189  -5.646  -1.140  0.00  0.00    +0.226 C 
ATOM     39  C   UNL     1       2.101  -6.409  -0.177  0.00  0.00    +0.048 C 
ENDBRANCH  37  38
ENDBRANCH  34  37
ENDBRANCH   5  29
TORSDOF 8
