REMARK  Name = ZINC43424978
REMARK  4 active torsions:
REMARK  status: ('A' for Active; 'I' for Inactive)
REMARK    1  A    between atoms: C_5  and  C_6
REMARK    2  A    between atoms: C_6  and  C_8
REMARK    3  A    between atoms: C_6  and  N_10
REMARK    4  A    between atoms: C_8  and  N_9
REMARK                            x       y       z     vdW  Elec       q    Type
REMARK                         _______ _______ _______ _____ _____    ______ ____
ROOT
ATOM      1  C   UNL     1      -1.232  -0.329   0.110  0.00  0.00    +0.106 C 
ENDROOT
BRANCH   1   2
ATOM      2  N   UNL     1      -0.345  -1.219  -0.651  0.00  0.00    -0.287 NA
ATOM      3  C   UNL     1      -0.908  -2.575  -0.739  0.00  0.00    +0.113 C 
ATOM      4  C   UNL     1       0.064  -3.483  -1.496  0.00  0.00    +0.175 C 
ATOM      5  O   UNL     1       0.338  -2.921  -2.784  0.00  0.00    -0.374 OA
ATOM      6  C   UNL     1       0.892  -1.606  -2.724  0.00  0.00    +0.135 C 
ATOM      7  C   UNL     1      -0.086  -0.682  -1.994  0.00  0.00    +0.086 C 
ATOM      8  C   UNL     1       0.521   0.717  -1.893  0.00  0.00    +0.021 C 
ATOM      9  C   UNL     1       0.773   1.260  -3.302  0.00  0.00    +0.002 C 
ATOM     10  C   UNL     1       1.735   0.334  -4.047  0.00  0.00    +0.003 C 
ATOM     11  C   UNL     1       1.131  -1.070  -4.136  0.00  0.00    +0.033 C 
ENDBRANCH   1   2
BRANCH   1  16
ATOM     12  C   UNL     1      -0.870   0.393   2.518  0.00  0.00    +0.047 A 
ATOM     13  C   UNL     1      -0.718  -0.268   3.759  0.00  0.00    +0.057 A 
ATOM     14  C   UNL     1      -0.796  -1.588   3.510  0.00  0.00    +0.170 A 
ATOM     15  O   UNL     1      -0.987  -1.761   2.191  0.00  0.00    -0.452 OA
ATOM     16  C   UNL     1      -1.032  -0.563   1.585  0.00  0.00    +0.122 A 
ATOM     17 BR   UNL     1      -0.660  -2.967   4.797  0.00  0.00    -0.008 Br
ENDBRANCH   1  16
BRANCH   1  18
ATOM     18  C   UNL     1      -2.687  -0.620  -0.261  0.00  0.00    -0.059 C 
BRANCH  18  19
ATOM     19  N   UNL     1      -2.865  -0.460  -1.710  0.00  0.00    +0.379 N 
ATOM     20  H   UNL     1      -2.370   0.363  -2.021  0.00  0.00    -0.090 HD
ATOM     21  H   UNL     1      -2.501  -1.271  -2.186  0.00  0.00    -0.090 HD
ATOM     22  H   UNL     1      -3.847  -0.360  -1.919  0.00  0.00    -0.090 HD
ENDBRANCH  18  19
ENDBRANCH   1  18
TORSDOF 4
