REMARK  Name = ZINC46581097
REMARK  10 active torsions:
REMARK  status: ('A' for Active; 'I' for Inactive)
REMARK    1  A    between atoms: C_1  and  C_2
REMARK    2  A    between atoms: C_5  and  O_32
REMARK    3  A    between atoms: C_6  and  N_8
REMARK    4  A    between atoms: C_9  and  C_11
REMARK    5  A    between atoms: C_11  and  C_13
REMARK    6  A    between atoms: C_11  and  S_19
REMARK    7  A    between atoms: S_19  and  C_20
REMARK    8  A    between atoms: C_24  and  C_30
REMARK    9  A    between atoms: C_25  and  C_29
REMARK   10  A    between atoms: O_32  and  C_33
REMARK                            x       y       z     vdW  Elec       q    Type
REMARK                         _______ _______ _______ _____ _____    ______ ____
ROOT
ATOM      1  C   UNL     1      -1.250  -3.421   4.803  0.00  0.00    +0.170 C 
ENDROOT
BRANCH   1   2
ATOM      2  C   UNL     1       0.178  -3.886   4.925  0.00  0.00    -0.025 A 
ATOM      3  C   UNL     1       1.208  -2.963   4.930  0.00  0.00    +0.005 A 
ATOM      4  C   UNL     1       2.518  -3.390   5.042  0.00  0.00    +0.000 A 
ATOM      5  C   UNL     1       2.799  -4.739   5.149  0.00  0.00    +0.000 A 
ATOM      6  C   UNL     1       1.769  -5.662   5.146  0.00  0.00    +0.000 A 
ATOM      7  C   UNL     1       0.459  -5.235   5.038  0.00  0.00    +0.005 A 
ENDBRANCH   1   2
BRANCH   1   9
ATOM      8  N   UNL     1      -1.688  -3.359   2.370  0.00  0.00    -0.281 N 
ATOM      9  C   UNL     1      -1.428  -2.679   3.504  0.00  0.00    +0.235 C 
ATOM     10  O   UNL     1      -1.336  -1.470   3.479  0.00  0.00    -0.274 OA
ATOM     11  H   UNL     1      -1.823  -4.319   2.400  0.00  0.00    +0.155 HD
BRANCH   8  17
ATOM     12  C   UNL     1      -2.275   0.850  -0.103  0.00  0.00    +0.044 C 
ATOM     13  C   UNL     1      -2.047  -0.639  -0.082  0.00  0.00    -0.048 A 
ATOM     14  C   UNL     1      -1.914  -1.334  -1.270  0.00  0.00    +0.007 A 
ATOM     15  C   UNL     1      -1.705  -2.700  -1.256  0.00  0.00    +0.048 A 
ATOM     16  C   UNL     1      -1.630  -3.378  -0.050  0.00  0.00    +0.141 A 
ATOM     17  C   UNL     1      -1.764  -2.679   1.147  0.00  0.00    +0.076 A 
ATOM     18  C   UNL     1      -1.967  -1.307   1.126  0.00  0.00    +0.030 A 
BRANCH  16  19
ATOM     19  O   UNL     1      -1.425  -4.722  -0.035  0.00  0.00    -0.493 OA
ATOM     20  C   UNL     1      -1.298  -5.373  -1.301  0.00  0.00    +0.277 C 
ENDBRANCH  16  19
ENDBRANCH   8  17
ENDBRANCH   1   9
BRANCH   1  21
ATOM     21  S   UNL     1      -1.647  -2.319   6.188  0.00  0.00    -0.068 S 
BRANCH  21  22
ATOM     22  C   UNL     1      -1.538  -3.360   7.606  0.00  0.00    +0.192 A 
ATOM     23  N   UNL     1      -1.214  -4.638   7.453  0.00  0.00    -0.207 NA
ATOM     24  C   UNL     1      -1.116  -5.466   8.479  0.00  0.00    +0.129 A 
ATOM     25  C   UNL     1      -1.366  -4.980   9.792  0.00  0.00    +0.050 A 
ATOM     26  C   UNL     1      -1.324  -5.682  11.064  0.00  0.00    -0.028 A 
ATOM     27  C   UNL     1      -1.599  -5.011  12.192  0.00  0.00    -0.008 A 
ATOM     28  S   UNL     1      -1.942  -3.358  11.619  0.00  0.00    -0.073 S 
ATOM     29  C   UNL     1      -1.706  -3.613   9.880  0.00  0.00    +0.115 A 
ATOM     30  N   UNL     1      -1.777  -2.850   8.807  0.00  0.00    -0.214 NA
ATOM     31  C   UNL     1      -1.616  -5.531  13.606  0.00  0.00    +0.052 C 
ATOM     32  C   UNL     1      -0.975  -7.147  11.115  0.00  0.00    +0.045 C 
ATOM     33  N   UNL     1      -0.776  -6.791   8.277  0.00  0.00    -0.343 N 
ATOM     34  H   UNL     1      -0.927  -7.205   7.412  0.00  0.00    +0.144 HD
ATOM     35  H   UNL     1      -0.386  -7.307   9.000  0.00  0.00    +0.144 HD
ENDBRANCH  21  22
ENDBRANCH   1  21
TORSDOF 6
