REMARK  Name = ZINC05031494
REMARK  9 active torsions:
REMARK  status: ('A' for Active; 'I' for Inactive)
REMARK    1  A    between atoms: C_1  and  C_2
REMARK    2  A    between atoms: C_2  and  O_3
REMARK    3  A    between atoms: O_3  and  C_4
REMARK    4  A    between atoms: C_4  and  C_6
REMARK    5  A    between atoms: C_7  and  C_21
REMARK    6  A    between atoms: C_12  and  C_14
REMARK    7  A    between atoms: C_17  and  C_20
REMARK    8  A    between atoms: C_21  and  S_22
REMARK    9  A    between atoms: S_22  and  C_25
REMARK                            x       y       z     vdW  Elec       q    Type
REMARK                         _______ _______ _______ _____ _____    ______ ____
ROOT
ATOM      1  C   UNL     1      -3.047   0.789  -1.383  0.00  0.00    +0.080 C 
ATOM      2  C   UNL     1      -4.257   1.315  -1.673  0.00  0.00    +0.045 C 
ATOM      3  N   UNL     1      -4.981   1.983  -0.728  0.00  0.00    -0.271 N 
ATOM      4  C   UNL     1      -4.564   2.169   0.532  0.00  0.00    +0.304 C 
ATOM      5  O   UNL     1      -5.280   2.777   1.303  0.00  0.00    -0.252 OA
ATOM      6  N   UNL     1      -3.379   1.703   0.971  0.00  0.00    -0.288 N 
ATOM      7  C   UNL     1      -2.522   0.966   0.027  0.00  0.00    +0.144 C 
ATOM      8  H   UNL     1      -5.844   2.344  -0.982  0.00  0.00    +0.156 HD
ATOM      9  H   UNL     1      -3.098   1.849   1.887  0.00  0.00    +0.151 HD
ENDROOT
BRANCH   7  10
ATOM     10  C   UNL     1      -1.200   1.684  -0.057  0.00  0.00    -0.022 A 
ATOM     11  C   UNL     1      -0.020   0.964  -0.042  0.00  0.00    +0.006 A 
ATOM     12  C   UNL     1       1.193   1.623  -0.124  0.00  0.00    +0.004 A 
ATOM     13  C   UNL     1       1.226   3.002  -0.217  0.00  0.00    -0.050 A 
ATOM     14  C   UNL     1       0.046   3.722  -0.227  0.00  0.00    +0.004 A 
ATOM     15  C   UNL     1      -1.166   3.064  -0.144  0.00  0.00    +0.006 A 
ATOM     16  C   UNL     1       2.548   3.720  -0.307  0.00  0.00    +0.044 C 
ENDBRANCH   7  10
BRANCH   1  17
ATOM     17  C   UNL     1      -2.297   0.097  -2.362  0.00  0.00    +0.339 C 
ATOM     18  O   UNL     1      -2.280  -1.120  -2.367  0.00  0.00    -0.245 OA
BRANCH  17  19
ATOM     19  O   UNL     1      -1.600   0.785  -3.290  0.00  0.00    -0.462 OA
BRANCH  19  21
ATOM     20  C   UNL     1      -0.144   0.967  -5.210  0.00  0.00    +0.048 C 
ATOM     21  C   UNL     1      -0.865   0.021  -4.248  0.00  0.00    +0.229 C 
ENDBRANCH  19  21
ENDBRANCH  17  19
ENDBRANCH   1  17
BRANCH   2  22
ATOM     22  C   UNL     1      -4.817   1.163  -3.064  0.00  0.00    +0.223 C 
BRANCH  22  23
ATOM     23  S   UNL     1      -6.120  -0.099  -3.056  0.00  0.00    +0.002 S 
ATOM     24  O   UNL     1      -5.560  -1.380  -2.802  0.00  0.00    -0.169 OA
ATOM     25  O   UNL     1      -7.242   0.361  -2.315  0.00  0.00    -0.169 OA
BRANCH  23  26
ATOM     26  C   UNL     1      -6.684  -0.178  -4.723  0.00  0.00    +0.089 A 
ATOM     27  C   UNL     1      -7.725   0.630  -5.140  0.00  0.00    +0.027 A 
ATOM     28  C   UNL     1      -8.164   0.572  -6.450  0.00  0.00    +0.002 A 
ATOM     29  C   UNL     1      -7.570  -0.303  -7.340  0.00  0.00    +0.000 A 
ATOM     30  C   UNL     1      -6.533  -1.116  -6.921  0.00  0.00    +0.002 A 
ATOM     31  C   UNL     1      -6.090  -1.053  -5.613  0.00  0.00    +0.027 A 
ENDBRANCH  23  26
ENDBRANCH  22  23
ENDBRANCH   2  22
TORSDOF 7
