REMARK  Name = ZINC33435862
REMARK  3 active torsions:
REMARK  status: ('A' for Active; 'I' for Inactive)
REMARK    1  A    between atoms: C_4  and  N_7
REMARK    2  A    between atoms: N_9  and  C_10
REMARK    3  A    between atoms: C_20  and  N_30
REMARK                            x       y       z     vdW  Elec       q    Type
REMARK                         _______ _______ _______ _____ _____    ______ ____
ROOT
ATOM      1  N   UNL     1      -1.450   3.051  -1.170  0.00  0.00    -0.254 N 
ATOM      2  C   UNL     1      -0.847   4.142  -0.600  0.00  0.00    +0.098 C 
ATOM      3  N   UNL     1      -1.359   5.325  -0.512  0.00  0.00    -0.369 N 
ATOM      4  C   UNL     1       0.521   3.735  -0.095  0.00  0.00    +0.131 C 
ATOM      5  C   UNL     1       0.610   2.243  -0.456  0.00  0.00    +0.038 C 
ATOM      6  C   UNL     1      -0.704   1.938  -1.128  0.00  0.00    +0.069 C 
ATOM      7  S   UNL     1      -1.139   0.512  -1.707  0.00  0.00    -0.039 S 
ATOM      8  C   UNL     1       1.771   2.001  -1.415  0.00  0.00    +0.015 C 
ATOM      9  C   UNL     1       3.090   2.353  -0.722  0.00  0.00    +0.001 C 
ATOM     10  C   UNL     1       3.254   1.489   0.530  0.00  0.00    +0.000 C 
ATOM     11  C   UNL     1       2.095   1.759   1.492  0.00  0.00    +0.001 C 
ATOM     12  C   UNL     1       0.772   1.405   0.808  0.00  0.00    +0.015 C 
ATOM     13  H   UNL     1      -2.438   5.445  -0.335  0.00  0.00    +0.161 HD
ENDROOT
BRANCH   3  14
ATOM     14  C   UNL     1      -0.503   6.506  -0.650  0.00  0.00    +0.040 C 
ATOM     15  C   UNL     1       0.365   6.655   0.601  0.00  0.00    +0.031 C 
ATOM     16  C   UNL     1       1.258   7.889   0.458  0.00  0.00    -0.008 C 
ATOM     17  C   UNL     1       2.157   7.728  -0.770  0.00  0.00    +0.007 C 
ATOM     18  C   UNL     1       1.289   7.579  -2.021  0.00  0.00    -0.008 C 
ATOM     19  C   UNL     1       0.395   6.345  -1.878  0.00  0.00    +0.031 C 
ATOM     20  C   UNL     1       0.416   8.824  -2.188  0.00  0.00    +0.007 C 
ATOM     21  C   UNL     1      -0.482   8.985  -0.960  0.00  0.00    -0.008 C 
ATOM     22  C   UNL     1       0.386   9.134   0.291  0.00  0.00    +0.007 C 
ATOM     23  C   UNL     1      -1.376   7.752  -0.816  0.00  0.00    +0.031 C 
ENDBRANCH   3  14
BRANCH   1  27
ATOM     24  C   UNL     1      -5.255   3.180  -2.865  0.00  0.00    +0.000 A 
ATOM     25  C   UNL     1      -4.154   2.924  -3.660  0.00  0.00    +0.002 A 
ATOM     26  C   UNL     1      -2.891   2.881  -3.102  0.00  0.00    +0.024 A 
ATOM     27  C   UNL     1      -2.729   3.095  -1.739  0.00  0.00    +0.040 A 
ATOM     28  C   UNL     1      -3.837   3.346  -0.942  0.00  0.00    +0.024 A 
ATOM     29  C   UNL     1      -5.097   3.393  -1.507  0.00  0.00    +0.002 A 
ENDBRANCH   1  27
BRANCH   4  30
ATOM     30  N   UNL     1       0.616   3.921   1.359  0.00  0.00    -0.292 NA
ATOM     31  C   UNL     1       0.532   2.620   2.069  0.00  0.00    +0.085 C 
ATOM     32  C   UNL     1       1.160   2.929   3.452  0.00  0.00    +0.017 C 
ATOM     33  C   UNL     1       2.308   3.902   3.099  0.00  0.00    +0.017 C 
ATOM     34  C   UNL     1       1.923   4.503   1.735  0.00  0.00    +0.085 C 
ENDBRANCH   4  30
TORSDOF 3
