REMARK  Name = ZINC19107969
REMARK  7 active torsions:
REMARK  status: ('A' for Active; 'I' for Inactive)
REMARK    1  A    between atoms: C_4  and  N_23
REMARK    2  A    between atoms: C_5  and  C_7
REMARK    3  A    between atoms: N_9  and  N_10
REMARK    4  A    between atoms: N_10  and  S_11
REMARK    5  A    between atoms: S_11  and  C_14
REMARK    6  A    between atoms: N_23  and  S_24
REMARK    7  A    between atoms: S_24  and  C_27
REMARK                            x       y       z     vdW  Elec       q    Type
REMARK                         _______ _______ _______ _____ _____    ______ ____
ROOT
ATOM      1  C   UNL     1       0.585  -0.474  -1.184  0.00  0.00    +0.261 C 
ATOM      2  O   UNL     1       1.317   0.061  -1.995  0.00  0.00    -0.269 OA
ATOM      3  N   UNL     1      -0.129   0.278  -0.323  0.00  0.00    -0.228 N 
ATOM      4  H   UNL     1      -0.713  -0.148   0.323  0.00  0.00    +0.171 HD
ENDROOT
BRANCH   1   9
ATOM      5  C   UNL     1      -0.455  -3.936  -0.180  0.00  0.00    +0.001 A 
ATOM      6  C   UNL     1       0.278  -4.710  -1.065  0.00  0.00    +0.002 A 
ATOM      7  C   UNL     1       1.112  -4.115  -1.989  0.00  0.00    +0.025 A 
ATOM      8  C   UNL     1       1.217  -2.730  -2.042  0.00  0.00    +0.060 A 
ATOM      9  C   UNL     1       0.479  -1.944  -1.143  0.00  0.00    +0.060 A 
ATOM     10  C   UNL     1      -0.360  -2.562  -0.213  0.00  0.00    +0.015 A 
BRANCH   8  11
ATOM     11  N   UNL     1       2.051  -2.128  -2.974  0.00  0.00    -0.215 N 
ATOM     12  H   UNL     1       2.534  -1.319  -2.743  0.00  0.00    +0.174 HD
BRANCH  11  13
ATOM     13  S   UNL     1       2.221  -2.791  -4.483  0.00  0.00    +0.079 S 
ATOM     14  O   UNL     1       3.017  -1.886  -5.236  0.00  0.00    -0.149 OA
ATOM     15  O   UNL     1       2.588  -4.150  -4.290  0.00  0.00    -0.149 OA
BRANCH  13  16
ATOM     16  C   UNL     1       0.625  -2.801  -5.230  0.00  0.00    +0.146 A 
ATOM     17  C   UNL     1       0.034  -1.849  -5.992  0.00  0.00    +0.036 A 
ATOM     18  C   UNL     1      -1.240  -2.075  -6.479  0.00  0.00    +0.010 A 
ATOM     19  C   UNL     1      -1.860  -3.243  -6.179  0.00  0.00    +0.047 A 
ATOM     20  S   UNL     1      -0.628  -4.071  -5.187  0.00  0.00    -0.077 S 
ENDBRANCH  13  16
ENDBRANCH  11  13
ENDBRANCH   8  11
ENDBRANCH   1   9
BRANCH   3  21
ATOM     21  N   UNL     1      -0.028   1.675  -0.362  0.00  0.00    -0.108 NA
ATOM     22  H   UNL     1       0.840   2.100  -0.287  0.00  0.00    +0.172 HD
BRANCH  21  23
ATOM     23  S   UNL     1      -1.391   2.598  -0.544  0.00  0.00    +0.076 S 
ATOM     24  O   UNL     1      -0.985   3.953  -0.402  0.00  0.00    -0.152 OA
ATOM     25  O   UNL     1      -2.054   2.120  -1.706  0.00  0.00    -0.152 OA
BRANCH  23  26
ATOM     26  C   UNL     1      -2.447   2.243   0.821  0.00  0.00    +0.135 A 
ATOM     27  C   UNL     1      -2.731   3.209   1.727  0.00  0.00    +0.031 A 
ATOM     28  C   UNL     1      -3.563   2.963   2.819  0.00  0.00    +0.004 A 
ATOM     29  C   UNL     1      -4.123   1.747   3.023  0.00  0.00    +0.031 A 
ATOM     30  C   UNL     1      -3.869   0.687   2.115  0.00  0.00    +0.102 A 
ATOM     31  C   UNL     1      -3.004   0.946   0.969  0.00  0.00    +0.126 A 
ATOM     32  N   UNL     1      -2.858  -0.131   0.199  0.00  0.00    -0.189 NA
ATOM     33  S   UNL     1      -3.711  -1.264   0.865  0.00  0.00    +0.117 S 
ATOM     34  N   UNL     1      -4.315  -0.568   2.132  0.00  0.00    -0.191 NA
ENDBRANCH  23  26
ENDBRANCH  21  23
ENDBRANCH   3  21
TORSDOF 7
