REMARK  Name = ZINC66994072
REMARK  8 active torsions:
REMARK  status: ('A' for Active; 'I' for Inactive)
REMARK    1  A    between atoms: C_3  and  S_22
REMARK    2  A    between atoms: C_6  and  C_7
REMARK    3  A    between atoms: C_7  and  N_8
REMARK    4  A    between atoms: N_8  and  C_9
REMARK    5  A    between atoms: C_9  and  C_10
REMARK    6  A    between atoms: C_10  and  C_11
REMARK    7  A    between atoms: C_11  and  C_12
REMARK    8  A    between atoms: S_22  and  C_23
REMARK                            x       y       z     vdW  Elec       q    Type
REMARK                         _______ _______ _______ _____ _____    ______ ____
ROOT
ATOM      1  N   UNL     1      -1.728  -1.016  -1.372  0.00  0.00    +0.382 N 
ATOM      2  H   UNL     1      -1.864  -0.133  -1.842  0.00  0.00    -0.085 HD
ATOM      3  H   UNL     1      -1.023  -1.550  -1.857  0.00  0.00    -0.085 HD
ENDROOT
BRANCH   1   4
ATOM      4  C   UNL     1      -1.294  -0.773   0.010  0.00  0.00    -0.047 C 
BRANCH   4  10
ATOM      5  C   UNL     1      -0.017   1.379   0.010  0.00  0.00    +0.003 A 
ATOM      6  C   UNL     1       1.169   2.087   0.002  0.00  0.00    +0.015 A 
ATOM      7  C   UNL     1       2.381   1.409  -0.013  0.00  0.00    +0.016 A 
ATOM      8  C   UNL     1       2.396   0.019  -0.021  0.00  0.00    +0.015 A 
ATOM      9  C   UNL     1       1.207  -0.683  -0.013  0.00  0.00    +0.003 A 
ATOM     10  C   UNL     1       0.002  -0.004   0.002  0.00  0.00    -0.064 A 
BRANCH   7  11
ATOM     11  S   UNL     1       3.897   2.308  -0.023  0.00  0.00    -0.016 S 
BRANCH  11  12
ATOM     12  C   UNL     1       5.172   1.019  -0.042  0.00  0.00    +0.448 C 
ATOM     13  F   UNL     1       5.020   0.229  -1.187  0.00  0.00    -0.160 F 
ATOM     14  F   UNL     1       6.438   1.615  -0.051  0.00  0.00    -0.160 F 
ATOM     15  F   UNL     1       5.043   0.218   1.097  0.00  0.00    -0.160 F 
ENDBRANCH  11  12
ENDBRANCH   7  11
ENDBRANCH   4  10
ENDBRANCH   1   4
BRANCH   1  16
ATOM     16  C   UNL     1      -2.991  -1.766  -1.364  0.00  0.00    -0.082 C 
BRANCH  16  17
ATOM     17  C   UNL     1      -3.443  -2.019  -2.804  0.00  0.00    -0.011 C 
BRANCH  17  18
ATOM     18  C   UNL     1      -4.759  -2.800  -2.795  0.00  0.00    +0.074 C 
BRANCH  18  19
ATOM     19  C   UNL     1      -5.204  -3.049  -4.213  0.00  0.00    +0.133 A 
ATOM     20  N   UNL     1      -5.966  -2.270  -4.936  0.00  0.00    -0.134 NA
ATOM     21  N   UNL     1      -6.136  -2.789  -6.101  0.00  0.00    -0.134 NA
ATOM     22  C   UNL     1      -5.489  -3.917  -6.175  0.00  0.00    +0.133 A 
ATOM     23  N   UNL     1      -4.886  -4.116  -4.979  0.00  0.00    -0.315 N 
ATOM     24  C   UNL     1      -4.071  -5.269  -4.595  0.00  0.00    +0.125 C 
ATOM     25  C   UNL     1      -3.407  -5.859  -5.842  0.00  0.00    +0.022 C 
ATOM     26  C   UNL     1      -4.324  -6.909  -6.466  0.00  0.00    +0.002 C 
ATOM     27  C   UNL     1      -5.644  -6.277  -6.899  0.00  0.00    +0.008 C 
ATOM     28  C   UNL     1      -5.401  -4.842  -7.361  0.00  0.00    +0.076 C 
ENDBRANCH  18  19
ENDBRANCH  17  18
ENDBRANCH  16  17
ENDBRANCH   1  16
TORSDOF 8
