REMARK  Name = ZINC06196942
REMARK  7 active torsions:
REMARK  status: ('A' for Active; 'I' for Inactive)
REMARK    1  A    between atoms: C_1  and  C_2
REMARK    2  A    between atoms: C_2  and  O_3
REMARK    3  A    between atoms: O_3  and  C_4
REMARK    4  A    between atoms: C_11  and  C_16
REMARK    5  A    between atoms: C_16  and  C_18
REMARK    6  A    between atoms: C_16  and  N_77
REMARK    7  A    between atoms: N_22  and  C_23
REMARK                            x       y       z     vdW  Elec       q    Type
REMARK                         _______ _______ _______ _____ _____    ______ ____
ROOT
ATOM      1  C   UNL     1       0.012   1.234  -2.408  0.00  0.00    +0.039 C 
ENDROOT
BRANCH   1   9
ATOM      2  C   UNL     1      -3.116   1.550  -7.751  0.00  0.00    +0.121 A 
ATOM      3  C   UNL     1      -3.151   2.940  -7.822  0.00  0.00    +0.047 A 
ATOM      4  C   UNL     1      -2.570   3.708  -6.838  0.00  0.00    +0.030 A 
ATOM      5  C   UNL     1      -1.941   3.095  -5.758  0.00  0.00    +0.049 A 
ATOM      6  C   UNL     1      -1.903   1.691  -5.683  0.00  0.00    +0.002 A 
ATOM      7  C   UNL     1      -2.497   0.921  -6.689  0.00  0.00    +0.055 A 
ATOM      8  C   UNL     1      -1.238   1.059  -4.542  0.00  0.00    +0.017 A 
ATOM      9  C   UNL     1      -0.680   1.853  -3.595  0.00  0.00    +0.011 A 
ATOM     10  C   UNL     1      -0.750   3.258  -3.715  0.00  0.00    +0.251 A 
ATOM     11  O   UNL     1      -0.247   3.954  -2.850  0.00  0.00    -0.268 OA
ATOM     12  N   UNL     1      -1.354   3.848  -4.761  0.00  0.00    -0.322 N 
ATOM     13  H   UNL     1      -1.377   4.846  -4.818  0.00  0.00    +0.169 HD
BRANCH   2  14
ATOM     14  O   UNL     1      -3.695   0.807  -8.732  0.00  0.00    -0.492 OA
BRANCH  14  16
ATOM     15  C   UNL     1      -4.909   0.524 -10.802  0.00  0.00    +0.048 C 
ATOM     16  C   UNL     1      -4.318   1.520  -9.802  0.00  0.00    +0.225 C 
ENDBRANCH  14  16
ENDBRANCH   2  14
ENDBRANCH   1   9
BRANCH   1  27
ATOM     17  C   UNL     1      -2.068   1.390  -1.180  0.00  0.00    -0.077 C 
ATOM     18  C   UNL     1      -2.732   2.009   0.052  0.00  0.00    -0.018 C 
ATOM     19  C   UNL     1      -2.079   1.442   1.316  0.00  0.00    +0.003 C 
ATOM     20  C   UNL     1      -0.576   1.731   1.277  0.00  0.00    -0.044 C 
ATOM     21  C   UNL     1       0.025   1.120   0.010  0.00  0.00    -0.071 C 
ATOM     22  C   UNL     1      -0.348   3.244   1.272  0.00  0.00    +0.005 C 
ATOM     23  C   UNL     1       1.154   3.532   1.231  0.00  0.00    +0.000 C 
ATOM     24  C   UNL     1       1.825   2.919   2.462  0.00  0.00    +0.000 C 
ATOM     25  C   UNL     1       1.596   1.407   2.468  0.00  0.00    +0.000 C 
ATOM     26  C   UNL     1       0.094   1.118   2.508  0.00  0.00    +0.005 C 
ATOM     27  N   UNL     1      -0.629   1.725  -1.170  0.00  0.00    +0.390 N 
ATOM     28  H   UNL     1      -0.524   2.745  -1.122  0.00  0.00    -0.080 HD
ENDBRANCH   1  27
BRANCH   1  29
ATOM     29  C   UNL     1      -0.085  -0.267  -2.497  0.00  0.00    +0.143 A 
ATOM     30  N   UNL     1      -1.146  -0.998  -2.254  0.00  0.00    -0.115 NA
ATOM     31  N   UNL     1      -0.828  -2.233  -2.439  0.00  0.00    -0.023 NA
ATOM     32  N   UNL     1       0.407  -2.308  -2.793  0.00  0.00    -0.044 NA
ATOM     33  N   UNL     1       0.899  -1.117  -2.845  0.00  0.00    -0.227 N 
BRANCH  33  34
ATOM     34  C   UNL     1       2.271  -0.757  -3.211  0.00  0.00    +0.111 C 
ATOM     35  C   UNL     1       2.561  -1.235  -4.635  0.00  0.00    +0.027 C 
ATOM     36  C   UNL     1       3.994  -0.859  -5.017  0.00  0.00    +0.002 C 
ATOM     37  C   UNL     1       4.972  -1.524  -4.046  0.00  0.00    +0.000 C 
ATOM     38  C   UNL     1       4.682  -1.045  -2.622  0.00  0.00    +0.002 C 
ATOM     39  C   UNL     1       3.249  -1.421  -2.240  0.00  0.00    +0.027 C 
ENDBRANCH  33  34
ENDBRANCH   1  29
TORSDOF 6
