REMARK  Name = ZINC05215260
REMARK  5 active torsions:
REMARK  status: ('A' for Active; 'I' for Inactive)
REMARK    1  A    between atoms: C_4  and  C_7
REMARK    2  A    between atoms: C_7  and  C_9
REMARK    3  A    between atoms: C_7  and  O_24
REMARK    4  A    between atoms: N_11  and  N_12
REMARK    5  A    between atoms: C_13  and  C_14
REMARK                            x       y       z     vdW  Elec       q    Type
REMARK                         _______ _______ _______ _____ _____    ______ ____
ROOT
ATOM      1  C   UNL     1      -0.998   1.734  -1.363  0.00  0.00    +0.265 C 
ATOM      2  O   UNL     1      -1.107   2.937  -1.253  0.00  0.00    -0.271 OA
ATOM      3  N   UNL     1      -0.064   1.073  -0.652  0.00  0.00    -0.205 N 
ATOM      4  H   UNL     1       0.072   0.123  -0.794  0.00  0.00    +0.177 HD
ENDROOT
BRANCH   3   5
ATOM      5  N   UNL     1       0.717   1.759   0.287  0.00  0.00    -0.188 NA
ATOM      6  C   UNL     1       1.535   1.104   1.055  0.00  0.00    +0.139 C 
BRANCH   6   7
ATOM      7  C   UNL     1       1.491  -0.366   1.093  0.00  0.00    +0.002 A 
ATOM      8  C   UNL     1       0.314  -1.048   0.806  0.00  0.00    +0.010 A 
ATOM      9  C   UNL     1       0.277  -2.435   0.837  0.00  0.00    +0.001 A 
ATOM     10  C   UNL     1       1.373  -3.176   1.158  0.00  0.00    +0.008 A 
ATOM     11  C   UNL     1       2.594  -2.553   1.464  0.00  0.00    -0.017 A 
ATOM     12  C   UNL     1       2.681  -1.140   1.439  0.00  0.00    -0.009 A 
ATOM     13  C   UNL     1       3.897  -0.516   1.744  0.00  0.00    +0.009 A 
ATOM     14  C   UNL     1       4.983  -1.275   2.061  0.00  0.00    +0.001 A 
ATOM     15  C   UNL     1       4.901  -2.666   2.088  0.00  0.00    +0.001 A 
ATOM     16  C   UNL     1       3.735  -3.305   1.797  0.00  0.00    +0.008 A 
ENDBRANCH   6   7
ENDBRANCH   3   5
BRANCH   1  17
ATOM     17  C   UNL     1      -1.909   0.978  -2.296  0.00  0.00    +0.232 C 
BRANCH  17  21
ATOM     18  C   UNL     1       0.377  -0.633  -5.525  0.00  0.00    +0.000 A 
ATOM     19  C   UNL     1       0.017  -1.441  -4.463  0.00  0.00    +0.000 A 
ATOM     20  C   UNL     1      -0.723  -0.919  -3.418  0.00  0.00    +0.006 A 
ATOM     21  C   UNL     1      -1.103   0.410  -3.435  0.00  0.00    -0.010 A 
ATOM     22  C   UNL     1      -0.747   1.216  -4.500  0.00  0.00    +0.006 A 
ATOM     23  C   UNL     1      -0.003   0.696  -5.543  0.00  0.00    +0.000 A 
ENDBRANCH  17  21
BRANCH  17  24
ATOM     24  O   UNL     1      -2.904   1.865  -2.813  0.00  0.00    -0.378 OA
ATOM     25  H   UNL     1      -2.544   2.613  -3.309  0.00  0.00    +0.211 HD
ENDBRANCH  17  24
ENDBRANCH   1  17
TORSDOF 5
