REMARK  Name = ZINC59720714
REMARK  6 active torsions:
REMARK  status: ('A' for Active; 'I' for Inactive)
REMARK    1  A    between atoms: C_1  and  C_2
REMARK    2  A    between atoms: C_9  and  C_11
REMARK    3  A    between atoms: C_13  and  N_18
REMARK    4  A    between atoms: C_16  and  O_17
REMARK    5  A    between atoms: N_18  and  C_19
REMARK    6  A    between atoms: C_19  and  C_20
REMARK                            x       y       z     vdW  Elec       q    Type
REMARK                         _______ _______ _______ _____ _____    ______ ____
ROOT
ATOM      1  C   UNL     1       0.087  -5.501   2.333  0.00  0.00    +0.080 A 
ATOM      2  C   UNL     1       0.105  -6.708   1.632  0.00  0.00    +0.039 A 
ATOM      3  C   UNL     1       0.125  -7.907   2.325  0.00  0.00    +0.028 A 
ATOM      4  C   UNL     1       0.126  -7.909   3.716  0.00  0.00    +0.026 A 
ATOM      5  C   UNL     1       0.108  -6.718   4.415  0.00  0.00    +0.048 A 
ATOM      6  C   UNL     1       0.094  -5.511   3.733  0.00  0.00    +0.129 A 
ENDROOT
BRANCH   1  15
ATOM      7  C   UNL     1      -0.018   1.503   0.010  0.00  0.00    +0.044 C 
ATOM      8  C   UNL     1       0.002  -0.004   0.002  0.00  0.00    -0.048 A 
ATOM      9  C   UNL     1       0.006  -0.687  -1.206  0.00  0.00    +0.007 A 
ATOM     10  C   UNL     1       0.024  -2.066  -1.230  0.00  0.00    +0.049 A 
ATOM     11  C   UNL     1       0.039  -2.778  -0.041  0.00  0.00    +0.156 A 
ATOM     12  C   UNL     1       0.036  -2.091   1.184  0.00  0.00    +0.110 A 
ATOM     13  C   UNL     1       0.023  -0.694   1.193  0.00  0.00    +0.035 A 
ATOM     14  N   UNL     1       0.053  -3.035   2.160  0.00  0.00    -0.209 NA
ATOM     15  C   UNL     1       0.066  -4.219   1.601  0.00  0.00    +0.232 A 
ATOM     16  O   UNL     1       0.058  -4.096   0.260  0.00  0.00    -0.435 OA
ENDBRANCH   1  15
BRANCH   6  17
ATOM     17  O   UNL     1       0.082  -4.341   4.422  0.00  0.00    -0.506 OA
ATOM     18  H   UNL     1      -0.805  -4.014   4.626  0.00  0.00    +0.292 HD
ENDBRANCH   6  17
BRANCH   3  19
ATOM     19  N   UNL     1       0.143  -9.119   1.625  0.00  0.00    -0.339 N 
ATOM     20  H   UNL     1       0.142  -9.118   0.655  0.00  0.00    +0.146 HD
BRANCH  19  21
ATOM     21  C   UNL     1       0.164 -10.388   2.357  0.00  0.00    +0.144 C 
BRANCH  21  22
ATOM     22  C   UNL     1       0.182 -11.533   1.377  0.00  0.00    +0.007 A 
ATOM     23  C   UNL     1       1.244 -12.168   0.825  0.00  0.00    +0.013 A 
ATOM     24  C   UNL     1       1.019 -13.206  -0.060  0.00  0.00    +0.008 A 
ATOM     25  C   UNL     1      -0.258 -13.557  -0.350  0.00  0.00    +0.045 A 
ATOM     26  S   UNL     1      -1.192 -12.409   0.648  0.00  0.00    -0.100 S 
ENDBRANCH  21  22
ENDBRANCH  19  21
ENDBRANCH   3  19
TORSDOF 5
