REMARK  Name = ZINC07255730
REMARK  5 active torsions:
REMARK  status: ('A' for Active; 'I' for Inactive)
REMARK    1  A    between atoms: C_3  and  C_6
REMARK    2  A    between atoms: C_15  and  C_16
REMARK    3  A    between atoms: C_15  and  N_54
REMARK    4  A    between atoms: N_18  and  C_19
REMARK    5  A    between atoms: C_22  and  N_25
REMARK                            x       y       z     vdW  Elec       q    Type
REMARK                         _______ _______ _______ _____ _____    ______ ____
ROOT
ATOM      1  C   UNL     1      -3.962   3.069   6.590  0.00  0.00    +0.020 C 
ENDROOT
BRANCH   1  10
ATOM      2  C   UNL     1      -5.222   1.003   6.644  0.00  0.00    +0.002 C 
ATOM      3  C   UNL     1      -5.630  -0.154   7.550  0.00  0.00    -0.046 A 
ATOM      4  C   UNL     1      -6.687  -1.020   7.277  0.00  0.00    +0.010 A 
ATOM      5  C   UNL     1      -6.983  -2.020   8.140  0.00  0.00    +0.045 A 
ATOM      6  S   UNL     1      -5.751  -1.786   9.413  0.00  0.00    -0.101 S 
ATOM      7  C   UNL     1      -4.941  -0.381   8.703  0.00  0.00    -0.010 A 
ATOM      8  C   UNL     1      -3.774   0.400   9.213  0.00  0.00    +0.024 C 
ATOM      9  C   UNL     1      -3.258   1.278   8.060  0.00  0.00    -0.072 C 
ATOM     10  N   UNL     1      -4.423   1.959   7.446  0.00  0.00    +0.393 N 
ATOM     11  H   UNL     1      -5.016   2.340   8.194  0.00  0.00    -0.080 HD
BRANCH   2  14
ATOM     12  C   UNL     1      -8.197   2.351   4.683  0.00  0.00    +0.008 A 
ATOM     13  C   UNL     1      -7.063   1.601   4.930  0.00  0.00    +0.010 A 
ATOM     14  C   UNL     1      -6.455   1.707   6.137  0.00  0.00    -0.019 A 
ATOM     15  S   UNL     1      -7.497   2.892   6.972  0.00  0.00    -0.103 S 
ATOM     16  C   UNL     1      -8.667   3.172   5.654  0.00  0.00    +0.045 A 
ENDBRANCH   2  14
ENDBRANCH   1  10
BRANCH   1  17
ATOM     17  C   UNL     1      -3.155   2.550   5.428  0.00  0.00    +0.201 C 
ATOM     18  O   UNL     1      -2.966   1.359   5.304  0.00  0.00    -0.278 OA
ATOM     19  N   UNL     1      -2.643   3.410   4.525  0.00  0.00    -0.287 N 
ATOM     20  H   UNL     1      -2.737   4.367   4.659  0.00  0.00    +0.155 HD
BRANCH  19  21
ATOM     21  C   UNL     1      -1.974   2.924   3.394  0.00  0.00    +0.033 A 
ATOM     22  C   UNL     1      -1.194   1.778   3.488  0.00  0.00    +0.025 A 
ATOM     23  C   UNL     1      -0.536   1.298   2.373  0.00  0.00    +0.025 A 
ATOM     24  C   UNL     1      -0.653   1.961   1.158  0.00  0.00    +0.030 A 
ATOM     25  C   UNL     1      -1.429   3.109   1.066  0.00  0.00    +0.025 A 
ATOM     26  C   UNL     1      -2.091   3.586   2.179  0.00  0.00    +0.025 A 
BRANCH  24  27
ATOM     27  N   UNL     1       0.015   1.475   0.029  0.00  0.00    -0.330 N 
ATOM     28  C   UNL     1      -0.949   1.067  -1.025  0.00  0.00    +0.105 C 
ATOM     29  C   UNL     1      -0.090   1.075  -2.314  0.00  0.00    +0.020 C 
ATOM     30  C   UNL     1       0.838   2.294  -2.103  0.00  0.00    +0.020 C 
ATOM     31  C   UNL     1       0.858   2.525  -0.581  0.00  0.00    +0.105 C 
ENDBRANCH  24  27
ENDBRANCH  19  21
ENDBRANCH   1  17
TORSDOF 5
