REMARK  Name = ZINC44803253
REMARK  11 active torsions:
REMARK  status: ('A' for Active; 'I' for Inactive)
REMARK    1  A    between atoms: C_1  and  C_2
REMARK    2  A    between atoms: C_5  and  C_33
REMARK    3  A    between atoms: C_6  and  N_8
REMARK    4  A    between atoms: C_9  and  C_11
REMARK    5  A    between atoms: C_11  and  C_13
REMARK    6  A    between atoms: C_11  and  S_14
REMARK    7  A    between atoms: S_14  and  C_15
REMARK    8  A    between atoms: C_18  and  C_22
REMARK    9  A    between atoms: C_26  and  C_32
REMARK   10  A    between atoms: C_27  and  N_28
REMARK   11  A    between atoms: C_29  and  C_31
REMARK                            x       y       z     vdW  Elec       q    Type
REMARK                         _______ _______ _______ _____ _____    ______ ____
ROOT
ATOM      1  C   UNL     1      -0.734  -4.590   6.800  0.00  0.00    +0.213 A 
ATOM      2  N   UNL     1       0.064  -5.621   7.048  0.00  0.00    -0.122 NA
ATOM      3  N   UNL     1       0.261  -6.048   8.246  0.00  0.00    -0.141 NA
ATOM      4  C   UNL     1      -0.337  -5.459   9.276  0.00  0.00    +0.161 A 
ATOM      5  C   UNL     1      -1.187  -4.364   9.037  0.00  0.00    +0.300 A 
ATOM      6  O   UNL     1      -1.814  -3.739  10.061  0.00  0.00    -0.263 OA
ATOM      7  N   UNL     1      -1.358  -3.955   7.786  0.00  0.00    -0.180 NA
ENDROOT
BRANCH   4   8
ATOM      8  C   UNL     1      -0.112  -5.949  10.656  0.00  0.00    +0.029 A 
ATOM      9  C   UNL     1      -1.189  -6.113  11.525  0.00  0.00    +0.012 A 
ATOM     10  C   UNL     1      -0.975  -6.570  12.809  0.00  0.00    +0.001 A 
ATOM     11  C   UNL     1       0.307  -6.866  13.239  0.00  0.00    +0.005 A 
ATOM     12  C   UNL     1       1.383  -6.707  12.387  0.00  0.00    -0.029 A 
ATOM     13  C   UNL     1       1.183  -6.255  11.091  0.00  0.00    +0.046 A 
ATOM     14  C   UNL     1       2.776  -7.031  12.864  0.00  0.00    +0.045 C 
BRANCH  13  15
ATOM     15  N   UNL     1       2.269  -6.100  10.226  0.00  0.00    -0.285 N 
ATOM     16  C   UNL     1       2.363  -5.000   9.453  0.00  0.00    +0.214 C 
ATOM     17  O   UNL     1       1.534  -4.120   9.548  0.00  0.00    -0.276 OA
ATOM     18  C   UNL     1       3.498  -4.864   8.471  0.00  0.00    +0.109 C 
ATOM     19  H   UNL     1       2.955  -6.784  10.182  0.00  0.00    +0.155 HD
ENDBRANCH  13  15
ENDBRANCH   4   8
BRANCH   1  20
ATOM     20  S   UNL     1      -0.965  -4.050   5.138  0.00  0.00    -0.072 S 
BRANCH  20  21
ATOM     21  C   UNL     1       0.057  -5.187   4.162  0.00  0.00    +0.137 C 
ATOM     22  C   UNL     1       1.531  -4.984   4.520  0.00  0.00    +0.029 C 
BRANCH  21  24
ATOM     23  N   UNL     1       0.075  -5.885   1.789  0.00  0.00    -0.284 N 
ATOM     24  C   UNL     1      -0.146  -4.911   2.695  0.00  0.00    +0.230 C 
ATOM     25  O   UNL     1      -0.507  -3.813   2.328  0.00  0.00    -0.274 OA
ATOM     26  H   UNL     1       0.286  -6.784   2.085  0.00  0.00    +0.155 HD
BRANCH  23  32
ATOM     27  C   UNL     1       0.278  -2.601  -1.865  0.00  0.00    +0.044 C 
ATOM     28  C   UNL     1       0.093  -4.015  -1.377  0.00  0.00    -0.049 A 
ATOM     29  C   UNL     1      -0.153  -5.032  -2.283  0.00  0.00    +0.004 A 
ATOM     30  C   UNL     1      -0.323  -6.330  -1.839  0.00  0.00    +0.005 A 
ATOM     31  C   UNL     1      -0.248  -6.616  -0.490  0.00  0.00    -0.029 A 
ATOM     32  C   UNL     1      -0.001  -5.598   0.421  0.00  0.00    +0.037 A 
ATOM     33  C   UNL     1       0.174  -4.295  -0.028  0.00  0.00    +0.027 A 
ATOM     34  C   UNL     1      -0.433  -8.032  -0.008  0.00  0.00    +0.045 C 
ENDBRANCH  23  32
ENDBRANCH  21  24
ENDBRANCH  20  21
ENDBRANCH   1  20
TORSDOF 6
