REMARK  Name = ZINC12433011
REMARK  15 active torsions:
REMARK  status: ('A' for Active; 'I' for Inactive)
REMARK    1  A    between atoms: C_1  and  N_62
REMARK    2  A    between atoms: C_2  and  N_62
REMARK    3  A    between atoms: C_3  and  C_4
REMARK    4  A    between atoms: C_3  and  N_62
REMARK    5  A    between atoms: C_4  and  C_6
REMARK    6  A    between atoms: C_4  and  O_29
REMARK    7  A    between atoms: C_6  and  O_7
REMARK    8  A    between atoms: O_7  and  C_8
REMARK    9  A    between atoms: C_11  and  O_27
REMARK   10  A    between atoms: C_13  and  C_14
REMARK   11  A    between atoms: C_14  and  N_64
REMARK   12  A    between atoms: C_15  and  N_64
REMARK   13  A    between atoms: C_16  and  C_17
REMARK   14  A    between atoms: C_16  and  N_64
REMARK   15  A    between atoms: O_27  and  C_28
REMARK                            x       y       z     vdW  Elec       q    Type
REMARK                         _______ _______ _______ _____ _____    ______ ____
ROOT
ATOM      1  C   UNL     1       1.179   1.786   0.000  0.00  0.00    +0.122 A 
ATOM      2  C   UNL     1      -0.013   1.076   0.008  0.00  0.00    +0.049 A 
ATOM      3  C   UNL     1      -1.218   1.750   0.017  0.00  0.00    +0.049 A 
ATOM      4  C   UNL     1      -1.237   3.137   0.030  0.00  0.00    +0.121 A 
ATOM      5  C   UNL     1      -0.045   3.847   0.022  0.00  0.00    +0.051 A 
ATOM      6  C   UNL     1       1.160   3.172   0.007  0.00  0.00    -0.019 A 
ENDROOT
BRANCH   4   7
ATOM      7  O   UNL     1      -2.423   3.801   0.044  0.00  0.00    -0.495 OA
ATOM      8  C   UNL     1      -3.611   3.006   0.051  0.00  0.00    +0.277 C 
ENDBRANCH   4   7
BRANCH   1   9
ATOM      9  O   UNL     1       2.366   1.122  -0.014  0.00  0.00    -0.489 OA
BRANCH   9  10
ATOM     10  C   UNL     1       2.311  -0.306  -0.020  0.00  0.00    +0.258 C 
BRANCH  10  11
ATOM     11  C   UNL     1       3.732  -0.872  -0.035  0.00  0.00    +0.135 C 
BRANCH  11  12
ATOM     12  O   UNL     1       4.374  -0.513  -1.261  0.00  0.00    -0.390 OA
ATOM     13  H   UNL     1       3.926  -0.844  -2.051  0.00  0.00    +0.210 HD
ENDBRANCH  11  12
BRANCH  11  14
ATOM     14  C   UNL     1       3.676  -2.396   0.084  0.00  0.00    -0.045 C 
BRANCH  14  17
ATOM     15  C   UNL     1       5.677  -2.504   1.443  0.00  0.00    -0.096 C 
ATOM     16  C   UNL     1       5.044  -4.393   0.067  0.00  0.00    -0.096 C 
ATOM     17  N   UNL     1       5.056  -2.919   0.167  0.00  0.00    +0.378 N 
ATOM     18  H   UNL     1       5.605  -2.536  -0.611  0.00  0.00    -0.083 HD
ENDBRANCH  14  17
ENDBRANCH  11  14
ENDBRANCH  10  11
ENDBRANCH   9  10
ENDBRANCH   1   9
BRANCH   6  19
ATOM     19  C   UNL     1       2.455   3.943  -0.000  0.00  0.00    -0.039 C 
BRANCH  19  21
ATOM     20  C   UNL     1       3.374   2.656  -1.833  0.00  0.00    -0.095 C 
ATOM     21  N   UNL     1       2.966   4.004  -1.386  0.00  0.00    +0.384 N 
ATOM     22  H   UNL     1       2.219   4.347  -2.002  0.00  0.00    -0.081 HD
BRANCH  21  23
ATOM     23  C   UNL     1       4.115   4.931  -1.461  0.00  0.00    -0.020 C 
BRANCH  23  24
ATOM     24  C   UNL     1       4.474   5.144  -2.909  0.00  0.00    +0.050 A 
ATOM     25  C   UNL     1       5.395   4.398  -3.641  0.00  0.00    -0.006 A 
ATOM     26  C   UNL     1       5.431   4.899  -4.903  0.00  0.00    +0.039 A 
ATOM     27  N   UNL     1       4.570   5.928  -4.962  0.00  0.00    -0.281 N 
ATOM     28  H   UNL     1       4.383   6.494  -5.765  0.00  0.00    +0.189 HD
ATOM     29  N   UNL     1       3.978   6.066  -3.697  0.00  0.00    -0.180 NA
ATOM     30  C   UNL     1       6.311   4.359  -6.002  0.00  0.00    +0.055 C 
ATOM     31  C   UNL     1       7.395   3.480  -5.366  0.00  0.00    +0.006 C 
ATOM     32  C   UNL     1       6.745   2.479  -4.407  0.00  0.00    +0.005 C 
ATOM     33  C   UNL     1       6.215   3.221  -3.174  0.00  0.00    +0.039 C 
ENDBRANCH  23  24
ENDBRANCH  21  23
ENDBRANCH  19  21
ENDBRANCH   6  19
TORSDOF 11
