REMARK  Name = ZINC64137534
REMARK  11 active torsions:
REMARK  status: ('A' for Active; 'I' for Inactive)
REMARK    1  A    between atoms: C_1  and  C_2
REMARK    2  A    between atoms: C_2  and  O_3
REMARK    3  A    between atoms: O_3  and  C_4
REMARK    4  A    between atoms: C_9  and  C_10
REMARK    5  A    between atoms: C_10  and  N_11
REMARK    6  A    between atoms: C_12  and  C_14
REMARK    7  A    between atoms: C_14  and  C_16
REMARK    8  A    between atoms: C_14  and  N_26
REMARK    9  A    between atoms: C_16  and  C_17
REMARK   10  A    between atoms: C_27  and  C_29
REMARK   11  A    between atoms: C_31  and  C_34
REMARK                            x       y       z     vdW  Elec       q    Type
REMARK                         _______ _______ _______ _____ _____    ______ ____
ROOT
ATOM      1  N   UNL     1      -4.238  -1.012  -1.330  0.00  0.00    -0.310 N 
ATOM      2  C   UNL     1      -5.276  -0.185  -1.562  0.00  0.00    +0.234 C 
ATOM      3  O   UNL     1      -5.996   0.156  -0.647  0.00  0.00    -0.274 OA
ATOM      4  H   UNL     1      -3.662  -1.285  -2.061  0.00  0.00    +0.149 HD
ENDROOT
BRANCH   1   5
ATOM      5  C   UNL     1      -3.979  -1.499   0.027  0.00  0.00    +0.143 C 
BRANCH   5  11
ATOM      6  C   UNL     1      -1.498  -1.849   0.006  0.00  0.00    +0.126 A 
ATOM      7  C   UNL     1      -0.389  -2.683  -0.003  0.00  0.00    +0.053 A 
ATOM      8  C   UNL     1      -0.556  -4.050  -0.007  0.00  0.00    +0.001 A 
ATOM      9  C   UNL     1      -1.827  -4.611   0.005  0.00  0.00    +0.125 A 
ATOM     10  C   UNL     1      -2.936  -3.770   0.009  0.00  0.00    +0.054 A 
ATOM     11  C   UNL     1      -2.771  -2.400   0.016  0.00  0.00    +0.015 A 
ATOM     12  O   UNL     1      -1.764  -5.972   0.021  0.00  0.00    -0.488 OA
ATOM     13  C   UNL     1      -0.462  -6.391  -0.424  0.00  0.00    +0.175 C 
ATOM     14  C   UNL     1       0.436  -5.196  -0.028  0.00  0.00    +0.083 C 
ATOM     15  C   UNL     1      -0.026  -7.666   0.299  0.00  0.00    +0.052 C 
BRANCH   6  16
ATOM     16  O   UNL     1      -1.339  -0.499   0.012  0.00  0.00    -0.492 OA
BRANCH  16  18
ATOM     17  C   UNL     1      -0.019   1.526   0.010  0.00  0.00    +0.048 C 
ATOM     18  C   UNL     1       0.002  -0.004   0.002  0.00  0.00    +0.225 C 
ENDBRANCH  16  18
ENDBRANCH   6  16
ENDBRANCH   5  11
ENDBRANCH   1   5
BRANCH   2  19
ATOM     19  C   UNL     1      -5.543   0.316  -2.958  0.00  0.00    +0.163 C 
BRANCH  19  20
ATOM     20  N   UNL     1      -6.373   1.522  -2.894  0.00  0.00    -0.304 N 
ATOM     21  C   UNL     1      -7.595   1.469  -2.328  0.00  0.00    +0.211 C 
ATOM     22  O   UNL     1      -8.007   0.424  -1.872  0.00  0.00    -0.276 OA
ATOM     23  C   UNL     1      -8.448   2.710  -2.262  0.00  0.00    +0.109 C 
ATOM     24  H   UNL     1      -6.043   2.358  -3.259  0.00  0.00    +0.149 HD
ENDBRANCH  19  20
BRANCH  19  25
ATOM     25  C   UNL     1      -6.274  -0.765  -3.757  0.00  0.00    +0.065 C 
BRANCH  25  26
ATOM     26  C   UNL     1      -6.432  -0.313  -5.186  0.00  0.00    -0.039 C 
ATOM     27  C   UNL     1      -5.621  -0.609  -6.227  0.00  0.00    -0.001 A 
ATOM     28  C   UNL     1      -4.395  -1.409  -6.335  0.00  0.00    +0.010 A 
ATOM     29  C   UNL     1      -3.792  -1.525  -7.540  0.00  0.00    +0.001 A 
ATOM     30  C   UNL     1      -4.306  -0.901  -8.685  0.00  0.00    +0.002 A 
ATOM     31  C   UNL     1      -5.428  -0.150  -8.664  0.00  0.00    +0.026 A 
ATOM     32  C   UNL     1      -6.144   0.039  -7.450  0.00  0.00    +0.043 A 
ATOM     33  N   UNL     1      -7.236   0.711  -7.176  0.00  0.00    -0.380 N 
ATOM     34  C   UNL     1      -7.533   0.559  -5.748  0.00  0.00    +0.144 C 
ATOM     35  H   UNL     1      -7.763   1.219  -7.813  0.00  0.00    +0.160 HD
ENDBRANCH  25  26
ENDBRANCH  19  25
ENDBRANCH   2  19
TORSDOF 8
