REMARK  Name = ZINC10001760
REMARK  15 active torsions:
REMARK  status: ('A' for Active; 'I' for Inactive)
REMARK    1  A    between atoms: C_1  and  C_2
REMARK    2  A    between atoms: C_2  and  O_3
REMARK    3  A    between atoms: O_3  and  C_4
REMARK    4  A    between atoms: C_6  and  C_15
REMARK    5  A    between atoms: C_9  and  O_10
REMARK    6  A    between atoms: O_10  and  C_11
REMARK    7  A    between atoms: C_11  and  C_12
REMARK    8  A    between atoms: N_16  and  N_17
REMARK    9  A    between atoms: C_18  and  C_20
REMARK   10  A    between atoms: C_20  and  C_22
REMARK   11  A    between atoms: C_20  and  N_26
REMARK   12  A    between atoms: C_22  and  C_23
REMARK   13  A    between atoms: C_23  and  C_24
REMARK   14  A    between atoms: C_23  and  C_25
REMARK   15  A    between atoms: C_27  and  C_29
REMARK                            x       y       z     vdW  Elec       q    Type
REMARK                         _______ _______ _______ _____ _____    ______ ____
ROOT
ATOM      1  N   UNL     1      -0.031  -0.358   2.638  0.00  0.00    -0.205 N 
ATOM      2  C   UNL     1      -0.074   0.981   2.485  0.00  0.00    +0.253 C 
ATOM      3  O   UNL     1       0.415   1.703   3.328  0.00  0.00    -0.272 OA
ATOM      4  H   UNL     1      -0.422  -0.936   1.964  0.00  0.00    +0.177 HD
ENDROOT
BRANCH   1   6
ATOM      5  C   UNL     1       0.619  -2.203   3.917  0.00  0.00    +0.138 C 
ATOM      6  N   UNL     1       0.578  -0.915   3.770  0.00  0.00    -0.188 NA
BRANCH   5   9
ATOM      7  C   UNL     1       1.907  -4.721   6.388  0.00  0.00    +0.164 A 
ATOM      8  C   UNL     1       1.299  -4.176   5.272  0.00  0.00    +0.059 A 
ATOM      9  C   UNL     1       1.259  -2.789   5.109  0.00  0.00    -0.000 A 
ATOM     10  C   UNL     1       1.823  -1.958   6.080  0.00  0.00    +0.033 A 
ATOM     11  C   UNL     1       2.423  -2.509   7.195  0.00  0.00    +0.087 A 
ATOM     12  C   UNL     1       2.467  -3.888   7.353  0.00  0.00    +0.182 A 
ATOM     13 CL   UNL     1       3.123  -1.476   8.401  0.00  0.00    -0.080 Cl
BRANCH   7  14
ATOM     14  O   UNL     1       1.951  -6.071   6.547  0.00  0.00    -0.489 OA
BRANCH  14  16
ATOM     15  C   UNL     1       1.504  -8.347   5.870  0.00  0.00    +0.048 C 
ATOM     16  C   UNL     1       1.357  -6.865   5.519  0.00  0.00    +0.226 C 
ENDBRANCH  14  16
ENDBRANCH   7  14
BRANCH  12  17
ATOM     17  O   UNL     1       3.059  -4.425   8.453  0.00  0.00    -0.474 OA
BRANCH  17  18
ATOM     18  C   UNL     1       2.228  -4.647   9.594  0.00  0.00    +0.317 C 
BRANCH  18  19
ATOM     19  C   UNL     1       3.032  -5.229  10.681  0.00  0.00    -0.065 C 
ATOM     20  C   UNL     1       3.673  -5.694  11.547  0.00  0.00    +0.007 C 
ENDBRANCH  18  19
ENDBRANCH  17  18
ENDBRANCH  12  17
ENDBRANCH   5   9
ENDBRANCH   1   6
BRANCH   2  21
ATOM     21  C   UNL     1      -0.729   1.579   1.267  0.00  0.00    +0.161 C 
BRANCH  21  22
ATOM     22  N   UNL     1      -0.645   3.040   1.336  0.00  0.00    -0.300 N 
ATOM     23  C   UNL     1      -1.547   3.799   0.682  0.00  0.00    +0.245 C 
ATOM     24  O   UNL     1      -2.430   3.271   0.035  0.00  0.00    -0.270 OA
ATOM     25  H   UNL     1       0.060   3.462   1.852  0.00  0.00    +0.150 HD
BRANCH  23  26
ATOM     26  C   UNL     1      -1.462   5.272   0.751  0.00  0.00    +0.037 A 
ATOM     27  C   UNL     1      -0.452   5.882   1.498  0.00  0.00    +0.014 A 
ATOM     28  C   UNL     1      -0.374   7.258   1.553  0.00  0.00    +0.021 A 
ATOM     29  C   UNL     1      -1.302   8.034   0.880  0.00  0.00    +0.041 A 
ATOM     30  C   UNL     1      -2.310   7.436   0.143  0.00  0.00    +0.021 A 
ATOM     31  C   UNL     1      -2.395   6.061   0.075  0.00  0.00    +0.014 A 
ATOM     32 CL   UNL     1      -1.202   9.766   0.961  0.00  0.00    -0.084 Cl
ENDBRANCH  23  26
ENDBRANCH  21  22
BRANCH  21  33
ATOM     33  C   UNL     1      -0.013   1.086   0.008  0.00  0.00    +0.034 C 
BRANCH  33  34
ATOM     34  C   UNL     1      -0.753   1.593  -1.232  0.00  0.00    -0.015 C 
ATOM     35  C   UNL     1       0.031   1.205  -2.487  0.00  0.00    +0.007 C 
ATOM     36  C   UNL     1      -2.147   0.964  -1.286  0.00  0.00    +0.007 C 
ENDBRANCH  33  34
ENDBRANCH  21  33
ENDBRANCH   2  21
TORSDOF 12
