REMARK  Name = ZINC65322120
REMARK  7 active torsions:
REMARK  status: ('A' for Active; 'I' for Inactive)
REMARK    1  A    between atoms: C_1  and  C_2
REMARK    2  A    between atoms: C_4  and  C_29
REMARK    3  A    between atoms: C_6  and  S_8
REMARK    4  A    between atoms: S_8  and  C_9
REMARK    5  A    between atoms: C_9  and  C_10
REMARK    6  A    between atoms: C_15  and  C_18
REMARK    7  A    between atoms: C_26  and  C_28
REMARK                            x       y       z     vdW  Elec       q    Type
REMARK                         _______ _______ _______ _____ _____    ______ ____
ROOT
ATOM      1  C   UNL     1       0.030  -2.124   5.308  0.00  0.00    +0.229 C 
ATOM      2  O   UNL     1       0.062  -3.328   5.447  0.00  0.00    -0.275 OA
ATOM      3  N   UNL     1       0.021  -1.320   6.389  0.00  0.00    -0.264 N 
ATOM      4  C   UNL     1       0.048  -1.871   7.662  0.00  0.00    +0.165 A 
ATOM      5  N   UNL     1       0.039  -1.258   8.827  0.00  0.00    -0.225 NA
ATOM      6  C   UNL     1       0.070  -2.001   9.940  0.00  0.00    +0.079 A 
ATOM      7  C   UNL     1       0.110  -3.382   9.808  0.00  0.00    +0.076 A 
ATOM      8  S   UNL     1       0.095  -3.588   8.138  0.00  0.00    -0.060 S 
ATOM      9  H   UNL     1      -0.004  -0.357   6.278  0.00  0.00    +0.157 HD
ENDROOT
BRANCH   6  10
ATOM     10  C   UNL     1       0.062  -1.395  11.215  0.00  0.00    +0.009 C 
ATOM     11  C   UNL     1       0.135  -0.034  11.501  0.00  0.00    +0.005 A 
ATOM     12  C   UNL     1       0.234   1.109  10.677  0.00  0.00    +0.010 A 
ATOM     13  C   UNL     1       0.290   2.342  11.241  0.00  0.00    +0.001 A 
ATOM     14  C   UNL     1       0.252   2.516  12.627  0.00  0.00    +0.002 A 
ATOM     15  C   UNL     1       0.158   1.464  13.477  0.00  0.00    +0.026 A 
ATOM     16  C   UNL     1       0.095   0.143  12.961  0.00  0.00    +0.043 A 
ATOM     17  N   UNL     1       0.003  -1.025  13.565  0.00  0.00    -0.377 N 
ATOM     18  C   UNL     1      -0.034  -2.088  12.556  0.00  0.00    +0.109 C 
ATOM     19  C   UNL     1      -1.347  -2.867  12.654  0.00  0.00    +0.035 C 
ATOM     20  H   UNL     1      -0.039  -1.160  14.525  0.00  0.00    +0.160 HD
ENDBRANCH   6  10
BRANCH   1  21
ATOM     21  C   UNL     1       0.002  -1.526   3.924  0.00  0.00    +0.173 C 
BRANCH  21  22
ATOM     22  S   UNL     1       0.022  -2.856   2.691  0.00  0.00    -0.077 S 
BRANCH  22  28
ATOM     23  C   UNL     1      -0.115   1.500   0.011  0.00  0.00    +0.066 C 
ATOM     24  C   UNL     1      -0.076  -0.006   0.003  0.00  0.00    +0.043 A 
ATOM     25  C   UNL     1      -0.071  -0.699  -1.196  0.00  0.00    +0.051 A 
ATOM     26  C   UNL     1      -0.036  -2.095  -1.157  0.00  0.00    +0.076 A 
ATOM     27  N   UNL     1      -0.008  -2.707   0.024  0.00  0.00    -0.222 NA
ATOM     28  C   UNL     1      -0.014  -2.006   1.147  0.00  0.00    +0.189 A 
ATOM     29  N   UNL     1      -0.042  -0.680   1.141  0.00  0.00    -0.227 NA
BRANCH  26  30
ATOM     30  C   UNL     1      -0.029  -2.883  -2.414  0.00  0.00    +0.000 A 
ATOM     31  C   UNL     1      -0.053  -2.233  -3.647  0.00  0.00    +0.010 A 
ATOM     32  C   UNL     1      -0.046  -2.971  -4.813  0.00  0.00    +0.001 A 
ATOM     33  C   UNL     1      -0.016  -4.353  -4.759  0.00  0.00    +0.000 A 
ATOM     34  C   UNL     1       0.007  -5.003  -3.538  0.00  0.00    +0.001 A 
ATOM     35  C   UNL     1       0.007  -4.275  -2.366  0.00  0.00    +0.010 A 
ENDBRANCH  26  30
ENDBRANCH  22  28
ENDBRANCH  21  22
ENDBRANCH   1  21
TORSDOF 5
