REMARK  Name = ZINC08764634
REMARK  8 active torsions:
REMARK  status: ('A' for Active; 'I' for Inactive)
REMARK    1  A    between atoms: C_1  and  C_2
REMARK    2  A    between atoms: C_3  and  C_15
REMARK    3  A    between atoms: C_9  and  O_14
REMARK    4  A    between atoms: C_11  and  O_13
REMARK    5  A    between atoms: C_15  and  C_16
REMARK    6  A    between atoms: C_20  and  C_29
REMARK    7  A    between atoms: C_25  and  C_27
REMARK    8  A    between atoms: C_25  and  C_28
REMARK                            x       y       z     vdW  Elec       q    Type
REMARK                         _______ _______ _______ _____ _____    ______ ____
ROOT
ATOM      1  C   UNL     1       3.708  -0.781  -0.038  0.00  0.00    +0.045 C 
ATOM      2  C   UNL     1       2.397  -0.038  -0.021  0.00  0.00    -0.026 A 
ATOM      3  C   UNL     1       1.234  -0.693   0.231  0.00  0.00    +0.049 A 
ATOM      4  C   UNL     1       0.017   0.017   0.243  0.00  0.00    +0.341 A 
ATOM      5  O   UNL     1      -1.022  -0.578   0.469  0.00  0.00    -0.245 OA
ATOM      6  O   UNL     1      -0.016   1.340   0.008  0.00  0.00    -0.422 OA
ATOM      7  C   UNL     1       1.118   2.028  -0.247  0.00  0.00    +0.146 A 
ATOM      8  C   UNL     1       2.356   1.358  -0.269  0.00  0.00    +0.062 A 
ATOM      9  C   UNL     1       3.536   2.076  -0.534  0.00  0.00    +0.131 A 
ATOM     10  C   UNL     1       3.469   3.434  -0.772  0.00  0.00    +0.091 A 
ATOM     11  C   UNL     1       2.243   4.090  -0.750  0.00  0.00    +0.124 A 
ATOM     12  C   UNL     1       1.074   3.392  -0.489  0.00  0.00    +0.092 A 
ENDROOT
BRANCH  11  13
ATOM     13  O   UNL     1       2.190   5.426  -0.985  0.00  0.00    -0.507 OA
ATOM     14  H   UNL     1       2.075   5.657  -1.917  0.00  0.00    +0.292 HD
ENDBRANCH  11  13
BRANCH   9  15
ATOM     15  O   UNL     1       4.733   1.437  -0.556  0.00  0.00    -0.506 OA
ATOM     16  H   UNL     1       4.980   1.095  -1.426  0.00  0.00    +0.292 HD
ENDBRANCH   9  15
BRANCH   3  17
ATOM     17  C   UNL     1       1.246  -2.176   0.498  0.00  0.00    +0.138 C 
BRANCH  17  18
ATOM     18  C   UNL     1       1.090  -2.922  -0.802  0.00  0.00    +0.220 C 
ATOM     19  O   UNL     1       0.980  -2.309  -1.843  0.00  0.00    -0.275 OA
ATOM     20  N   UNL     1       1.073  -4.270  -0.808  0.00  0.00    -0.298 N 
ATOM     21  C   UNL     1       1.195  -5.136   0.375  0.00  0.00    +0.114 C 
ATOM     22  C   UNL     1       1.180  -6.591  -0.147  0.00  0.00    -0.014 C 
ATOM     23  C   UNL     1       0.345  -6.467  -1.451  0.00  0.00    +0.030 C 
ATOM     24  C   UNL     1       0.915  -5.131  -1.995  0.00  0.00    +0.077 C 
ATOM     25  C   UNL     1       2.292  -5.442  -2.581  0.00  0.00    +0.029 C 
ATOM     26  C   UNL     1       3.239  -6.112  -1.602  0.00  0.00    -0.033 C 
ATOM     27  C   UNL     1       2.598  -6.991  -0.546  0.00  0.00    +0.014 C 
ATOM     28  C   UNL     1       4.191  -7.010  -2.431  0.00  0.00    +0.011 C 
ATOM     29  C   UNL     1       4.123  -5.049  -0.931  0.00  0.00    +0.011 C 
ATOM     30  C   UNL     1       0.549  -7.566   0.860  0.00  0.00    +0.013 C 
ENDBRANCH  17  18
ENDBRANCH   3  17
TORSDOF 4
