REMARK  Name = ZINC16043656
REMARK  12 active torsions:
REMARK  status: ('A' for Active; 'I' for Inactive)
REMARK    1  A    between atoms: C_1  and  C_2
REMARK    2  A    between atoms: C_2  and  C_4
REMARK    3  A    between atoms: C_2  and  O_11
REMARK    4  A    between atoms: O_11  and  C_12
REMARK    5  A    between atoms: C_12  and  C_13
REMARK    6  A    between atoms: C_13  and  C_15
REMARK    7  A    between atoms: C_13  and  O_35
REMARK    8  A    between atoms: C_15  and  N_68
REMARK    9  A    between atoms: C_18  and  C_21
REMARK   10  A    between atoms: C_21  and  C_22
REMARK   11  A    between atoms: C_21  and  C_28
REMARK   12  A    between atoms: C_21  and  O_34
REMARK                            x       y       z     vdW  Elec       q    Type
REMARK                         _______ _______ _______ _____ _____    ______ ____
ROOT
ATOM      1  C   UNL     1      -2.816   1.464   0.029  0.00  0.00    -0.078 C 
ATOM      2  C   UNL     1      -4.240   0.905   0.012  0.00  0.00    -0.012 C 
ATOM      3  C   UNL     1      -5.027   1.561  -1.126  0.00  0.00    +0.026 C 
ATOM      4  C   UNL     1      -4.304   1.305  -2.451  0.00  0.00    -0.012 C 
ATOM      5  C   UNL     1      -2.877   1.853  -2.362  0.00  0.00    -0.078 C 
ATOM      6  N   UNL     1      -2.166   1.163  -1.265  0.00  0.00    +0.381 N 
ATOM      7  H   UNL     1      -2.203   0.151  -1.428  0.00  0.00    -0.082 HD
ENDROOT
BRANCH   6   8
ATOM      8  C   UNL     1      -0.753   1.593  -1.232  0.00  0.00    -0.045 C 
BRANCH   8   9
ATOM      9  C   UNL     1      -0.049   1.066  -2.484  0.00  0.00    +0.124 C 
BRANCH   9  10
ATOM     10  O   UNL     1      -0.153  -0.358  -2.526  0.00  0.00    -0.391 OA
ATOM     11  H   UNL     1       0.245  -0.805  -1.766  0.00  0.00    +0.210 HD
ENDBRANCH   9  10
BRANCH   9  12
ATOM     12  C   UNL     1       1.427   1.468  -2.446  0.00  0.00    +0.190 C 
BRANCH  12  13
ATOM     13  O   UNL     1       2.058   1.078  -3.668  0.00  0.00    -0.370 OA
BRANCH  13  15
ATOM     14  C   UNL     1       3.609   2.806  -4.340  0.00  0.00    +0.043 C 
ATOM     15  C   UNL     1       3.446   1.410  -3.736  0.00  0.00    +0.145 C 
BRANCH  15  16
ATOM     16  C   UNL     1       4.161   0.402  -4.599  0.00  0.00    -0.019 A 
ATOM     17  C   UNL     1       3.561  -0.070  -5.752  0.00  0.00    +0.007 A 
ATOM     18  C   UNL     1       4.218  -0.990  -6.547  0.00  0.00    +0.020 A 
ATOM     19  C   UNL     1       5.473  -1.446  -6.184  0.00  0.00    +0.041 A 
ATOM     20  C   UNL     1       6.071  -0.977  -5.028  0.00  0.00    +0.020 A 
ATOM     21  C   UNL     1       5.415  -0.053  -4.236  0.00  0.00    +0.007 A 
ATOM     22 CL   UNL     1       6.296  -2.607  -7.178  0.00  0.00    -0.084 Cl
ENDBRANCH  15  16
ENDBRANCH  13  15
ENDBRANCH  12  13
ENDBRANCH   9  12
ENDBRANCH   8   9
ENDBRANCH   6   8
BRANCH   3  23
ATOM     23  C   UNL     1      -6.434   0.963  -1.187  0.00  0.00    +0.119 C 
BRANCH  23  24
ATOM     24  C   UNL     1      -7.145   1.216   0.117  0.00  0.00    -0.011 A 
ATOM     25  C   UNL     1      -6.839   2.338   0.865  0.00  0.00    +0.007 A 
ATOM     26  C   UNL     1      -7.494   2.573   2.059  0.00  0.00    +0.000 A 
ATOM     27  C   UNL     1      -8.448   1.680   2.511  0.00  0.00    +0.000 A 
ATOM     28  C   UNL     1      -8.751   0.556   1.766  0.00  0.00    +0.000 A 
ATOM     29  C   UNL     1      -8.099   0.324   0.569  0.00  0.00    +0.007 A 
ENDBRANCH  23  24
BRANCH  23  30
ATOM     30  C   UNL     1      -7.204   1.606  -2.312  0.00  0.00    -0.011 A 
ATOM     31  C   UNL     1      -6.934   2.912  -2.678  0.00  0.00    +0.007 A 
ATOM     32  C   UNL     1      -7.637   3.499  -3.712  0.00  0.00    +0.000 A 
ATOM     33  C   UNL     1      -8.618   2.785  -4.375  0.00  0.00    +0.000 A 
ATOM     34  C   UNL     1      -8.892   1.482  -4.006  0.00  0.00    +0.000 A 
ATOM     35  C   UNL     1      -8.185   0.892  -2.974  0.00  0.00    +0.007 A 
ENDBRANCH  23  30
BRANCH  23  36
ATOM     36  O   UNL     1      -6.344  -0.444  -1.415  0.00  0.00    -0.379 OA
ATOM     37  H   UNL     1      -5.860  -0.924  -0.729  0.00  0.00    +0.211 HD
ENDBRANCH  23  36
ENDBRANCH   3  23
TORSDOF 11
