REMARK  Name = ZINC52502423
REMARK  11 active torsions:
REMARK  status: ('A' for Active; 'I' for Inactive)
REMARK    1  A    between atoms: C_1  and  C_2
REMARK    2  A    between atoms: C_7  and  C_9
REMARK    3  A    between atoms: C_7  and  N_27
REMARK    4  A    between atoms: C_9  and  N_10
REMARK    5  A    between atoms: N_13  and  C_14
REMARK    6  A    between atoms: C_14  and  C_16
REMARK    7  A    between atoms: C_14  and  C_17
REMARK    8  A    between atoms: C_21  and  S_23
REMARK    9  A    between atoms: S_23  and  N_26
REMARK   10  A    between atoms: N_27  and  C_28
REMARK   11  A    between atoms: N_27  and  C_29
REMARK                            x       y       z     vdW  Elec       q    Type
REMARK                         _______ _______ _______ _____ _____    ______ ____
ROOT
ATOM      1  N   UNL     1       1.866  -4.013   0.110  0.00  0.00    -0.301 N 
ATOM      2  C   UNL     1       2.681  -4.581  -0.802  0.00  0.00    +0.300 C 
ATOM      3  O   UNL     1       3.383  -3.883  -1.508  0.00  0.00    -0.253 OA
ATOM      4  N   UNL     1       2.718  -5.922  -0.931  0.00  0.00    -0.293 N 
ATOM      5  H   UNL     1       1.306  -4.570   0.673  0.00  0.00    +0.150 HD
ATOM      6  H   UNL     1       2.158  -6.479  -0.367  0.00  0.00    +0.151 HD
ENDROOT
BRANCH   4   7
ATOM      7  C   UNL     1       3.603  -6.538  -1.922  0.00  0.00    +0.102 C 
ATOM      8  C   UNL     1       5.001  -6.705  -1.323  0.00  0.00    +0.033 C 
BRANCH   7   9
ATOM      9  C   UNL     1       3.059  -7.889  -2.310  0.00  0.00    -0.026 A 
ATOM     10  C   UNL     1       2.506  -8.714  -1.348  0.00  0.00    +0.005 A 
ATOM     11  C   UNL     1       2.007  -9.953  -1.704  0.00  0.00    +0.002 A 
ATOM     12  C   UNL     1       2.061 -10.367  -3.022  0.00  0.00    +0.028 A 
ATOM     13  C   UNL     1       2.614  -9.542  -3.984  0.00  0.00    +0.105 A 
ATOM     14  C   UNL     1       3.109  -8.301  -3.628  0.00  0.00    +0.034 A 
BRANCH  13  15
ATOM     15  S   UNL     1       2.683 -10.070  -5.663  0.00  0.00    +0.056 S 
ATOM     16  O   UNL     1       3.740  -9.343  -6.274  0.00  0.00    -0.153 OA
ATOM     17  O   UNL     1       2.647 -11.491  -5.644  0.00  0.00    -0.153 OA
BRANCH  15  18
ATOM     18  N   UNL     1       1.282  -9.571  -6.392  0.00  0.00    -0.204 NA
ATOM     19  H   UNL     1       1.276  -9.359  -7.338  0.00  0.00    +0.144 HD
ATOM     20  H   UNL     1       0.467  -9.491  -5.872  0.00  0.00    +0.144 HD
ENDBRANCH  15  18
ENDBRANCH  13  15
ENDBRANCH   7   9
ENDBRANCH   4   7
BRANCH   1  21
ATOM     21  C   UNL     1       1.826  -2.555   0.250  0.00  0.00    +0.094 C 
BRANCH  21  27
ATOM     22  C   UNL     1       3.105  -2.691   4.382  0.00  0.00    +0.007 C 
ATOM     23  C   UNL     1       2.643  -2.138   3.032  0.00  0.00    -0.015 C 
ATOM     24  C   UNL     1       2.534  -0.614   3.115  0.00  0.00    +0.003 C 
ATOM     25  C   UNL     1       2.072  -0.061   1.766  0.00  0.00    -0.001 C 
ATOM     26  C   UNL     1       0.705  -0.651   1.414  0.00  0.00    -0.010 C 
ATOM     27  C   UNL     1       0.813  -2.175   1.331  0.00  0.00    -0.050 C 
ATOM     28  C   UNL     1       1.275  -2.728   2.680  0.00  0.00    -0.007 C 
BRANCH  27  29
ATOM     29  N   UNL     1      -0.499  -2.741   0.993  0.00  0.00    +0.381 N 
ATOM     30  C   UNL     1      -1.489  -2.311   1.990  0.00  0.00    -0.096 C 
ATOM     31  C   UNL     1      -0.908  -2.271  -0.337  0.00  0.00    -0.096 C 
ATOM     32  H   UNL     1      -0.441  -3.748   0.991  0.00  0.00    -0.082 HD
ENDBRANCH  27  29
ENDBRANCH  21  27
ENDBRANCH   1  21
TORSDOF 7
