REMARK  Name = ZINC64815926
REMARK  11 active torsions:
REMARK  status: ('A' for Active; 'I' for Inactive)
REMARK    1  A    between atoms: C_1  and  C_2
REMARK    2  A    between atoms: C_2  and  C_3
REMARK    3  A    between atoms: C_2  and  C_4
REMARK    4  A    between atoms: C_7  and  N_10
REMARK    5  A    between atoms: C_15  and  C_28
REMARK    6  A    between atoms: C_19  and  C_20
REMARK    7  A    between atoms: C_19  and  C_21
REMARK    8  A    between atoms: N_23  and  C_24
REMARK    9  A    between atoms: C_24  and  C_25
REMARK   10  A    between atoms: C_24  and  C_26
REMARK   11  A    between atoms: C_24  and  C_27
REMARK                            x       y       z     vdW  Elec       q    Type
REMARK                         _______ _______ _______ _____ _____    ______ ____
ROOT
ATOM      1  N   UNL     1       2.706  -1.844   4.644  0.00  0.00    -0.250 N 
ATOM      2  C   UNL     1       4.019  -1.538   4.774  0.00  0.00    +0.270 C 
ATOM      3  O   UNL     1       4.550  -0.683   4.091  0.00  0.00    -0.268 OA
ATOM      4  C   UNL     1       4.769  -2.296   5.789  0.00  0.00    +0.125 A 
ATOM      5  C   UNL     1       6.024  -2.127   6.294  0.00  0.00    +0.063 A 
ATOM      6  C   UNL     1       6.174  -3.155   7.251  0.00  0.00    +0.100 A 
ATOM      7  N   UNL     1       5.054  -3.857   7.263  0.00  0.00    -0.170 NA
ATOM      8  N   UNL     1       4.219  -3.393   6.417  0.00  0.00    -0.256 N 
ATOM      9  C   UNL     1       2.875  -3.872   6.070  0.00  0.00    +0.179 C 
ATOM     10  C   UNL     1       2.019  -2.687   5.616  0.00  0.00    +0.135 C 
ATOM     11  C   UNL     1       1.653  -1.838   6.835  0.00  0.00    +0.044 C 
ENDROOT
BRANCH   1  15
ATOM     12  C   UNL     1       0.578  -0.329   1.399  0.00  0.00    -0.045 A 
ATOM     13  C   UNL     1       0.239   0.052   2.685  0.00  0.00    +0.006 A 
ATOM     14  C   UNL     1       0.943  -0.449   3.763  0.00  0.00    +0.024 A 
ATOM     15  C   UNL     1       1.991  -1.336   3.554  0.00  0.00    +0.038 A 
ATOM     16  C   UNL     1       2.328  -1.716   2.262  0.00  0.00    +0.024 A 
ATOM     17  C   UNL     1       1.617  -1.216   1.189  0.00  0.00    +0.006 A 
BRANCH  12  19
ATOM     18  C   UNL     1      -1.667  -0.168   0.357  0.00  0.00    +0.012 C 
ATOM     19  C   UNL     1      -0.192   0.220   0.226  0.00  0.00    +0.013 C 
ATOM     20  C   UNL     1      -0.066   1.744   0.201  0.00  0.00    +0.012 C 
ENDBRANCH  12  19
ENDBRANCH   1  15
BRANCH   6  21
ATOM     21  C   UNL     1       7.368  -3.403   8.088  0.00  0.00    +0.039 A 
ATOM     22  C   UNL     1       7.578  -4.379   9.024  0.00  0.00    +0.018 A 
ATOM     23  C   UNL     1       8.787  -4.413   9.687  0.00  0.00    +0.008 A 
ATOM     24  C   UNL     1       9.728  -3.481   9.393  0.00  0.00    +0.046 A 
ATOM     25  S   UNL     1       8.914  -2.511   8.135  0.00  0.00    -0.095 S 
ENDBRANCH   6  21
BRANCH  10  26
ATOM     26  C   UNL     1       0.750  -3.213   4.995  0.00  0.00    +0.239 C 
ATOM     27  O   UNL     1      -0.275  -3.244   5.642  0.00  0.00    -0.273 OA
ATOM     28  N   UNL     1       0.755  -3.648   3.719  0.00  0.00    -0.309 N 
ATOM     29  H   UNL     1       1.589  -3.694   3.225  0.00  0.00    +0.149 HD
BRANCH  28  30
ATOM     30  C   UNL     1      -0.499  -4.051   3.078  0.00  0.00    +0.026 C 
ATOM     31  C   UNL     1      -1.496  -2.892   3.135  0.00  0.00    +0.031 C 
ATOM     32  C   UNL     1      -0.230  -4.422   1.618  0.00  0.00    +0.031 C 
ATOM     33  C   UNL     1      -1.081  -5.261   3.812  0.00  0.00    +0.031 C 
ENDBRANCH  28  30
ENDBRANCH  10  26
TORSDOF 5
