REMARK  Name = ZINC61592614
REMARK  7 active torsions:
REMARK  status: ('A' for Active; 'I' for Inactive)
REMARK    1  A    between atoms: C_1  and  C_2
REMARK    2  A    between atoms: C_2  and  C_4
REMARK    3  A    between atoms: C_2  and  N_22
REMARK    4  A    between atoms: C_4  and  C_6
REMARK    5  A    between atoms: C_4  and  S_13
REMARK    6  A    between atoms: S_13  and  C_14
REMARK    7  A    between atoms: N_20  and  C_21
REMARK                            x       y       z     vdW  Elec       q    Type
REMARK                         _______ _______ _______ _____ _____    ______ ____
ROOT
ATOM      1  C   UNL     1       0.784  -0.696  -1.036  0.00  0.00    +0.069 C 
ENDROOT
BRANCH   1   2
ATOM      2  C   UNL     1      -0.067  -0.704  -2.280  0.00  0.00    -0.035 A 
ATOM      3  C   UNL     1      -1.347  -1.223  -2.238  0.00  0.00    +0.005 A 
ATOM      4  C   UNL     1      -2.128  -1.230  -3.379  0.00  0.00    +0.001 A 
ATOM      5  C   UNL     1      -1.629  -0.718  -4.562  0.00  0.00    +0.015 A 
ATOM      6  C   UNL     1      -0.348  -0.198  -4.604  0.00  0.00    +0.018 A 
ATOM      7  C   UNL     1       0.431  -0.187  -3.461  0.00  0.00    +0.020 A 
ATOM      8 BR   UNL     1       0.336   0.501  -6.222  0.00  0.00    -0.050 Br
ENDBRANCH   1   2
BRANCH   1  10
ATOM      9  C   UNL     1       0.360   1.743  -0.699  0.00  0.00    -0.013 C 
ATOM     10  C   UNL     1       0.253   0.356  -0.061  0.00  0.00    -0.060 C 
BRANCH  10  11
ATOM     11  N   UNL     1      -1.154   0.068   0.251  0.00  0.00    +0.381 N 
ATOM     12  H   UNL     1      -1.717   0.207  -0.574  0.00  0.00    -0.090 HD
ATOM     13  H   UNL     1      -1.240  -0.888   0.561  0.00  0.00    -0.090 HD
ATOM     14  H   UNL     1      -1.470   0.688   0.982  0.00  0.00    -0.090 HD
ENDBRANCH  10  11
ENDBRANCH   1  10
BRANCH   1  15
ATOM     15  S   UNL     1       0.725  -2.331  -0.253  0.00  0.00    -0.080 S 
BRANCH  15  16
ATOM     16  C   UNL     1       1.868  -2.207   1.082  0.00  0.00    +0.192 A 
ATOM     17  N   UNL     1       2.564  -1.150   1.389  0.00  0.00    -0.145 NA
ATOM     18  N   UNL     1       3.349  -1.458   2.509  0.00  0.00    -0.226 N 
ATOM     19  H   UNL     1       3.967  -0.862   2.958  0.00  0.00    +0.194 HD
ATOM     20  C   UNL     1       3.087  -2.738   2.845  0.00  0.00    +0.345 A 
ATOM     21  O   UNL     1       3.584  -3.355   3.771  0.00  0.00    -0.245 OA
ATOM     22  N   UNL     1       2.171  -3.208   1.976  0.00  0.00    -0.274 N 
ATOM     23  C   UNL     1       1.597  -4.556   1.980  0.00  0.00    +0.156 C 
ENDBRANCH  15  16
ENDBRANCH   1  15
TORSDOF 5
