REMARK  Name = ZINC01339662
REMARK  9 active torsions:
REMARK  status: ('A' for Active; 'I' for Inactive)
REMARK    1  A    between atoms: C_1  and  C_2
REMARK    2  A    between atoms: C_2  and  O_3
REMARK    3  A    between atoms: O_3  and  C_4
REMARK    4  A    between atoms: C_9  and  N_10
REMARK    5  A    between atoms: C_11  and  C_13
REMARK    6  A    between atoms: C_13  and  S_14
REMARK    7  A    between atoms: S_14  and  C_15
REMARK    8  A    between atoms: C_20  and  C_33
REMARK    9  A    between atoms: C_28  and  C_32
REMARK                            x       y       z     vdW  Elec       q    Type
REMARK                         _______ _______ _______ _____ _____    ______ ____
ROOT
ATOM      1  C   UNL     1       5.765   1.452  -0.077  0.00  0.00    +0.198 A 
ATOM      2  N   UNL     1       5.791   0.139  -0.092  0.00  0.00    -0.122 NA
ATOM      3  N   UNL     1       4.592  -0.331  -0.093  0.00  0.00    -0.128 NA
ATOM      4  C   UNL     1       3.732   0.657  -0.080  0.00  0.00    +0.173 A 
ATOM      5  N   UNL     1       4.452   1.831  -0.069  0.00  0.00    -0.257 N 
ATOM      6  C   UNL     1       3.812   3.037  -0.054  0.00  0.00    +0.122 A 
ATOM      7  N   UNL     1       2.512   3.115  -0.049  0.00  0.00    -0.226 NA
ATOM      8  C   UNL     1       1.733   2.037  -0.058  0.00  0.00    +0.114 A 
ATOM      9  C   UNL     1       2.254   0.735  -0.074  0.00  0.00    +0.056 A 
ATOM     10  C   UNL     1       1.316  -0.328  -0.082  0.00  0.00    -0.024 A 
ATOM     11  C   UNL     1       0.002  -0.006  -0.074  0.00  0.00    -0.004 A 
ATOM     12  S   UNL     1      -0.022   1.767  -0.055  0.00  0.00    -0.073 S 
ATOM     13  C   UNL     1      -1.165  -0.943  -0.081  0.00  0.00    +0.046 C 
ATOM     14  C   UNL     1      -0.662  -2.341  -0.469  0.00  0.00    -0.009 C 
ATOM     15  C   UNL     1       0.585  -2.662   0.361  0.00  0.00    +0.008 C 
ATOM     16  C   UNL     1       1.754  -1.791  -0.099  0.00  0.00    +0.037 C 
ATOM     17  C   UNL     1      -1.752  -3.376  -0.184  0.00  0.00    +0.008 C 
ENDROOT
BRANCH   6  18
ATOM     18  C   UNL     1       4.627   4.304  -0.042  0.00  0.00    +0.056 C 
ATOM     19  C   UNL     1       3.882   5.621   0.181  0.00  0.00    +0.012 C 
ATOM     20  C   UNL     1       4.434   5.279  -1.205  0.00  0.00    +0.012 C 
ENDBRANCH   6  18
BRANCH   1  21
ATOM     21  S   UNL     1       7.163   2.524  -0.070  0.00  0.00    -0.076 S 
BRANCH  21  22
ATOM     22  C   UNL     1       8.583   1.395  -0.087  0.00  0.00    +0.173 C 
BRANCH  22  24
ATOM     23  N   UNL     1      11.051   1.562  -0.093  0.00  0.00    -0.282 N 
ATOM     24  C   UNL     1       9.860   2.194  -0.082  0.00  0.00    +0.228 C 
ATOM     25  O   UNL     1       9.817   3.406  -0.068  0.00  0.00    -0.275 OA
ATOM     26  H   UNL     1      11.087   0.596  -0.024  0.00  0.00    +0.155 HD
BRANCH  23  32
ATOM     27  C   UNL     1      13.433   1.779   0.277  0.00  0.00    +0.142 A 
ATOM     28  C   UNL     1      14.602   2.515   0.163  0.00  0.00    +0.047 A 
ATOM     29  C   UNL     1      14.578   3.764  -0.429  0.00  0.00    +0.004 A 
ATOM     30  C   UNL     1      13.389   4.283  -0.909  0.00  0.00    +0.002 A 
ATOM     31  C   UNL     1      12.220   3.554  -0.803  0.00  0.00    +0.027 A 
ATOM     32  C   UNL     1      12.236   2.302  -0.206  0.00  0.00    +0.076 A 
BRANCH  27  33
ATOM     33  O   UNL     1      13.456   0.550   0.858  0.00  0.00    -0.490 OA
BRANCH  33  35
ATOM     34  C   UNL     1      14.547  -1.311   1.948  0.00  0.00    +0.048 C 
ATOM     35  C   UNL     1      14.719   0.079   1.330  0.00  0.00    +0.226 C 
ENDBRANCH  33  35
ENDBRANCH  27  33
ENDBRANCH  23  32
ENDBRANCH  22  24
ENDBRANCH  21  22
ENDBRANCH   1  21
TORSDOF 7
