REMARK  Name = ZINC20884323
REMARK  5 active torsions:
REMARK  status: ('A' for Active; 'I' for Inactive)
REMARK    1  A    between atoms: N_9  and  C_26
REMARK    2  A    between atoms: C_10  and  S_12
REMARK    3  A    between atoms: S_12  and  C_13
REMARK    4  A    between atoms: C_13  and  C_14
REMARK    5  A    between atoms: C_23  and  O_25
REMARK                            x       y       z     vdW  Elec       q    Type
REMARK                         _______ _______ _______ _____ _____    ______ ____
ROOT
ATOM      1  C   UNL     1      10.917   3.452   0.567  0.00  0.00    +0.001 A 
ATOM      2  C   UNL     1      10.125   2.990   1.611  0.00  0.00    +0.002 A 
ATOM      3  C   UNL     1       8.956   2.326   1.366  0.00  0.00    +0.028 A 
ATOM      4  C   UNL     1       8.548   2.107   0.047  0.00  0.00    +0.079 A 
ATOM      5  C   UNL     1       9.356   2.579  -1.012  0.00  0.00    +0.065 A 
ATOM      6  C   UNL     1      10.544   3.253  -0.734  0.00  0.00    +0.015 A 
ATOM      7  C   UNL     1       8.906   2.337  -2.390  0.00  0.00    +0.263 A 
ATOM      8  O   UNL     1       9.559   2.718  -3.344  0.00  0.00    -0.267 OA
ATOM      9  N   UNL     1       7.741   1.669  -2.558  0.00  0.00    -0.284 N 
ATOM     10  C   UNL     1       7.019   1.253  -1.476  0.00  0.00    +0.173 A 
ATOM     11  N   UNL     1       7.402   1.458  -0.240  0.00  0.00    -0.223 NA
ENDROOT
BRANCH   9  12
ATOM     12  C   UNL     1       7.248   1.395  -3.910  0.00  0.00    +0.093 C 
ATOM     13  C   UNL     1       8.294   0.582  -4.700  0.00  0.00    +0.025 C 
ATOM     14  C   UNL     1       8.204   1.145  -6.141  0.00  0.00    +0.002 C 
ATOM     15  C   UNL     1       7.979   2.659  -5.903  0.00  0.00    +0.002 C 
ATOM     16  C   UNL     1       7.047   2.715  -4.675  0.00  0.00    +0.025 C 
ENDBRANCH   9  12
BRANCH  10  17
ATOM     17  S   UNL     1       5.506   0.394  -1.755  0.00  0.00    -0.083 S 
BRANCH  17  18
ATOM     18  C   UNL     1       4.998   0.087  -0.045  0.00  0.00    +0.113 C 
BRANCH  18  19
ATOM     19  C   UNL     1       3.689  -0.659  -0.036  0.00  0.00    -0.020 A 
ATOM     20  C   UNL     1       3.659  -2.017  -0.043  0.00  0.00    +0.097 A 
ATOM     21  C   UNL     1       2.421  -2.691  -0.035  0.00  0.00    +0.338 A 
ATOM     22  O   UNL     1       2.409  -3.909  -0.040  0.00  0.00    -0.245 OA
ATOM     23  O   UNL     1       1.256  -2.026  -0.020  0.00  0.00    -0.422 OA
ATOM     24  C   UNL     1       1.214  -0.676  -0.013  0.00  0.00    +0.143 A 
ATOM     25  C   UNL     1       2.413   0.061  -0.021  0.00  0.00    +0.022 A 
ATOM     26  C   UNL     1       2.376   1.460  -0.012  0.00  0.00    +0.015 A 
ATOM     27  C   UNL     1       1.173   2.106   0.002  0.00  0.00    +0.046 A 
ATOM     28  C   UNL     1      -0.017   1.381   0.010  0.00  0.00    +0.120 A 
ATOM     29  C   UNL     1       0.002  -0.004   0.002  0.00  0.00    +0.092 A 
BRANCH  28  30
ATOM     30  O   UNL     1      -1.204   2.038   0.019  0.00  0.00    -0.507 OA
ATOM     31  H   UNL     1      -2.147   1.471   0.025  0.00  0.00    +0.292 HD
ENDBRANCH  28  30
ENDBRANCH  18  19
ENDBRANCH  17  18
ENDBRANCH  10  17
TORSDOF 5
