REMARK  Name = ZINC05249858
REMARK  4 active torsions:
REMARK  status: ('A' for Active; 'I' for Inactive)
REMARK    1  A    between atoms: C_1  and  C_2
REMARK    2  A    between atoms: C_2  and  C_25
REMARK    3  A    between atoms: C_10  and  C_15
REMARK    4  A    between atoms: C_16  and  C_17
REMARK                            x       y       z     vdW  Elec       q    Type
REMARK                         _______ _______ _______ _____ _____    ______ ____
ROOT
ATOM      1  C   UNL     1      -6.646   0.019   1.696  0.00  0.00    +0.020 C 
ATOM      2  C   UNL     1      -5.849   1.242   1.238  0.00  0.00    +0.034 C 
ATOM      3  C   UNL     1      -6.777   2.312   0.650  0.00  0.00    -0.017 A 
ATOM      4  C   UNL     1      -7.595   3.243   1.256  0.00  0.00    +0.006 A 
ATOM      5  C   UNL     1      -8.333   4.122   0.485  0.00  0.00    +0.000 A 
ATOM      6  C   UNL     1      -8.250   4.067  -0.894  0.00  0.00    +0.002 A 
ATOM      7  C   UNL     1      -7.437   3.135  -1.505  0.00  0.00    +0.023 A 
ATOM      8  C   UNL     1      -6.692   2.242  -0.735  0.00  0.00    +0.036 A 
ATOM      9  N   UNL     1      -5.819   1.223  -1.135  0.00  0.00    -0.296 N 
ATOM     10  C   UNL     1      -4.954   0.891   0.029  0.00  0.00    +0.131 C 
ATOM     11  N   UNL     1      -4.747  -0.560  -0.018  0.00  0.00    -0.289 N 
ATOM     12  C   UNL     1      -5.670  -1.126  -0.821  0.00  0.00    +0.232 C 
ATOM     13  O   UNL     1      -5.768  -2.310  -1.064  0.00  0.00    -0.274 OA
ATOM     14  C   UNL     1      -6.564  -0.036  -1.369  0.00  0.00    +0.203 C 
ATOM     15  C   UNL     1      -5.011   1.805   2.388  0.00  0.00    +0.020 C 
ATOM     16  H   UNL     1      -4.052  -1.041   0.457  0.00  0.00    +0.151 HD
ENDROOT
BRANCH  10  17
ATOM     17  C   UNL     1      -3.656   1.657   0.028  0.00  0.00    +0.020 C 
ATOM     18  C   UNL     1      -2.502   1.006   0.019  0.00  0.00    +0.007 C 
BRANCH  18  19
ATOM     19  C   UNL     1      -1.229   1.758   0.017  0.00  0.00    -0.024 A 
ATOM     20  C   UNL     1      -1.240   3.154   0.031  0.00  0.00    +0.009 A 
ATOM     21  C   UNL     1      -0.050   3.851   0.024  0.00  0.00    +0.022 A 
ATOM     22  C   UNL     1       1.155   3.169   0.008  0.00  0.00    +0.059 A 
ATOM     23  C   UNL     1       1.173   1.784   0.000  0.00  0.00    +0.060 A 
ATOM     24  C   UNL     1      -0.013   1.076   0.008  0.00  0.00    +0.029 A 
ATOM     25 CL   UNL     1       2.688   0.937  -0.018  0.00  0.00    -0.082 Cl
ATOM     26 CL   UNL     1       2.649   4.054  -0.001  0.00  0.00    -0.082 Cl
ENDBRANCH  18  19
ENDBRANCH  10  17
TORSDOF 2
