REMARK  Name = ZINC08872368
REMARK  7 active torsions:
REMARK  status: ('A' for Active; 'I' for Inactive)
REMARK    1  A    between atoms: C_1  and  C_2
REMARK    2  A    between atoms: C_2  and  O_3
REMARK    3  A    between atoms: O_3  and  C_4
REMARK    4  A    between atoms: C_9  and  C_10
REMARK    5  A    between atoms: N_11  and  N_12
REMARK    6  A    between atoms: N_19  and  C_20
REMARK    7  A    between atoms: N_26  and  C_27
REMARK                            x       y       z     vdW  Elec       q    Type
REMARK                         _______ _______ _______ _____ _____    ______ ____
ROOT
ATOM      1  N   UNL     1       2.909   0.338  -3.723  0.00  0.00    -0.205 N 
ATOM      2  C   UNL     1       3.126   1.693  -3.567  0.00  0.00    +0.241 A 
ATOM      3  N   UNL     1       2.316   2.411  -2.794  0.00  0.00    -0.179 NA
ATOM      4  C   UNL     1       2.525   3.715  -2.644  0.00  0.00    +0.225 A 
ATOM      5  N   UNL     1       3.543   4.301  -3.266  0.00  0.00    -0.181 NA
ATOM      6  C   UNL     1       4.353   3.583  -4.039  0.00  0.00    +0.225 A 
ATOM      7  N   UNL     1       4.147   2.278  -4.185  0.00  0.00    -0.179 NA
ATOM      8  N   UNL     1       5.411   4.193  -4.685  0.00  0.00    -0.283 N 
ATOM      9  N   UNL     1       1.684   4.461  -1.842  0.00  0.00    -0.283 N 
ATOM     10  H   UNL     1       3.547  -0.202  -4.215  0.00  0.00    +0.177 HD
ATOM     11  H   UNL     1       5.613   5.125  -4.512  0.00  0.00    +0.155 HD
ATOM     12  H   UNL     1       1.002   4.020  -1.311  0.00  0.00    +0.155 HD
ENDROOT
BRANCH   8  13
ATOM     13  C   UNL     1       6.191   3.465  -5.588  0.00  0.00    +0.034 A 
ATOM     14  C   UNL     1       5.614   2.461  -6.356  0.00  0.00    +0.023 A 
ATOM     15  C   UNL     1       6.387   1.744  -7.247  0.00  0.00    +0.002 A 
ATOM     16  C   UNL     1       7.735   2.024  -7.377  0.00  0.00    +0.000 A 
ATOM     17  C   UNL     1       8.313   3.023  -6.614  0.00  0.00    +0.002 A 
ATOM     18  C   UNL     1       7.544   3.747  -5.725  0.00  0.00    +0.023 A 
ENDBRANCH   8  13
BRANCH   9  19
ATOM     19  C   UNL     1       1.815   5.853  -1.794  0.00  0.00    +0.034 A 
ATOM     20  C   UNL     1       2.201   6.554  -2.929  0.00  0.00    +0.023 A 
ATOM     21  C   UNL     1       2.330   7.929  -2.879  0.00  0.00    +0.002 A 
ATOM     22  C   UNL     1       2.074   8.606  -1.700  0.00  0.00    +0.000 A 
ATOM     23  C   UNL     1       1.690   7.910  -0.569  0.00  0.00    +0.002 A 
ATOM     24  C   UNL     1       1.554   6.537  -0.614  0.00  0.00    +0.023 A 
ENDBRANCH   9  19
BRANCH   1  26
ATOM     25  C   UNL     1       1.611  -1.544  -3.233  0.00  0.00    +0.142 C 
ATOM     26  N   UNL     1       1.766  -0.257  -3.172  0.00  0.00    -0.187 NA
BRANCH  25  32
ATOM     27  C   UNL     1      -0.621  -1.373  -2.136  0.00  0.00    +0.129 A 
ATOM     28  C   UNL     1      -1.799  -1.959  -1.702  0.00  0.00    +0.046 A 
ATOM     29  C   UNL     1      -2.005  -3.314  -1.880  0.00  0.00    +0.004 A 
ATOM     30  C   UNL     1      -1.040  -4.095  -2.492  0.00  0.00    +0.001 A 
ATOM     31  C   UNL     1       0.139  -3.527  -2.930  0.00  0.00    +0.013 A 
ATOM     32  C   UNL     1       0.357  -2.158  -2.761  0.00  0.00    +0.036 A 
BRANCH  27  33
ATOM     33  O   UNL     1      -0.417  -0.041  -1.962  0.00  0.00    -0.492 OA
BRANCH  33  35
ATOM     34  C   UNL     1      -1.049   2.163  -1.199  0.00  0.00    +0.048 C 
ATOM     35  C   UNL     1      -1.416   0.679  -1.237  0.00  0.00    +0.226 C 
ENDBRANCH  33  35
ENDBRANCH  27  33
ENDBRANCH  25  32
ENDBRANCH   1  26
TORSDOF 6
