REMARK  Name = ZINC63577444
REMARK  11 active torsions:
REMARK  status: ('A' for Active; 'I' for Inactive)
REMARK    1  A    between atoms: C_1  and  C_2
REMARK    2  A    between atoms: C_4  and  O_28
REMARK    3  A    between atoms: C_5  and  S_10
REMARK    4  A    between atoms: C_7  and  O_8
REMARK    5  A    between atoms: O_8  and  C_9
REMARK    6  A    between atoms: S_10  and  N_13
REMARK    7  A    between atoms: N_13  and  C_14
REMARK    8  A    between atoms: C_14  and  C_15
REMARK    9  A    between atoms: C_15  and  C_16
REMARK   10  A    between atoms: C_24  and  C_26
REMARK   11  A    between atoms: O_28  and  C_29
REMARK                            x       y       z     vdW  Elec       q    Type
REMARK                         _______ _______ _______ _____ _____    ______ ____
ROOT
ATOM      1  N   UNL     1      -1.112  -5.212  -0.838  0.00  0.00    -0.190 NA
ATOM      2  H   UNL     1      -1.810  -5.635  -0.313  0.00  0.00    +0.148 HD
ENDROOT
BRANCH   1   3
ATOM      3  S   UNL     1       0.234  -4.605  -0.090  0.00  0.00    +0.062 S 
ATOM      4  O   UNL     1       1.356  -5.094  -0.812  0.00  0.00    -0.153 OA
ATOM      5  O   UNL     1       0.065  -4.835   1.302  0.00  0.00    -0.153 OA
BRANCH   3  10
ATOM      6  C   UNL     1       0.161   1.384  -0.874  0.00  0.00    +0.047 C 
ATOM      7  C   UNL     1       0.180  -0.110  -0.680  0.00  0.00    -0.005 A 
ATOM      8  C   UNL     1       0.441  -0.943  -1.751  0.00  0.00    +0.054 A 
ATOM      9  C   UNL     1       0.459  -2.318  -1.572  0.00  0.00    +0.147 A 
ATOM     10  C   UNL     1       0.213  -2.857  -0.317  0.00  0.00    +0.150 A 
ATOM     11  C   UNL     1      -0.048  -2.025   0.753  0.00  0.00    +0.078 A 
ATOM     12  C   UNL     1      -0.060  -0.649   0.575  0.00  0.00    +0.125 A 
BRANCH  12  13
ATOM     13  O   UNL     1      -0.312   0.171   1.630  0.00  0.00    -0.495 OA
ATOM     14  C   UNL     1      -0.551  -0.453   2.894  0.00  0.00    +0.277 C 
ENDBRANCH  12  13
BRANCH   9  15
ATOM     15  O   UNL     1       0.716  -3.138  -2.626  0.00  0.00    -0.493 OA
ATOM     16  C   UNL     1       0.913  -2.517  -3.897  0.00  0.00    +0.277 C 
ENDBRANCH   9  15
ENDBRANCH   3  10
ENDBRANCH   1   3
BRANCH   1  17
ATOM     17  C   UNL     1      -1.250  -5.111  -2.293  0.00  0.00    +0.110 C 
BRANCH  17  18
ATOM     18  C   UNL     1      -2.074  -3.870  -2.642  0.00  0.00    +0.050 C 
BRANCH  18  19
ATOM     19  C   UNL     1      -2.255  -3.791  -4.136  0.00  0.00    -0.037 C 
ATOM     20  C   UNL     1      -1.754  -4.641  -5.062  0.00  0.00    +0.001 A 
ATOM     21  C   UNL     1      -0.923  -5.846  -4.962  0.00  0.00    +0.010 A 
ATOM     22  C   UNL     1      -0.568  -6.505  -6.086  0.00  0.00    +0.002 A 
ATOM     23  C   UNL     1      -0.965  -6.082  -7.361  0.00  0.00    +0.022 A 
ATOM     24  C   UNL     1      -1.731  -4.985  -7.560  0.00  0.00    +0.064 A 
ATOM     25  C   UNL     1      -2.175  -4.192  -6.409  0.00  0.00    +0.062 A 
ATOM     26  N   UNL     1      -2.907  -3.110  -6.320  0.00  0.00    -0.377 N 
ATOM     27  C   UNL     1      -3.039  -2.750  -4.903  0.00  0.00    +0.103 C 
ATOM     28  C   UNL     1      -2.450  -1.359  -4.658  0.00  0.00    +0.035 C 
ATOM     29 CL   UNL     1      -2.185  -4.519  -9.169  0.00  0.00    -0.081 Cl
ATOM     30  H   UNL     1      -3.299  -2.628  -7.065  0.00  0.00    +0.160 HD
ENDBRANCH  18  19
ENDBRANCH  17  18
ENDBRANCH   1  17
TORSDOF 7
