REMARK  Name = ZINC66956145
REMARK  10 active torsions:
REMARK  status: ('A' for Active; 'I' for Inactive)
REMARK    1  A    between atoms: C_1  and  C_2
REMARK    2  A    between atoms: C_2  and  C_3
REMARK    3  A    between atoms: C_3  and  C_5
REMARK    4  A    between atoms: C_3  and  N_10
REMARK    5  A    between atoms: N_13  and  C_14
REMARK    6  A    between atoms: C_19  and  S_20
REMARK    7  A    between atoms: S_20  and  C_21
REMARK    8  A    between atoms: C_21  and  C_23
REMARK    9  A    between atoms: C_21  and  C_24
REMARK   10  A    between atoms: C_24  and  C_25
REMARK                            x       y       z     vdW  Elec       q    Type
REMARK                         _______ _______ _______ _____ _____    ______ ____
ROOT
ATOM      1  N   UNL     1      -0.072   0.106  -2.219  0.00  0.00    -0.292 N 
ATOM      2  C   UNL     1       0.120   1.256  -2.895  0.00  0.00    +0.304 C 
ATOM      3  O   UNL     1       0.952   2.056  -2.512  0.00  0.00    -0.252 OA
ATOM      4  N   UNL     1      -0.611   1.520  -3.996  0.00  0.00    -0.268 N 
ATOM      5  H   UNL     1      -0.736  -0.531  -2.525  0.00  0.00    +0.151 HD
ATOM      6  H   UNL     1      -1.221   0.852  -4.345  0.00  0.00    +0.156 HD
ENDROOT
BRANCH   4   7
ATOM      7  C   UNL     1      -0.488   2.761  -4.638  0.00  0.00    +0.048 A 
ATOM      8  C   UNL     1       0.735   3.413  -4.663  0.00  0.00    +0.024 A 
ATOM      9  C   UNL     1       0.853   4.636  -5.296  0.00  0.00    +0.002 A 
ATOM     10  C   UNL     1      -0.246   5.214  -5.905  0.00  0.00    +0.001 A 
ATOM     11  C   UNL     1      -1.470   4.571  -5.885  0.00  0.00    +0.016 A 
ATOM     12  C   UNL     1      -1.596   3.340  -5.257  0.00  0.00    +0.029 A 
BRANCH  12  13
ATOM     13  S   UNL     1      -3.153   2.515  -5.236  0.00  0.00    -0.119 S 
BRANCH  13  14
ATOM     14  C   UNL     1      -4.251   3.626  -6.157  0.00  0.00    +0.062 C 
ATOM     15  C   UNL     1      -4.583   4.845  -5.294  0.00  0.00    +0.020 C 
BRANCH  14  16
ATOM     16  C   UNL     1      -5.542   2.887  -6.514  0.00  0.00    +0.132 C 
BRANCH  16  17
ATOM     17  C   UNL     1      -5.237   1.785  -7.441  0.00  0.00    +0.064 C 
ATOM     18  N   UNL     1      -5.001   0.935  -8.157  0.00  0.00    -0.197 NA
ENDBRANCH  16  17
ENDBRANCH  14  16
ENDBRANCH  13  14
ENDBRANCH  12  13
ENDBRANCH   4   7
BRANCH   1  19
ATOM     19  C   UNL     1       0.723  -0.180  -1.022  0.00  0.00    +0.111 C 
BRANCH  19  20
ATOM     20  C   UNL     1       0.796  -1.671  -0.813  0.00  0.00    +0.010 A 
ATOM     21  C   UNL     1       1.846  -2.426  -0.408  0.00  0.00    +0.013 A 
ATOM     22  C   UNL     1       1.681  -3.792  -0.283  0.00  0.00    +0.008 A 
ATOM     23  C   UNL     1       0.474  -4.338  -0.571  0.00  0.00    +0.045 A 
ATOM     24  S   UNL     1      -0.481  -2.900  -1.027  0.00  0.00    -0.100 S 
ENDBRANCH  19  20
BRANCH  19  26
ATOM     25  C   UNL     1       0.104   1.995   0.039  0.00  0.00    +0.006 C 
ATOM     26  C   UNL     1       0.065   0.474   0.195  0.00  0.00    +0.024 C 
ENDBRANCH  19  26
ENDBRANCH   1  19
TORSDOF 8
