REMARK  Name = ZINC03092471
REMARK  6 active torsions:
REMARK  status: ('A' for Active; 'I' for Inactive)
REMARK    1  A    between atoms: C_6  and  N_11
REMARK    2  A    between atoms: N_11  and  C_12
REMARK    3  A    between atoms: C_12  and  C_13
REMARK    4  A    between atoms: N_15  and  N_16
REMARK    5  A    between atoms: C_17  and  C_18
REMARK    6  A    between atoms: C_21  and  C_23
REMARK                            x       y       z     vdW  Elec       q    Type
REMARK                         _______ _______ _______ _____ _____    ______ ____
ROOT
ATOM      1  C   UNL     1      -0.742   1.585  -1.213  0.00  0.00    +0.249 C 
ATOM      2  O   UNL     1      -1.736   2.268  -1.088  0.00  0.00    -0.272 OA
ATOM      3  N   UNL     1      -0.288   1.272  -2.443  0.00  0.00    -0.206 N 
ATOM      4  H   UNL     1       0.614   0.653  -2.556  0.00  0.00    +0.177 HD
ENDROOT
BRANCH   3   5
ATOM      5  N   UNL     1      -0.966   1.736  -3.578  0.00  0.00    -0.185 NA
ATOM      6  C   UNL     1      -0.528   1.434  -4.766  0.00  0.00    +0.176 C 
BRANCH   6   7
ATOM      7  C   UNL     1      -1.237   1.919  -5.952  0.00  0.00    +0.148 A 
ATOM      8  C   UNL     1      -0.880   1.680  -7.261  0.00  0.00    +0.051 A 
ATOM      9  C   UNL     1      -1.830   2.325  -8.064  0.00  0.00    +0.050 A 
ATOM     10  C   UNL     1      -2.716   2.935  -7.225  0.00  0.00    +0.136 A 
ATOM     11  O   UNL     1      -2.348   2.683  -5.954  0.00  0.00    -0.454 OA
BRANCH  10  12
ATOM     12  C   UNL     1      -3.883   3.738  -7.640  0.00  0.00    +0.017 A 
ATOM     13  C   UNL     1      -4.154   3.930  -8.997  0.00  0.00    +0.012 A 
ATOM     14  C   UNL     1      -5.249   4.677  -9.378  0.00  0.00    +0.016 A 
ATOM     15  C   UNL     1      -6.072   5.244  -8.420  0.00  0.00    +0.018 A 
ATOM     16  C   UNL     1      -5.806   5.061  -7.073  0.00  0.00    +0.016 A 
ATOM     17  C   UNL     1      -4.717   4.312  -6.678  0.00  0.00    +0.012 A 
ATOM     18 BR   UNL     1      -7.567   6.273  -8.952  0.00  0.00    -0.050 Br
ENDBRANCH  10  12
ENDBRANCH   6   7
ENDBRANCH   3   5
BRANCH   1  19
ATOM     19  C   UNL     1      -0.013   1.086   0.008  0.00  0.00    +0.199 C 
BRANCH  19  20
ATOM     20  N   UNL     1      -0.698   1.558   1.213  0.00  0.00    -0.335 N 
ATOM     21  H   UNL     1      -1.602   2.179   1.124  0.00  0.00    +0.147 HD
BRANCH  20  27
ATOM     22  C   UNL     1       0.665   0.627   7.353  0.00  0.00    +0.001 A 
ATOM     23  C   UNL     1      -0.481   1.415   7.258  0.00  0.00    +0.001 A 
ATOM     24  C   UNL     1      -0.991   1.764   6.046  0.00  0.00    +0.008 A 
ATOM     25  C   UNL     1      -0.356   1.327   4.871  0.00  0.00    -0.016 A 
ATOM     26  C   UNL     1      -0.855   1.669   3.604  0.00  0.00    +0.031 A 
ATOM     27  C   UNL     1      -0.205   1.221   2.475  0.00  0.00    +0.028 A 
ATOM     28  C   UNL     1       0.943   0.425   2.580  0.00  0.00    +0.023 A 
ATOM     29  C   UNL     1       1.449   0.086   3.795  0.00  0.00    +0.010 A 
ATOM     30  C   UNL     1       0.810   0.526   4.968  0.00  0.00    -0.018 A 
ATOM     31  C   UNL     1       1.307   0.186   6.237  0.00  0.00    +0.008 A 
ENDBRANCH  20  27
ENDBRANCH  19  20
ENDBRANCH   1  19
TORSDOF 6
