REMARK  Name = ZINC26608024
REMARK  11 active torsions:
REMARK  status: ('A' for Active; 'I' for Inactive)
REMARK    1  A    between atoms: C_1  and  C_2
REMARK    2  A    between atoms: C_2  and  C_3
REMARK    3  A    between atoms: C_2  and  C_4
REMARK    4  A    between atoms: C_2  and  C_5
REMARK    5  A    between atoms: C_8  and  C_11
REMARK    6  A    between atoms: N_12  and  N_13
REMARK    7  A    between atoms: C_14  and  C_16
REMARK    8  A    between atoms: C_23  and  C_27
REMARK    9  A    between atoms: C_27  and  C_28
REMARK   10  A    between atoms: C_27  and  C_29
REMARK   11  A    between atoms: C_27  and  C_30
REMARK                            x       y       z     vdW  Elec       q    Type
REMARK                         _______ _______ _______ _____ _____    ______ ____
ROOT
ATOM      1  N   UNL     1      -0.976   6.386   0.369  0.00  0.00    -0.204 N 
ATOM      2  C   UNL     1       0.024   5.556   0.009  0.00  0.00    +0.276 C 
ATOM      3  O   UNL     1       0.968   5.982  -0.622  0.00  0.00    -0.270 OA
ATOM      4  H   UNL     1      -1.832   6.000   0.941  0.00  0.00    +0.177 HD
ENDROOT
BRANCH   2   5
ATOM      5  C   UNL     1      -0.033   4.099   0.389  0.00  0.00    +0.297 C 
ATOM      6  C   UNL     1      -1.196   3.417  -0.344  0.00  0.00    +0.283 C 
ATOM      7  O   UNL     1      -1.211   2.035   0.030  0.00  0.00    -0.484 OA
ATOM      8  C   UNL     1      -0.017   1.383   0.010  0.00  0.00    +0.162 A 
ATOM      9  C   UNL     1       0.002  -0.004   0.002  0.00  0.00    +0.050 A 
ATOM     10  C   UNL     1       1.207  -0.680  -0.011  0.00  0.00    +0.008 A 
ATOM     11  C   UNL     1       2.397   0.024  -0.016  0.00  0.00    -0.038 A 
ATOM     12  C   UNL     1       2.386   1.406  -0.009  0.00  0.00    +0.053 A 
ATOM     13  C   UNL     1       1.179   2.090   0.002  0.00  0.00    +0.163 A 
ATOM     14  O   UNL     1       1.184   3.451   0.001  0.00  0.00    -0.472 OA
BRANCH  11  15
ATOM     15  C   UNL     1       3.709  -0.717  -0.029  0.00  0.00    -0.013 C 
ATOM     16  C   UNL     1       3.444  -2.224  -0.034  0.00  0.00    +0.015 C 
ATOM     17  C   UNL     1       4.499  -0.335  -1.282  0.00  0.00    +0.015 C 
ATOM     18  C   UNL     1       4.517  -0.346   1.217  0.00  0.00    +0.015 C 
ENDBRANCH  11  15
ENDBRANCH   2   5
BRANCH   1  20
ATOM     19  C   UNL     1      -1.885   8.539   0.362  0.00  0.00    +0.138 C 
ATOM     20  N   UNL     1      -0.923   7.740   0.015  0.00  0.00    -0.188 NA
BRANCH  19  24
ATOM     21  C   UNL     1      -1.726  12.643  -0.709  0.00  0.00    -0.042 A 
ATOM     22  C   UNL     1      -2.805  12.161   0.010  0.00  0.00    +0.005 A 
ATOM     23  C   UNL     1      -2.864  10.828   0.362  0.00  0.00    +0.010 A 
ATOM     24  C   UNL     1      -1.830   9.965  -0.010  0.00  0.00    -0.005 A 
ATOM     25  C   UNL     1      -0.741  10.460  -0.732  0.00  0.00    +0.010 A 
ATOM     26  C   UNL     1      -0.698  11.794  -1.080  0.00  0.00    +0.005 A 
BRANCH  21  28
ATOM     27  C   UNL     1      -1.685  14.958   0.179  0.00  0.00    +0.015 C 
ATOM     28  C   UNL     1      -1.669  14.101  -1.088  0.00  0.00    -0.013 C 
ATOM     29  C   UNL     1      -0.384  14.374  -1.872  0.00  0.00    +0.015 C 
ATOM     30  C   UNL     1      -2.880  14.449  -1.956  0.00  0.00    +0.015 C 
ENDBRANCH  21  28
ENDBRANCH  19  24
ENDBRANCH   1  20
TORSDOF 5
