REMARK  Name = ZINC39426642
REMARK  12 active torsions:
REMARK  status: ('A' for Active; 'I' for Inactive)
REMARK    1  A    between atoms: C_1  and  C_2
REMARK    2  A    between atoms: C_2  and  C_4
REMARK    3  A    between atoms: C_2  and  S_16
REMARK    4  A    between atoms: N_6  and  C_7
REMARK    5  A    between atoms: C_10  and  C_13
REMARK    6  A    between atoms: C_13  and  C_15
REMARK    7  A    between atoms: S_16  and  C_17
REMARK    8  A    between atoms: C_20  and  C_21
REMARK    9  A    between atoms: C_24  and  N_27
REMARK   10  A    between atoms: N_27  and  C_28
REMARK   11  A    between atoms: N_27  and  C_29
REMARK   12  A    between atoms: N_32  and  C_33
REMARK                            x       y       z     vdW  Elec       q    Type
REMARK                         _______ _______ _______ _____ _____    ______ ____
ROOT
ATOM      1  C   UNL     1      -2.728   0.614   1.448  0.00  0.00    +0.169 C 
ATOM      2  N   UNL     1      -2.028   1.119   2.429  0.00  0.00    -0.220 NA
ATOM      3  C   UNL     1      -2.856   1.378   3.486  0.00  0.00    +0.129 C 
ATOM      4  C   UNL     1      -2.503   1.912   4.704  0.00  0.00    +0.041 C 
ATOM      5  C   UNL     1      -4.204   0.968   3.053  0.00  0.00    +0.275 C 
ATOM      6  O   UNL     1      -5.235   1.030   3.697  0.00  0.00    -0.268 OA
ATOM      7  N   UNL     1      -4.055   0.513   1.790  0.00  0.00    -0.214 N 
ENDROOT
BRANCH   4   8
ATOM      8  C   UNL     1      -3.482   1.965   5.792  0.00  0.00    -0.023 A 
ATOM      9  C   UNL     1      -3.502   3.060   6.668  0.00  0.00    +0.010 A 
ATOM     10  C   UNL     1      -4.418   3.104   7.681  0.00  0.00    +0.023 A 
ATOM     11  C   UNL     1      -5.330   2.065   7.844  0.00  0.00    +0.029 A 
ATOM     12  C   UNL     1      -5.314   0.975   6.978  0.00  0.00    +0.023 A 
ATOM     13  C   UNL     1      -4.406   0.924   5.958  0.00  0.00    +0.010 A 
BRANCH  11  14
ATOM     14  N   UNL     1      -6.261   2.116   8.878  0.00  0.00    -0.336 N 
ATOM     15  C   UNL     1      -6.365   3.316   9.712  0.00  0.00    +0.129 C 
ATOM     16  C   UNL     1      -7.136   0.969   9.132  0.00  0.00    +0.129 C 
ENDBRANCH  11  14
ENDBRANCH   4   8
BRANCH   7  17
ATOM     17  C   UNL     1      -5.079   0.018   0.970  0.00  0.00    +0.044 A 
ATOM     18  C   UNL     1      -5.083  -1.318   0.593  0.00  0.00    +0.024 A 
ATOM     19  C   UNL     1      -6.093  -1.802  -0.215  0.00  0.00    +0.002 A 
ATOM     20  C   UNL     1      -7.099  -0.958  -0.649  0.00  0.00    +0.000 A 
ATOM     21  C   UNL     1      -7.097   0.373  -0.275  0.00  0.00    +0.002 A 
ATOM     22  C   UNL     1      -6.093   0.862   0.538  0.00  0.00    +0.024 A 
ENDBRANCH   7  17
BRANCH   1  23
ATOM     23  S   UNL     1      -2.060   0.134  -0.111  0.00  0.00    -0.077 S 
BRANCH  23  25
ATOM     24  C   UNL     1      -0.093   2.011   0.187  0.00  0.00    +0.029 C 
ATOM     25  C   UNL     1      -0.290   0.501   0.038  0.00  0.00    +0.137 C 
BRANCH  25  26
ATOM     26  C   UNL     1       0.428   0.019  -1.196  0.00  0.00    +0.230 C 
ATOM     27  O   UNL     1      -0.173  -0.091  -2.243  0.00  0.00    -0.274 OA
ATOM     28  N   UNL     1       1.739  -0.288  -1.135  0.00  0.00    -0.285 N 
ATOM     29  H   UNL     1       2.235  -0.140  -0.315  0.00  0.00    +0.155 HD
BRANCH  28  30
ATOM     30  C   UNL     1       2.383  -0.817  -2.252  0.00  0.00    +0.033 A 
ATOM     31  C   UNL     1       3.378  -1.776  -2.089  0.00  0.00    +0.024 A 
ATOM     32  C   UNL     1       4.014  -2.301  -3.185  0.00  0.00    +0.013 A 
ATOM     33  C   UNL     1       3.660  -1.870  -4.470  0.00  0.00    +0.017 A 
ATOM     34  C   UNL     1       2.658  -0.904  -4.628  0.00  0.00    +0.013 A 
ATOM     35  C   UNL     1       2.024  -0.390  -3.527  0.00  0.00    +0.024 A 
BRANCH  33  36
ATOM     36  C   UNL     1       4.338  -2.428  -5.646  0.00  0.00    +0.160 C 
ATOM     37  O   UNL     1       5.206  -3.264  -5.506  0.00  0.00    -0.292 OA
ATOM     38  C   UNL     1       3.956  -1.963  -7.028  0.00  0.00    +0.091 C 
ENDBRANCH  33  36
ENDBRANCH  28  30
ENDBRANCH  25  26
ENDBRANCH  23  25
ENDBRANCH   1  23
TORSDOF 8
