REMARK  Name = ZINC49469088
REMARK  8 active torsions:
REMARK  status: ('A' for Active; 'I' for Inactive)
REMARK    1  A    between atoms: C_1  and  C_2
REMARK    2  A    between atoms: C_3  and  C_12
REMARK    3  A    between atoms: C_5  and  C_7
REMARK    4  A    between atoms: N_17  and  C_19
REMARK    5  A    between atoms: C_19  and  C_20
REMARK    6  A    between atoms: C_20  and  N_21
REMARK    7  A    between atoms: C_22  and  C_24
REMARK    8  A    between atoms: C_26  and  C_36
REMARK                            x       y       z     vdW  Elec       q    Type
REMARK                         _______ _______ _______ _____ _____    ______ ____
ROOT
ATOM      1  C   UNL     1       0.369  -0.059  -4.441  0.00  0.00    +0.100 A 
ATOM      2  C   UNL     1       0.247  -0.744  -5.676  0.00  0.00    +0.036 A 
ATOM      3  C   UNL     1       0.075  -0.006  -6.808  0.00  0.00    +0.074 A 
ATOM      4  C   UNL     1       0.027   1.401  -6.681  0.00  0.00    +0.267 A 
ATOM      5  O   UNL     1      -0.126   2.102  -7.668  0.00  0.00    -0.266 OA
ATOM      6  N   UNL     1       0.152   1.962  -5.464  0.00  0.00    -0.227 N 
ATOM      7  N   UNL     1       0.309   1.254  -4.404  0.00  0.00    -0.168 NA
ENDROOT
BRANCH   1  10
ATOM      8  C   UNL     1       0.653   1.105  -1.605  0.00  0.00    +0.067 C 
ATOM      9  C   UNL     1       0.690  -0.373  -1.900  0.00  0.00    +0.055 A 
ATOM     10  C   UNL     1       0.556  -0.823  -3.191  0.00  0.00    +0.062 A 
ATOM     11  S   UNL     1       0.672  -2.589  -2.938  0.00  0.00    -0.065 S 
ATOM     12  C   UNL     1       0.883  -2.543  -1.163  0.00  0.00    +0.116 A 
ATOM     13  N   UNL     1       0.854  -1.235  -0.930  0.00  0.00    -0.243 NA
BRANCH  12  14
ATOM     14  C   UNL     1       1.051  -3.655  -0.216  0.00  0.00    +0.044 A 
ATOM     15  C   UNL     1       1.209  -3.614   1.157  0.00  0.00    +0.018 A 
ATOM     16  C   UNL     1       1.349  -4.803   1.835  0.00  0.00    +0.008 A 
ATOM     17  C   UNL     1       1.328  -5.971   1.141  0.00  0.00    +0.046 A 
ATOM     18  S   UNL     1       1.097  -5.410  -0.538  0.00  0.00    -0.095 S 
ENDBRANCH  12  14
ENDBRANCH   1  10
BRANCH   6  19
ATOM     19  C   UNL     1       0.101   3.421  -5.344  0.00  0.00    +0.166 C 
BRANCH  19  20
ATOM     20  C   UNL     1      -1.347   3.866  -5.126  0.00  0.00    +0.127 C 
BRANCH  20  21
ATOM     21  N   UNL     1      -1.397   5.325  -5.006  0.00  0.00    -0.310 N 
ATOM     22  C   UNL     1      -2.578   5.944  -4.809  0.00  0.00    +0.258 C 
ATOM     23  O   UNL     1      -3.607   5.303  -4.814  0.00  0.00    -0.272 OA
ATOM     24  H   UNL     1      -0.581   5.845  -5.069  0.00  0.00    +0.149 HD
BRANCH  22  25
ATOM     25  C   UNL     1      -2.618   7.434  -4.581  0.00  0.00    +0.298 C 
ATOM     26  C   UNL     1      -2.060   7.760  -3.189  0.00  0.00    +0.220 C 
ATOM     27  O   UNL     1      -2.127   9.177  -3.001  0.00  0.00    -0.481 OA
ATOM     28  C   UNL     1      -3.294   9.786  -3.344  0.00  0.00    +0.163 A 
ATOM     29  C   UNL     1      -3.565  11.059  -2.865  0.00  0.00    +0.049 A 
ATOM     30  C   UNL     1      -4.745  11.692  -3.208  0.00  0.00    +0.004 A 
ATOM     31  C   UNL     1      -5.659  11.057  -4.029  0.00  0.00    +0.004 A 
ATOM     32  C   UNL     1      -5.396   9.788  -4.509  0.00  0.00    +0.049 A 
ATOM     33  C   UNL     1      -4.214   9.147  -4.168  0.00  0.00    +0.163 A 
ATOM     34  O   UNL     1      -3.973   7.894  -4.642  0.00  0.00    -0.472 OA
ATOM     35  C   UNL     1      -0.607   7.293  -3.094  0.00  0.00    +0.056 C 
ENDBRANCH  22  25
ENDBRANCH  20  21
ENDBRANCH  19  20
ENDBRANCH   6  19
TORSDOF 6
