REMARK  Name = ZINC09125643
REMARK  9 active torsions:
REMARK  status: ('A' for Active; 'I' for Inactive)
REMARK    1  A    between atoms: C_1  and  C_2
REMARK    2  A    between atoms: C_2  and  C_4
REMARK    3  A    between atoms: C_2  and  N_46
REMARK    4  A    between atoms: C_11  and  C_13
REMARK    5  A    between atoms: C_11  and  C_14
REMARK    6  A    between atoms: C_11  and  N_46
REMARK    7  A    between atoms: N_16  and  C_17
REMARK    8  A    between atoms: C_17  and  C_18
REMARK    9  A    between atoms: N_20  and  C_21
REMARK                            x       y       z     vdW  Elec       q    Type
REMARK                         _______ _______ _______ _____ _____    ______ ____
ROOT
ATOM      1  C   UNL     1       3.874   7.532   0.431  0.00  0.00    +0.199 C 
ATOM      2  O   UNL     1       2.948   8.314   0.472  0.00  0.00    -0.278 OA
ATOM      3  N   UNL     1       3.635   6.210   0.313  0.00  0.00    -0.308 N 
ATOM      4  H   UNL     1       4.376   5.585   0.281  0.00  0.00    +0.149 HD
ENDROOT
BRANCH   1   5
ATOM      5  C   UNL     1       5.292   8.037   0.512  0.00  0.00    +0.014 C 
ATOM      6  C   UNL     1       5.982   7.426   1.734  0.00  0.00    -0.004 C 
BRANCH   5   7
ATOM      7  N   UNL     1       5.276   9.506   0.640  0.00  0.00    +0.391 N 
ATOM      8  H   UNL     1       4.447   9.879   0.162  0.00  0.00    -0.084 HD
ATOM      9  H   UNL     1       5.239   9.759   1.635  0.00  0.00    -0.084 HD
BRANCH   7  11
ATOM     10  C   UNL     1       6.843  11.384   0.763  0.00  0.00    -0.009 C 
ATOM     11  C   UNL     1       6.490  10.086   0.035  0.00  0.00    -0.042 C 
BRANCH  11  12
ATOM     12  C   UNL     1       6.234  10.380  -1.421  0.00  0.00    -0.048 A 
ATOM     13  C   UNL     1       4.956  10.687  -1.850  0.00  0.00    +0.003 A 
ATOM     14  C   UNL     1       4.721  10.957  -3.185  0.00  0.00    +0.000 A 
ATOM     15  C   UNL     1       5.764  10.920  -4.092  0.00  0.00    +0.001 A 
ATOM     16  C   UNL     1       7.042  10.612  -3.664  0.00  0.00    +0.015 A 
ATOM     17  C   UNL     1       7.278  10.347  -2.327  0.00  0.00    +0.019 A 
ATOM     18 BR   UNL     1       9.027   9.934  -1.740  0.00  0.00    -0.050 Br
ENDBRANCH  11  12
ENDBRANCH   7  11
ENDBRANCH   5   7
ENDBRANCH   1   5
BRANCH   3  19
ATOM     19  C   UNL     1       2.257   5.720   0.234  0.00  0.00    +0.200 C 
BRANCH  19  20
ATOM     20  C   UNL     1       2.265   4.218   0.108  0.00  0.00    +0.234 C 
ATOM     21  O   UNL     1       3.319   3.617   0.086  0.00  0.00    -0.274 OA
ATOM     22  N   UNL     1       1.102   3.543   0.019  0.00  0.00    -0.282 N 
ATOM     23  H   UNL     1       0.264   4.027  -0.047  0.00  0.00    +0.155 HD
BRANCH  22  24
ATOM     24  C   UNL     1       1.104   2.141   0.023  0.00  0.00    +0.072 A 
ATOM     25  C   UNL     1       2.153   1.449   0.610  0.00  0.00    +0.029 A 
ATOM     26  C   UNL     1       2.154   0.067   0.613  0.00  0.00    +0.043 A 
ATOM     27  C   UNL     1       1.109  -0.629   0.030  0.00  0.00    +0.161 A 
ATOM     28  C   UNL     1       0.059   0.058  -0.558  0.00  0.00    +0.195 A 
ATOM     29  C   UNL     1       0.054   1.443  -0.563  0.00  0.00    +0.182 A 
ATOM     30  F   UNL     1      -0.966   2.114  -1.141  0.00  0.00    -0.200 F 
ATOM     31  F   UNL     1      -0.960  -0.623  -1.127  0.00  0.00    -0.199 F 
ATOM     32  F   UNL     1       1.113  -1.980   0.034  0.00  0.00    -0.202 F 
ENDBRANCH  22  24
ENDBRANCH  19  20
ENDBRANCH   3  19
TORSDOF 7
