REMARK  Name = ZINC00813418
REMARK  3 active torsions:
REMARK  status: ('A' for Active; 'I' for Inactive)
REMARK    1  A    between atoms: C_1  and  C_2
REMARK    2  A    between atoms: C_11  and  C_14
REMARK    3  A    between atoms: C_15  and  C_20
REMARK                            x       y       z     vdW  Elec       q    Type
REMARK                         _______ _______ _______ _____ _____    ______ ____
ROOT
ATOM      1  C   UNL     1     -10.992   9.647   0.530  0.00  0.00    +0.045 C 
ATOM      2  C   UNL     1     -10.198   8.372   0.407  0.00  0.00    -0.032 A 
ATOM      3  C   UNL     1     -10.843   7.142   0.407  0.00  0.00    +0.008 A 
ATOM      4  C   UNL     1     -10.078   5.996   0.293  0.00  0.00    +0.044 A 
ATOM      5  C   UNL     1      -8.696   6.113   0.182  0.00  0.00    +0.124 A 
ATOM      6  N   UNL     1      -8.118   7.304   0.191  0.00  0.00    -0.240 NA
ATOM      7  C   UNL     1      -8.823   8.415   0.293  0.00  0.00    +0.116 A 
ATOM      8  N   UNL     1      -7.914   4.968   0.067  0.00  0.00    -0.279 N 
ATOM      9  C   UNL     1      -6.531   5.070   0.067  0.00  0.00    +0.164 A 
ATOM     10  N   UNL     1      -5.623   4.111   0.059  0.00  0.00    -0.224 NA
ATOM     11  C   UNL     1      -4.322   4.394   0.065  0.00  0.00    +0.089 A 
ATOM     12  C   UNL     1      -3.923   5.702   0.069  0.00  0.00    +0.077 A 
ATOM     13  S   UNL     1      -5.506   6.534   0.072  0.00  0.00    -0.060 S 
ATOM     14  H   UNL     1      -8.336   4.098  -0.014  0.00  0.00    +0.155 HD
ENDROOT
BRANCH  11  15
ATOM     15  C   UNL     1      -3.320   3.307   0.062  0.00  0.00    +0.062 A 
ATOM     16  C   UNL     1      -3.502   1.951   0.058  0.00  0.00    +0.057 A 
ATOM     17  N   UNL     1      -2.453   1.155   0.056  0.00  0.00    -0.230 NA
ATOM     18  C   UNL     1      -1.222   1.639   0.057  0.00  0.00    +0.156 A 
ATOM     19  S   UNL     1      -1.534   3.399   0.070  0.00  0.00    -0.051 S 
ATOM     20  N   UNL     1      -0.013   0.962   0.055  0.00  0.00    -0.338 N 
ATOM     21  C   UNL     1      -4.893   1.372   0.056  0.00  0.00    +0.067 C 
ATOM     22  H   UNL     1       0.000  -0.008   0.052  0.00  0.00    +0.144 HD
ATOM     23  H   UNL     1       0.821   1.458   0.053  0.00  0.00    +0.144 HD
ENDBRANCH  11  15
TORSDOF 1
