REMARK  Name = ZINC20435434
REMARK  4 active torsions:
REMARK  status: ('A' for Active; 'I' for Inactive)
REMARK    1  A    between atoms: C_7  and  O_11
REMARK    2  A    between atoms: O_11  and  C_12
REMARK    3  A    between atoms: C_15  and  C_18
REMARK    4  A    between atoms: C_18  and  O_19
REMARK                            x       y       z     vdW  Elec       q    Type
REMARK                         _______ _______ _______ _____ _____    ______ ____
ROOT
ATOM      1  C   UNL     1      -3.819   5.364   8.810  0.00  0.00    +0.020 A 
ATOM      2  C   UNL     1      -2.828   6.116   8.247  0.00  0.00    +0.013 A 
ATOM      3  C   UNL     1      -2.271   5.678   7.032  0.00  0.00    +0.022 A 
ATOM      4  C   UNL     1      -1.248   6.400   6.393  0.00  0.00    +0.050 A 
ATOM      5  C   UNL     1      -0.733   5.944   5.216  0.00  0.00    +0.024 A 
ATOM      6  C   UNL     1      -1.206   4.772   4.634  0.00  0.00    +0.050 A 
ATOM      7  C   UNL     1      -2.200   4.044   5.225  0.00  0.00    +0.154 A 
ATOM      8  C   UNL     1      -2.761   4.487   6.441  0.00  0.00    +0.114 A 
ATOM      9  N   UNL     1      -3.729   3.794   7.047  0.00  0.00    -0.251 NA
ATOM     10  C   UNL     1      -4.251   4.199   8.180  0.00  0.00    +0.111 A 
ATOM     11 CL   UNL     1      -0.643   7.865   7.100  0.00  0.00    -0.083 Cl
ENDROOT
BRANCH   7  12
ATOM     12  O   UNL     1      -2.649   2.902   4.642  0.00  0.00    -0.454 OA
BRANCH  12  13
ATOM     13  C   UNL     1      -1.997   2.450   3.539  0.00  0.00    +0.129 A 
ATOM     14  C   UNL     1      -0.697   1.977   3.646  0.00  0.00    +0.046 A 
ATOM     15  C   UNL     1      -0.036   1.517   2.523  0.00  0.00    +0.009 A 
ATOM     16  C   UNL     1      -0.669   1.528   1.294  0.00  0.00    -0.022 A 
ATOM     17  C   UNL     1      -1.963   2.004   1.184  0.00  0.00    +0.009 A 
ATOM     18  C   UNL     1      -2.630   2.460   2.304  0.00  0.00    +0.046 A 
BRANCH  16  19
ATOM     19  C   UNL     1       0.054   1.026   0.070  0.00  0.00    +0.191 C 
BRANCH  19  20
ATOM     20  O   UNL     1      -0.188  -0.374  -0.085  0.00  0.00    -0.390 OA
ATOM     21  H   UNL     1       0.261  -0.919  -0.928  0.00  0.00    +0.210 HD
ENDBRANCH  19  20
ENDBRANCH  16  19
ENDBRANCH  12  13
ENDBRANCH   7  12
TORSDOF 4
