REMARK  Name = ZINC20293861
REMARK  12 active torsions:
REMARK  status: ('A' for Active; 'I' for Inactive)
REMARK    1  A    between atoms: C_1  and  C_2
REMARK    2  A    between atoms: C_3  and  C_31
REMARK    3  A    between atoms: C_4  and  C_30
REMARK    4  A    between atoms: C_5  and  S_10
REMARK    5  A    between atoms: C_6  and  C_9
REMARK    6  A    between atoms: C_7  and  C_8
REMARK    7  A    between atoms: S_10  and  N_13
REMARK    8  A    between atoms: N_13  and  N_14
REMARK    9  A    between atoms: C_15  and  C_16
REMARK   10  A    between atoms: C_21  and  C_22
REMARK   11  A    between atoms: C_25  and  O_28
REMARK   12  A    between atoms: O_28  and  C_29
REMARK                            x       y       z     vdW  Elec       q    Type
REMARK                         _______ _______ _______ _____ _____    ______ ____
ROOT
ATOM      1  N   UNL     1       1.083   6.449   1.006  0.00  0.00    -0.137 N 
ATOM      2  H   UNL     1       2.020   6.200   0.974  0.00  0.00    +0.197 HD
ENDROOT
BRANCH   1   3
ATOM      3  S   UNL     1       0.646   7.964   1.513  0.00  0.00    +0.087 S 
ATOM      4  O   UNL     1       1.829   8.588   1.994  0.00  0.00    -0.149 OA
ATOM      5  O   UNL     1      -0.144   8.527   0.476  0.00  0.00    -0.149 OA
BRANCH   3  10
ATOM      6  C   UNL     1      -2.995   7.271   6.274  0.00  0.00    +0.044 C 
ATOM      7  C   UNL     1      -2.086   7.444   5.085  0.00  0.00    -0.044 A 
ATOM      8  C   UNL     1      -2.582   7.280   3.805  0.00  0.00    -0.043 A 
ATOM      9  C   UNL     1      -1.748   7.438   2.715  0.00  0.00    -0.020 A 
ATOM     10  C   UNL     1      -0.417   7.762   2.904  0.00  0.00    +0.116 A 
ATOM     11  C   UNL     1       0.081   7.921   4.183  0.00  0.00    -0.020 A 
ATOM     12  C   UNL     1      -0.755   7.767   5.274  0.00  0.00    -0.043 A 
ATOM     13  C   UNL     1      -0.214   7.946   6.669  0.00  0.00    +0.044 C 
ATOM     14  C   UNL     1       1.532   8.268   4.389  0.00  0.00    +0.046 C 
ATOM     15  C   UNL     1      -2.289   7.259   1.319  0.00  0.00    +0.046 C 
ATOM     16  C   UNL     1      -4.033   6.928   3.599  0.00  0.00    +0.044 C 
ENDBRANCH   3  10
ENDBRANCH   1   3
BRANCH   1  17
ATOM     17  N   UNL     1       0.099   5.528   0.624  0.00  0.00    -0.174 NA
ATOM     18  C   UNL     1       0.432   4.311   0.322  0.00  0.00    +0.143 C 
BRANCH  18  19
ATOM     19  C   UNL     1      -0.584   3.374  -0.192  0.00  0.00    +0.040 A 
ATOM     20  C   UNL     1      -1.926   3.608  -0.309  0.00  0.00    +0.115 A 
ATOM     21  N   UNL     1      -2.499   2.502  -0.821  0.00  0.00    -0.284 N 
ATOM     22  H   UNL     1      -3.584   2.478  -1.001  0.00  0.00    +0.188 HD
ATOM     23  N   UNL     1      -1.520   1.528  -1.039  0.00  0.00    -0.173 NA
ATOM     24  C   UNL     1      -0.352   2.013  -0.679  0.00  0.00    +0.101 A 
BRANCH  24  25
ATOM     25  C   UNL     1       0.953   1.311  -0.748  0.00  0.00    +0.003 A 
ATOM     26  C   UNL     1       2.072   1.967  -1.257  0.00  0.00    +0.013 A 
ATOM     27  C   UNL     1       3.286   1.314  -1.315  0.00  0.00    +0.046 A 
ATOM     28  C   UNL     1       3.390   0.001  -0.875  0.00  0.00    +0.120 A 
ATOM     29  C   UNL     1       2.276  -0.657  -0.373  0.00  0.00    +0.046 A 
ATOM     30  C   UNL     1       1.061  -0.007  -0.308  0.00  0.00    +0.013 A 
BRANCH  28  31
ATOM     31  O   UNL     1       4.586  -0.642  -0.938  0.00  0.00    -0.495 OA
ATOM     32  C   UNL     1       5.715   0.128  -1.356  0.00  0.00    +0.277 C 
ENDBRANCH  28  31
ENDBRANCH  24  25
ENDBRANCH  18  19
ENDBRANCH   1  17
TORSDOF 6
