REMARK  Name = ZINC53399801
REMARK  9 active torsions:
REMARK  status: ('A' for Active; 'I' for Inactive)
REMARK    1  A    between atoms: C_4  and  C_7
REMARK    2  A    between atoms: C_7  and  C_8
REMARK    3  A    between atoms: C_7  and  O_14
REMARK    4  A    between atoms: O_14  and  C_15
REMARK    5  A    between atoms: C_15  and  C_16
REMARK    6  A    between atoms: C_16  and  C_18
REMARK    7  A    between atoms: C_16  and  O_28
REMARK    8  A    between atoms: C_18  and  N_19
REMARK    9  A    between atoms: C_23  and  C_25
REMARK                            x       y       z     vdW  Elec       q    Type
REMARK                         _______ _______ _______ _____ _____    ______ ____
ROOT
ATOM      1  C   UNL     1       3.974  -1.558  -2.263  0.00  0.00    +0.190 C 
ENDROOT
BRANCH   1   2
ATOM      2  O   UNL     1       3.614  -1.836  -0.908  0.00  0.00    -0.365 OA
BRANCH   2   3
ATOM      3  C   UNL     1       3.711  -0.707  -0.038  0.00  0.00    +0.178 C 
BRANCH   3   7
ATOM      4  C   UNL     1      -0.017   1.378   0.010  0.00  0.00    +0.000 A 
ATOM      5  C   UNL     1       1.171   2.086   0.002  0.00  0.00    +0.000 A 
ATOM      6  C   UNL     1       2.377   1.411  -0.013  0.00  0.00    +0.006 A 
ATOM      7  C   UNL     1       2.396   0.029  -0.020  0.00  0.00    -0.015 A 
ATOM      8  C   UNL     1       1.208  -0.679  -0.012  0.00  0.00    +0.006 A 
ATOM      9  C   UNL     1       0.002  -0.004   0.002  0.00  0.00    +0.000 A 
ENDBRANCH   3   7
BRANCH   3  10
ATOM     10  C   UNL     1       4.044  -1.175   1.356  0.00  0.00    -0.015 A 
ATOM     11  C   UNL     1       3.537  -2.373   1.822  0.00  0.00    +0.006 A 
ATOM     12  C   UNL     1       3.842  -2.802   3.100  0.00  0.00    +0.000 A 
ATOM     13  C   UNL     1       4.654  -2.033   3.912  0.00  0.00    +0.000 A 
ATOM     14  C   UNL     1       5.162  -0.835   3.446  0.00  0.00    +0.000 A 
ATOM     15  C   UNL     1       4.860  -0.408   2.166  0.00  0.00    +0.006 A 
ENDBRANCH   3  10
ENDBRANCH   2   3
ENDBRANCH   1   2
BRANCH   1  16
ATOM     16  C   UNL     1       3.833  -2.831  -3.100  0.00  0.00    +0.124 C 
BRANCH  16  17
ATOM     17  O   UNL     1       2.459  -3.221  -3.146  0.00  0.00    -0.391 OA
ATOM     18  H   UNL     1       1.874  -2.557  -3.536  0.00  0.00    +0.210 HD
ENDBRANCH  16  17
BRANCH  16  19
ATOM     19  C   UNL     1       4.336  -2.566  -4.520  0.00  0.00    -0.044 C 
BRANCH  19  20
ATOM     20  N   UNL     1       4.200  -3.788  -5.324  0.00  0.00    +0.389 N 
ATOM     21  C   UNL     1       2.765  -4.093  -5.556  0.00  0.00    -0.078 C 
ATOM     22  C   UNL     1       2.794  -4.996  -6.814  0.00  0.00    -0.020 C 
ATOM     23  C   UNL     1       3.923  -4.370  -7.665  0.00  0.00    -0.008 C 
ATOM     24  C   UNL     1       4.792  -3.586  -6.664  0.00  0.00    +0.019 C 
ATOM     25  H   UNL     1       4.650  -4.562  -4.858  0.00  0.00    -0.081 HD
BRANCH  24  26
ATOM     26  C   UNL     1       6.204  -4.113  -6.687  0.00  0.00    +0.197 C 
ATOM     27  O   UNL     1       6.681  -4.611  -5.690  0.00  0.00    -0.278 OA
ATOM     28  N   UNL     1       6.935  -4.031  -7.816  0.00  0.00    -0.331 N 
ATOM     29  H   UNL     1       6.553  -3.632  -8.614  0.00  0.00    +0.145 HD
ATOM     30  H   UNL     1       7.844  -4.370  -7.831  0.00  0.00    +0.145 HD
ENDBRANCH  24  26
ENDBRANCH  19  20
ENDBRANCH  16  19
ENDBRANCH   1  16
TORSDOF 9
