REMARK  Name = ZINC15947489
REMARK  7 active torsions:
REMARK  status: ('A' for Active; 'I' for Inactive)
REMARK    1  A    between atoms: C_1  and  C_2
REMARK    2  A    between atoms: C_2  and  O_3
REMARK    3  A    between atoms: O_3  and  C_4
REMARK    4  A    between atoms: C_6  and  C_12
REMARK    5  A    between atoms: C_9  and  O_10
REMARK    6  A    between atoms: C_21  and  C_25
REMARK    7  A    between atoms: C_26  and  O_28
REMARK                            x       y       z     vdW  Elec       q    Type
REMARK                         _______ _______ _______ _____ _____    ______ ____
ROOT
ATOM      1  C   UNL     1      -0.218  -4.963  -0.535  0.00  0.00    +0.224 C 
ATOM      2  N   UNL     1       0.565  -6.212  -0.571  0.00  0.00    -0.313 N 
ATOM      3  C   UNL     1       1.711  -6.191  -1.333  0.00  0.00    +0.080 A 
ATOM      4  C   UNL     1       1.872  -5.305  -2.405  0.00  0.00    +0.068 A 
ATOM      5  C   UNL     1       3.139  -5.390  -3.107  0.00  0.00    -0.023 A 
ATOM      6  C   UNL     1       3.986  -6.329  -2.624  0.00  0.00    -0.004 A 
ATOM      7  S   UNL     1       3.114  -7.072  -1.272  0.00  0.00    -0.078 S 
ATOM      8  C   UNL     1       5.355  -6.654  -3.134  0.00  0.00    +0.046 C 
ATOM      9  C   UNL     1       5.516  -6.022  -4.525  0.00  0.00    -0.009 C 
ATOM     10  C   UNL     1       5.045  -4.566  -4.464  0.00  0.00    +0.008 C 
ATOM     11  C   UNL     1       3.525  -4.517  -4.292  0.00  0.00    +0.037 C 
ATOM     12  C   UNL     1       6.987  -6.071  -4.943  0.00  0.00    +0.008 C 
ATOM     13  C   UNL     1       0.743  -4.388  -2.711  0.00  0.00    +0.220 C 
ATOM     14  N   UNL     1      -0.211  -4.289  -1.828  0.00  0.00    -0.223 NA
ATOM     15  H   UNL     1       0.287  -7.004  -0.085  0.00  0.00    +0.149 HD
ENDROOT
BRANCH   1  18
ATOM     16  C   UNL     1       0.802  -1.825   1.306  0.00  0.00    +0.163 A 
ATOM     17  C   UNL     1       0.261  -2.673   0.353  0.00  0.00    +0.056 A 
ATOM     18  C   UNL     1       0.372  -4.043   0.502  0.00  0.00    -0.001 A 
ATOM     19  C   UNL     1       1.022  -4.570   1.602  0.00  0.00    +0.025 A 
ATOM     20  C   UNL     1       1.565  -3.730   2.557  0.00  0.00    +0.059 A 
ATOM     21  C   UNL     1       1.462  -2.356   2.409  0.00  0.00    +0.172 A 
ATOM     22  I   UNL     1       2.549  -4.534   4.223  0.00  0.00    -0.040 I 
BRANCH  21  23
ATOM     23  O   UNL     1       2.000  -1.528   3.345  0.00  0.00    -0.503 OA
ATOM     24  H   UNL     1       1.395  -1.301   4.064  0.00  0.00    +0.292 HD
ENDBRANCH  21  23
BRANCH  16  25
ATOM     25  O   UNL     1       0.693  -0.477   1.160  0.00  0.00    -0.489 OA
BRANCH  25  27
ATOM     26  C   UNL     1      -0.019   1.526   0.010  0.00  0.00    +0.048 C 
ATOM     27  C   UNL     1       0.002  -0.004   0.002  0.00  0.00    +0.226 C 
ENDBRANCH  25  27
ENDBRANCH  16  25
ENDBRANCH   1  18
BRANCH  13  28
ATOM     28  O   UNL     1       0.707  -3.683  -3.865  0.00  0.00    -0.492 OA
ATOM     29  H   UNL     1      -0.074  -3.119  -3.957  0.00  0.00    +0.294 HD
ENDBRANCH  13  28
TORSDOF 5
