REMARK  Name = ZINC01157050
REMARK  6 active torsions:
REMARK  status: ('A' for Active; 'I' for Inactive)
REMARK    1  A    between atoms: C_1  and  C_2
REMARK    2  A    between atoms: C_5  and  N_9
REMARK    3  A    between atoms: C_6  and  C_8
REMARK    4  A    between atoms: C_10  and  C_12
REMARK    5  A    between atoms: C_13  and  C_27
REMARK    6  A    between atoms: C_18  and  C_20
REMARK                            x       y       z     vdW  Elec       q    Type
REMARK                         _______ _______ _______ _____ _____    ______ ____
ROOT
ATOM      1  C   UNL     1       0.907  -6.328  -1.884  0.00  0.00    +0.056 C 
ATOM      2  C   UNL     1       0.702  -6.842  -3.115  0.00  0.00    +0.019 C 
ATOM      3  N   UNL     1       0.618  -8.192  -3.311  0.00  0.00    -0.273 N 
ATOM      4  C   UNL     1       0.728  -9.093  -2.327  0.00  0.00    +0.304 C 
ATOM      5  O   UNL     1       0.638 -10.274  -2.599  0.00  0.00    -0.252 OA
ATOM      6  N   UNL     1       0.935  -8.733  -1.045  0.00  0.00    -0.288 N 
ATOM      7  C   UNL     1       1.046  -7.299  -0.729  0.00  0.00    +0.142 C 
ATOM      8  C   UNL     1       0.564  -5.912  -4.293  0.00  0.00    +0.061 C 
ATOM      9  H   UNL     1       0.469  -8.515  -4.214  0.00  0.00    +0.156 HD
ATOM     10  H   UNL     1       1.012  -9.403  -0.348  0.00  0.00    +0.151 HD
ENDROOT
BRANCH   7  11
ATOM     11  C   UNL     1       2.388  -7.064  -0.084  0.00  0.00    -0.022 A 
ATOM     12  C   UNL     1       3.542  -7.494  -0.713  0.00  0.00    +0.006 A 
ATOM     13  C   UNL     1       4.773  -7.279  -0.122  0.00  0.00    +0.001 A 
ATOM     14  C   UNL     1       4.850  -6.634   1.099  0.00  0.00    +0.015 A 
ATOM     15  C   UNL     1       3.696  -6.204   1.728  0.00  0.00    +0.018 A 
ATOM     16  C   UNL     1       2.465  -6.415   1.133  0.00  0.00    +0.021 A 
ATOM     17 BR   UNL     1       3.802  -5.323   3.398  0.00  0.00    -0.050 Br
ENDBRANCH   7  11
BRANCH   1  19
ATOM     18  N   UNL     1       2.100  -4.260  -2.065  0.00  0.00    -0.281 N 
ATOM     19  C   UNL     1       0.996  -4.929  -1.680  0.00  0.00    +0.248 C 
ATOM     20  O   UNL     1       0.074  -4.331  -1.155  0.00  0.00    -0.270 OA
ATOM     21  H   UNL     1       2.793  -4.717  -2.568  0.00  0.00    +0.155 HD
BRANCH  18  26
ATOM     22  C   UNL     1       2.698   1.225  -0.750  0.00  0.00    +0.044 C 
ATOM     23  C   UNL     1       2.539  -0.232  -1.099  0.00  0.00    -0.050 A 
ATOM     24  C   UNL     1       1.275  -0.765  -1.281  0.00  0.00    +0.005 A 
ATOM     25  C   UNL     1       1.127  -2.100  -1.601  0.00  0.00    +0.024 A 
ATOM     26  C   UNL     1       2.248  -2.908  -1.741  0.00  0.00    +0.037 A 
ATOM     27  C   UNL     1       3.515  -2.370  -1.558  0.00  0.00    -0.029 A 
ATOM     28  C   UNL     1       3.657  -1.033  -1.244  0.00  0.00    +0.008 A 
ATOM     29  C   UNL     1       4.734  -3.243  -1.710  0.00  0.00    +0.045 C 
ENDBRANCH  18  26
ENDBRANCH   1  19
TORSDOF 3
