REMARK  Name = ZINC46973957
REMARK  4 active torsions:
REMARK  status: ('A' for Active; 'I' for Inactive)
REMARK    1  A    between atoms: C_1  and  C_2
REMARK    2  A    between atoms: C_2  and  C_4
REMARK    3  A    between atoms: C_2  and  N_10
REMARK    4  A    between atoms: N_13  and  N_14
REMARK                            x       y       z     vdW  Elec       q    Type
REMARK                         _______ _______ _______ _____ _____    ______ ____
ROOT
ATOM      1  N   UNL     1       0.688  -0.476  -1.203  0.00  0.00    -0.293 N 
ATOM      2  C   UNL     1       2.031  -0.587  -1.215  0.00  0.00    +0.316 C 
ATOM      3  O   UNL     1       2.674  -0.294  -0.225  0.00  0.00    -0.251 OA
ATOM      4  N   UNL     1       2.662  -1.022  -2.324  0.00  0.00    -0.219 N 
ATOM      5  H   UNL     1       0.175  -0.710  -1.993  0.00  0.00    +0.151 HD
ATOM      6  H   UNL     1       3.628  -1.101  -2.332  0.00  0.00    +0.174 HD
ENDROOT
BRANCH   4   7
ATOM      7  N   UNL     1       1.921  -1.359  -3.464  0.00  0.00    -0.246 N 
ATOM      8  C   UNL     1       2.572  -1.807  -4.609  0.00  0.00    +0.155 A 
ATOM      9  C   UNL     1       1.831  -2.135  -5.740  0.00  0.00    +0.083 A 
ATOM     10  C   UNL     1       2.491  -2.580  -6.873  0.00  0.00    +0.046 A 
ATOM     11  C   UNL     1       3.876  -2.682  -6.836  0.00  0.00    +0.079 A 
ATOM     12  C   UNL     1       4.549  -2.340  -5.677  0.00  0.00    +0.150 A 
ATOM     13  N   UNL     1       3.892  -1.913  -4.614  0.00  0.00    -0.216 NA
ATOM     14 CL   UNL     1       6.279  -2.466  -5.622  0.00  0.00    -0.060 Cl
ATOM     15 CL   UNL     1       4.752  -3.235  -8.229  0.00  0.00    -0.080 Cl
ATOM     16 CL   UNL     1       0.101  -1.988  -5.731  0.00  0.00    -0.080 Cl
ATOM     17  H   UNL     1       0.955  -1.279  -3.456  0.00  0.00    +0.172 HD
ENDBRANCH   4   7
BRANCH   1  19
ATOM     18  C   UNL     1      -0.019   1.526   0.010  0.00  0.00    +0.030 C 
ATOM     19  C   UNL     1       0.002  -0.004   0.002  0.00  0.00    +0.100 C 
BRANCH  19  20
ATOM     20  C   UNL     1      -1.433  -0.534   0.013  0.00  0.00    +0.138 C 
ATOM     21  C   UNL     1      -1.422  -2.077  -0.000  0.00  0.00    +0.035 C 
ATOM     22  C   UNL     1      -2.607  -2.408  -0.948  0.00  0.00    +0.031 C 
ATOM     23  C   UNL     1      -2.518  -1.230  -1.952  0.00  0.00    +0.160 C 
ATOM     24  O   UNL     1      -2.122  -0.094  -1.163  0.00  0.00    -0.375 OA
ENDBRANCH  19  20
ENDBRANCH   1  19
TORSDOF 3
