REMARK  Name = ZINC64137348
REMARK  7 active torsions:
REMARK  status: ('A' for Active; 'I' for Inactive)
REMARK    1  A    between atoms: C_1  and  N_2
REMARK    2  A    between atoms: N_2  and  C_3
REMARK    3  A    between atoms: N_2  and  C_13
REMARK    4  A    between atoms: C_3  and  C_4
REMARK    5  A    between atoms: C_13  and  C_14
REMARK    6  A    between atoms: N_16  and  C_29
REMARK    7  A    between atoms: C_18  and  C_20
REMARK                            x       y       z     vdW  Elec       q    Type
REMARK                         _______ _______ _______ _____ _____    ______ ____
ROOT
ATOM      1  C   UNL     1      -0.037   0.281  -2.338  0.00  0.00    -0.018 C 
ATOM      2  C   UNL     1       0.145   1.366  -3.065  0.00  0.00    +0.096 C 
ATOM      3  N   UNL     1      -0.775   1.454  -4.091  0.00  0.00    -0.242 N 
ATOM      4  N   UNL     1      -1.631   0.389  -4.077  0.00  0.00    -0.225 NA
ATOM      5  C   UNL     1      -1.213  -0.457  -2.941  0.00  0.00    +0.132 C 
ATOM      6  H   UNL     1      -1.582  -0.125  -4.944  0.00  0.00    +0.146 HD
ENDROOT
BRANCH   5   7
ATOM      7  C   UNL     1      -2.331  -0.576  -1.937  0.00  0.00    -0.021 A 
ATOM      8  C   UNL     1      -3.206   0.477  -1.751  0.00  0.00    +0.009 A 
ATOM      9  C   UNL     1      -4.233   0.372  -0.832  0.00  0.00    +0.050 A 
ATOM     10  C   UNL     1      -4.388  -0.790  -0.095  0.00  0.00    +0.166 A 
ATOM     11  C   UNL     1      -3.506  -1.852  -0.283  0.00  0.00    +0.167 A 
ATOM     12  C   UNL     1      -2.483  -1.742  -1.210  0.00  0.00    +0.055 A 
ATOM     13  O   UNL     1      -3.866  -2.871   0.552  0.00  0.00    -0.453 OA
ATOM     14  C   UNL     1      -4.724  -2.272   1.542  0.00  0.00    +0.466 C 
ATOM     15  O   UNL     1      -5.300  -1.144   0.858  0.00  0.00    -0.453 OA
ENDBRANCH   5   7
BRANCH   3  16
ATOM     16  C   UNL     1      -0.825   2.495  -5.021  0.00  0.00    +0.049 A 
ATOM     17  C   UNL     1      -1.796   2.495  -6.015  0.00  0.00    +0.025 A 
ATOM     18  C   UNL     1      -1.842   3.526  -6.933  0.00  0.00    +0.002 A 
ATOM     19  C   UNL     1      -0.924   4.558  -6.863  0.00  0.00    +0.000 A 
ATOM     20  C   UNL     1       0.044   4.561  -5.875  0.00  0.00    +0.002 A 
ATOM     21  C   UNL     1       0.092   3.536  -4.951  0.00  0.00    +0.025 A 
ENDBRANCH   3  16
BRANCH   1  22
ATOM     22  C   UNL     1       0.773  -0.144  -1.141  0.00  0.00    +0.118 C 
BRANCH  22  24
ATOM     23  C   UNL     1       0.410   1.743   0.332  0.00  0.00    +0.105 C 
ATOM     24  N   UNL     1       0.117   0.324   0.086  0.00  0.00    -0.298 NA
BRANCH  24  25
ATOM     25  C   UNL     1       0.505  -0.500   1.239  0.00  0.00    +0.131 C 
BRANCH  25  26
ATOM     26  C   UNL     1       2.017  -0.401   1.451  0.00  0.00    +0.188 C 
ATOM     27  N   UNL     1       2.431   1.008   1.470  0.00  0.00    -0.362 N 
ATOM     28  C   UNL     1       3.270   1.181   0.490  0.00  0.00    +0.060 A 
ATOM     29  C   UNL     1       4.014   2.353   0.007  0.00  0.00    +0.027 A 
ATOM     30  C   UNL     1       4.830   2.230  -1.059  0.00  0.00    +0.002 A 
ATOM     31  C   UNL     1       5.006   1.014  -1.742  0.00  0.00    +0.002 A 
ATOM     32  C   UNL     1       4.371  -0.120  -1.383  0.00  0.00    +0.027 A 
ATOM     33  C   UNL     1       3.456  -0.106  -0.234  0.00  0.00    +0.060 A 
ATOM     34  N   UNL     1       2.726  -1.026   0.328  0.00  0.00    -0.362 N 
ATOM     35  H   UNL     1       2.135   1.685   2.098  0.00  0.00    +0.162 HD
ATOM     36  H   UNL     1       2.662  -1.954   0.054  0.00  0.00    +0.162 HD
ENDBRANCH  25  26
ENDBRANCH  24  25
ENDBRANCH  22  24
ENDBRANCH   1  22
TORSDOF 6
