REMARK  Name = ZINC63655272
REMARK  13 active torsions:
REMARK  status: ('A' for Active; 'I' for Inactive)
REMARK    1  A    between atoms: C_1  and  C_2
REMARK    2  A    between atoms: C_4  and  C_13
REMARK    3  A    between atoms: C_13  and  C_14
REMARK    4  A    between atoms: C_14  and  N_15
REMARK    5  A    between atoms: N_15  and  C_16
REMARK    6  A    between atoms: N_15  and  C_23
REMARK    7  A    between atoms: C_16  and  C_17
REMARK    8  A    between atoms: C_23  and  N_25
REMARK    9  A    between atoms: N_25  and  C_26
REMARK   10  A    between atoms: C_28  and  O_34
REMARK   11  A    between atoms: C_31  and  O_32
REMARK   12  A    between atoms: O_32  and  C_33
REMARK   13  A    between atoms: O_34  and  C_35
REMARK                            x       y       z     vdW  Elec       q    Type
REMARK                         _______ _______ _______ _____ _____    ______ ____
ROOT
ATOM      1  N   UNL     1      -4.603  -0.591  -1.757  0.00  0.00    -0.308 N 
ENDROOT
BRANCH   1   2
ATOM      2  C   UNL     1      -5.451   0.452  -1.665  0.00  0.00    +0.138 C 
ATOM      3  S   UNL     1      -5.041   1.805  -0.699  0.00  0.00    -0.018 S 
BRANCH   2   4
ATOM      4  N   UNL     1      -6.622   0.430  -2.332  0.00  0.00    -0.294 N 
ATOM      5  H   UNL     1      -6.820  -0.298  -2.940  0.00  0.00    +0.154 HD
BRANCH   4   6
ATOM      6  C   UNL     1      -7.553   1.460  -2.146  0.00  0.00    +0.078 A 
ATOM      7  C   UNL     1      -7.833   1.922  -0.868  0.00  0.00    +0.072 A 
ATOM      8  C   UNL     1      -8.755   2.942  -0.687  0.00  0.00    +0.122 A 
ATOM      9  C   UNL     1      -9.398   3.499  -1.783  0.00  0.00    +0.049 A 
ATOM     10  C   UNL     1      -9.121   3.040  -3.057  0.00  0.00    +0.051 A 
ATOM     11  C   UNL     1      -8.196   2.026  -3.244  0.00  0.00    +0.141 A 
BRANCH  11  12
ATOM     12  O   UNL     1      -7.920   1.580  -4.499  0.00  0.00    -0.493 OA
ATOM     13  C   UNL     1      -8.616   2.206  -5.579  0.00  0.00    +0.277 C 
ENDBRANCH  11  12
BRANCH   8  14
ATOM     14  O   UNL     1      -9.030   3.395   0.565  0.00  0.00    -0.495 OA
ATOM     15  C   UNL     1      -9.990   4.447   0.678  0.00  0.00    +0.277 C 
ENDBRANCH   8  14
ENDBRANCH   4   6
ENDBRANCH   2   4
ENDBRANCH   1   2
BRANCH   1  16
ATOM     16  C   UNL     1      -3.331  -0.568  -1.032  0.00  0.00    +0.111 C 
BRANCH  16  17
ATOM     17  C   UNL     1      -2.251   0.059  -1.917  0.00  0.00    +0.052 C 
BRANCH  17  20
ATOM     18  C   UNL     1       0.261   2.106  -1.999  0.00  0.00    +0.035 C 
ATOM     19  C   UNL     1       0.381   0.616  -1.674  0.00  0.00    +0.103 C 
ATOM     20  C   UNL     1      -0.942   0.083  -1.171  0.00  0.00    -0.037 C 
ATOM     21  C   UNL     1      -0.712  -0.366   0.084  0.00  0.00    +0.001 A 
ATOM     22  C   UNL     1      -1.580  -0.989   1.090  0.00  0.00    +0.030 A 
ATOM     23  C   UNL     1      -1.051  -1.340   2.286  0.00  0.00    +0.042 A 
ATOM     24  C   UNL     1       0.302  -1.124   2.585  0.00  0.00    +0.022 A 
ATOM     25  C   UNL     1       1.161  -0.557   1.711  0.00  0.00    +0.027 A 
ATOM     26  C   UNL     1       0.712  -0.149   0.424  0.00  0.00    +0.043 A 
ATOM     27  N   UNL     1       1.340   0.413  -0.582  0.00  0.00    -0.378 N 
ATOM     28 CL   UNL     1      -2.074  -2.076   3.479  0.00  0.00    -0.084 Cl
ATOM     29  H   UNL     1       2.279   0.654  -0.601  0.00  0.00    +0.160 HD
ENDBRANCH  17  20
ENDBRANCH  16  17
ENDBRANCH   1  16
BRANCH   1  30
ATOM     30  C   UNL     1      -4.954  -1.749  -2.583  0.00  0.00    +0.143 C 
BRANCH  30  31
ATOM     31  C   UNL     1      -5.702  -2.755  -1.746  0.00  0.00    -0.012 A 
ATOM     32  C   UNL     1      -5.015  -3.744  -1.058  0.00  0.00    +0.008 A 
ATOM     33  C   UNL     1      -5.744  -4.648  -0.300  0.00  0.00    +0.020 A 
ATOM     34  C   UNL     1      -7.121  -4.534  -0.257  0.00  0.00    +0.111 A 
ATOM     35  N   UNL     1      -7.740  -3.581  -0.925  0.00  0.00    -0.263 NA
ATOM     36  C   UNL     1      -7.079  -2.701  -1.651  0.00  0.00    +0.115 A 
ENDBRANCH  30  31
ENDBRANCH   1  30
TORSDOF 10
