REMARK  Name = ZINC00245107
REMARK  7 active torsions:
REMARK  status: ('A' for Active; 'I' for Inactive)
REMARK    1  A    between atoms: C_1  and  C_2
REMARK    2  A    between atoms: C_5  and  S_8
REMARK    3  A    between atoms: S_8  and  N_11
REMARK    4  A    between atoms: N_11  and  C_12
REMARK    5  A    between atoms: C_13  and  C_21
REMARK    6  A    between atoms: C_15  and  O_20
REMARK    7  A    between atoms: C_17  and  C_18
REMARK                            x       y       z     vdW  Elec       q    Type
REMARK                         _______ _______ _______ _____ _____    ______ ____
ROOT
ATOM      1  N   UNL     1       0.168  -0.037  -2.438  0.00  0.00    -0.216 N 
ATOM      2  H   UNL     1       0.320   0.921  -2.444  0.00  0.00    +0.174 HD
ENDROOT
BRANCH   1   3
ATOM      3  C   UNL     1       0.009  -0.713  -1.224  0.00  0.00    +0.055 A 
ATOM      4  C   UNL     1      -1.129  -0.504  -0.456  0.00  0.00    -0.024 A 
ATOM      5  C   UNL     1      -1.288  -1.176   0.741  0.00  0.00    +0.052 A 
ATOM      6  C   UNL     1      -0.309  -2.055   1.178  0.00  0.00    +0.136 A 
ATOM      7  C   UNL     1       0.831  -2.261   0.414  0.00  0.00    +0.087 A 
ATOM      8  C   UNL     1       0.992  -1.590  -0.783  0.00  0.00    -0.006 A 
ATOM      9  C   UNL     1       2.229  -1.814  -1.613  0.00  0.00    +0.047 C 
ATOM     10 CL   UNL     1       2.055  -3.363   0.963  0.00  0.00    -0.079 Cl
ATOM     11  C   UNL     1      -2.193   0.451  -0.931  0.00  0.00    +0.046 C 
BRANCH   6  12
ATOM     12  O   UNL     1      -0.467  -2.716   2.357  0.00  0.00    -0.505 OA
ATOM     13  H   UNL     1      -0.916  -3.568   2.273  0.00  0.00    +0.292 HD
ENDBRANCH   6  12
ENDBRANCH   1   3
BRANCH   1  14
ATOM     14  S   UNL     1       0.098  -0.872  -3.866  0.00  0.00    +0.072 S 
ATOM     15  O   UNL     1       0.292   0.079  -4.904  0.00  0.00    -0.150 OA
ATOM     16  O   UNL     1       0.933  -2.012  -3.712  0.00  0.00    -0.150 OA
BRANCH  14  21
ATOM     17  C   UNL     1      -5.542  -2.934  -4.452  0.00  0.00    +0.044 C 
ATOM     18  C   UNL     1      -4.133  -2.419  -4.306  0.00  0.00    -0.050 A 
ATOM     19  C   UNL     1      -3.820  -1.137  -4.718  0.00  0.00    +0.005 A 
ATOM     20  C   UNL     1      -2.527  -0.665  -4.584  0.00  0.00    +0.029 A 
ATOM     21  C   UNL     1      -1.549  -1.474  -4.037  0.00  0.00    +0.109 A 
ATOM     22  C   UNL     1      -1.862  -2.757  -3.630  0.00  0.00    +0.029 A 
ATOM     23  C   UNL     1      -3.155  -3.228  -3.760  0.00  0.00    +0.005 A 
ENDBRANCH  14  21
ENDBRANCH   1  14
TORSDOF 4
