REMARK  Name = ZINC67372678
REMARK  4 active torsions:
REMARK  status: ('A' for Active; 'I' for Inactive)
REMARK    1  A    between atoms: C_10  and  C_11
REMARK    2  A    between atoms: C_10  and  O_22
REMARK    3  A    between atoms: C_11  and  N_12
REMARK    4  A    between atoms: C_17  and  C_19
REMARK                            x       y       z     vdW  Elec       q    Type
REMARK                         _______ _______ _______ _____ _____    ______ ____
ROOT
ATOM      1  C   UNL     1       0.029   1.458  -0.097  0.00  0.00    +0.000 A 
ATOM      2  C   UNL     1       1.236   2.131  -0.111  0.00  0.00    +0.000 A 
ATOM      3  C   UNL     1       2.418   1.419  -0.091  0.00  0.00    +0.007 A 
ATOM      4  C   UNL     1       2.405   0.031  -0.054  0.00  0.00    -0.011 A 
ATOM      5  C   UNL     1       1.203  -0.640  -0.035  0.00  0.00    -0.041 A 
ATOM      6  C   UNL     1       0.014   0.079  -0.059  0.00  0.00    +0.004 A 
ATOM      7  C   UNL     1       1.113  -2.142   0.021  0.00  0.00    +0.035 C 
ATOM      8  C   UNL     1       2.442  -2.775  -0.388  0.00  0.00    +0.008 C 
ATOM      9  C   UNL     1       3.561  -2.124   0.433  0.00  0.00    +0.041 C 
ATOM     10  C   UNL     1       3.731  -0.683  -0.042  0.00  0.00    +0.107 C 
ENDROOT
BRANCH  10  11
ATOM     11  O   UNL     1       4.279  -0.683  -1.362  0.00  0.00    -0.382 OA
ATOM     12  H   UNL     1       4.431   0.200  -1.724  0.00  0.00    +0.211 HD
ENDBRANCH  10  11
BRANCH  10  13
ATOM     13  C   UNL     1       4.689   0.049   0.901  0.00  0.00    +0.142 C 
BRANCH  13  14
ATOM     14  N   UNL     1       5.959  -0.679   0.968  0.00  0.00    -0.326 N 
ATOM     15  C   UNL     1       6.949  -0.268   1.854  0.00  0.00    +0.120 A 
ATOM     16  C   UNL     1       6.723   0.833   2.678  0.00  0.00    +0.045 A 
ATOM     17  C   UNL     1       7.711   1.236   3.557  0.00  0.00    +0.026 A 
ATOM     18  C   UNL     1       8.903   0.525   3.588  0.00  0.00    +0.077 A 
ATOM     19  C   UNL     1       9.065  -0.567   2.737  0.00  0.00    +0.160 A 
ATOM     20  N   UNL     1       8.091  -0.930   1.909  0.00  0.00    -0.220 NA
ATOM     21 CL   UNL     1      10.177   0.990   4.673  0.00  0.00    -0.081 Cl
ATOM     22  H   UNL     1       6.109  -1.447   0.395  0.00  0.00    +0.148 HD
BRANCH  19  23
ATOM     23  C   UNL     1      10.290  -1.309   2.760  0.00  0.00    +0.121 C 
ATOM     24  N   UNL     1      11.262  -1.897   2.778  0.00  0.00    -0.189 NA
ENDBRANCH  19  23
ENDBRANCH  13  14
ENDBRANCH  10  13
TORSDOF 4
