REMARK  Name = ZINC63572680
REMARK  3 active torsions:
REMARK  status: ('A' for Active; 'I' for Inactive)
REMARK    1  A    between atoms: C_6  and  C_7
REMARK    2  A    between atoms: C_7  and  N_8
REMARK    3  A    between atoms: C_24  and  C_26
REMARK                            x       y       z     vdW  Elec       q    Type
REMARK                         _______ _______ _______ _____ _____    ______ ____
ROOT
ATOM      1  N   UNL     1      -3.306   0.599  -1.572  0.00  0.00    -0.295 N 
ATOM      2  C   UNL     1      -3.875  -0.613  -1.722  0.00  0.00    +0.303 C 
ATOM      3  O   UNL     1      -4.372  -1.174  -0.764  0.00  0.00    -0.253 OA
ATOM      4  N   UNL     1      -3.893  -1.204  -2.933  0.00  0.00    -0.276 N 
ATOM      5  C   UNL     1      -3.185  -0.581  -4.055  0.00  0.00    +0.114 C 
ATOM      6  C   UNL     1      -2.151  -1.570  -4.622  0.00  0.00    +0.052 C 
ATOM      7  C   UNL     1      -2.847  -2.903  -4.743  0.00  0.00    -0.035 C 
ATOM      8  C   UNL     1      -2.961  -3.744  -5.763  0.00  0.00    +0.001 A 
ATOM      9  C   UNL     1      -2.362  -3.740  -7.108  0.00  0.00    +0.030 A 
ATOM     10  C   UNL     1      -2.717  -4.767  -7.926  0.00  0.00    +0.042 A 
ATOM     11  C   UNL     1      -3.598  -5.786  -7.544  0.00  0.00    +0.022 A 
ATOM     12  C   UNL     1      -4.188  -5.872  -6.325  0.00  0.00    +0.027 A 
ATOM     13  C   UNL     1      -3.885  -4.853  -5.375  0.00  0.00    +0.043 A 
ATOM     14  N   UNL     1      -4.284  -4.704  -4.147  0.00  0.00    -0.375 N 
ATOM     15  C   UNL     1      -3.620  -3.526  -3.587  0.00  0.00    +0.131 C 
ATOM     16  C   UNL     1      -4.619  -2.472  -3.113  0.00  0.00    +0.134 C 
ATOM     17 CL   UNL     1      -2.044  -4.818  -9.525  0.00  0.00    -0.084 Cl
ATOM     18  H   UNL     1      -2.846   1.015  -2.319  0.00  0.00    +0.151 HD
ATOM     19  H   UNL     1      -4.914  -5.275  -3.681  0.00  0.00    +0.160 HD
ENDROOT
BRANCH  16  20
ATOM     20  C   UNL     1      -5.228  -2.902  -1.804  0.00  0.00    -0.025 A 
ATOM     21  C   UNL     1      -4.416  -3.349  -0.778  0.00  0.00    +0.008 A 
ATOM     22  C   UNL     1      -4.974  -3.743   0.424  0.00  0.00    +0.038 A 
ATOM     23  C   UNL     1      -6.346  -3.691   0.600  0.00  0.00    +0.123 A 
ATOM     24  C   UNL     1      -7.159  -3.243  -0.428  0.00  0.00    +0.038 A 
ATOM     25  C   UNL     1      -6.598  -2.844  -1.627  0.00  0.00    +0.008 A 
ATOM     26  F   UNL     1      -6.893  -4.076   1.774  0.00  0.00    -0.205 F 
ENDBRANCH  16  20
BRANCH   1  27
ATOM     27  C   UNL     1      -3.382   1.290  -0.282  0.00  0.00    +0.141 C 
BRANCH  27  33
ATOM     28  C   UNL     1      -3.371   3.746  -0.765  0.00  0.00    +0.008 A 
ATOM     29  C   UNL     1      -2.721   4.962  -0.855  0.00  0.00    +0.038 A 
ATOM     30  C   UNL     1      -1.371   5.050  -0.560  0.00  0.00    +0.123 A 
ATOM     31  C   UNL     1      -0.673   3.918  -0.176  0.00  0.00    +0.038 A 
ATOM     32  C   UNL     1      -1.325   2.702  -0.086  0.00  0.00    +0.008 A 
ATOM     33  C   UNL     1      -2.673   2.616  -0.381  0.00  0.00    -0.030 A 
ATOM     34  F   UNL     1      -0.736   6.239  -0.649  0.00  0.00    -0.205 F 
ENDBRANCH  27  33
ENDBRANCH   1  27
TORSDOF 3
