REMARK  Name = ZINC45645512
REMARK  3 active torsions:
REMARK  status: ('A' for Active; 'I' for Inactive)
REMARK    1  A    between atoms: C_5  and  C_6
REMARK    2  A    between atoms: C_8  and  C_11
REMARK    3  A    between atoms: N_13  and  C_14
REMARK                            x       y       z     vdW  Elec       q    Type
REMARK                         _______ _______ _______ _____ _____    ______ ____
ROOT
ATOM      1  C   UNL     1      -2.907  -4.019   0.019  0.00  0.00    +0.263 C 
ATOM      2  O   UNL     1      -4.046  -4.446   0.026  0.00  0.00    -0.268 OA
ATOM      3  N   UNL     1      -1.867  -4.876   0.011  0.00  0.00    -0.305 N 
ATOM      4  H   UNL     1      -0.958  -4.536   0.005  0.00  0.00    +0.150 HD
ENDROOT
BRANCH   3   5
ATOM      5  C   UNL     1      -2.107  -6.321   0.011  0.00  0.00    +0.036 C 
ATOM      6  C   UNL     1      -2.911  -6.704  -1.234  0.00  0.00    +0.029 C 
ATOM      7  C   UNL     1      -3.163  -8.213  -1.234  0.00  0.00    -0.008 C 
ATOM      8  C   UNL     1      -1.824  -8.954  -1.244  0.00  0.00    +0.007 C 
ATOM      9  C   UNL     1      -1.020  -8.570   0.001  0.00  0.00    -0.008 C 
ATOM     10  C   UNL     1      -0.768  -7.061   0.001  0.00  0.00    +0.029 C 
ATOM     11  C   UNL     1      -1.807  -8.956   1.255  0.00  0.00    +0.007 C 
ATOM     12  C   UNL     1      -3.146  -8.216   1.265  0.00  0.00    -0.008 C 
ATOM     13  C   UNL     1      -3.950  -8.599   0.021  0.00  0.00    +0.007 C 
ATOM     14  C   UNL     1      -2.894  -6.707   1.265  0.00  0.00    +0.029 C 
ENDBRANCH   3   5
BRANCH   1  17
ATOM     15  C   UNL     1      -1.255  -0.781   0.010  0.00  0.00    +0.110 A 
ATOM     16  N   UNL     1      -1.425  -2.091   0.010  0.00  0.00    -0.234 NA
ATOM     17  C   UNL     1      -2.665  -2.567   0.019  0.00  0.00    +0.133 A 
ATOM     18  C   UNL     1      -3.715  -1.689   0.027  0.00  0.00    +0.080 A 
ATOM     19  S   UNL     1      -2.940  -0.195   0.031  0.00  0.00    -0.075 S 
BRANCH  15  24
ATOM     20  C   UNL     1      -0.017   1.392   0.010  0.00  0.00    +0.018 A 
ATOM     21  C   UNL     1       1.186   2.008   0.002  0.00  0.00    +0.046 A 
ATOM     22  S   UNL     1       2.319   0.633  -0.017  0.00  0.00    -0.104 S 
ATOM     23  C   UNL     1       1.213  -0.631  -0.013  0.00  0.00    +0.055 A 
ATOM     24  C   UNL     1       0.002  -0.004   0.002  0.00  0.00    +0.014 A 
ENDBRANCH  15  24
ENDBRANCH   1  17
TORSDOF 3
