REMARK  Name = ZINC51362776
REMARK  5 active torsions:
REMARK  status: ('A' for Active; 'I' for Inactive)
REMARK    1  A    between atoms: C_1  and  C_2
REMARK    2  A    between atoms: C_2  and  C_3
REMARK    3  A    between atoms: C_6  and  C_8
REMARK    4  A    between atoms: C_8  and  C_10
REMARK    5  A    between atoms: N_19  and  C_20
REMARK                            x       y       z     vdW  Elec       q    Type
REMARK                         _______ _______ _______ _____ _____    ______ ____
ROOT
ATOM      1  C   UNL     1      -5.021  -3.238   1.761  0.00  0.00    -0.021 A 
ATOM      2  C   UNL     1      -4.271  -3.263   2.924  0.00  0.00    +0.007 A 
ATOM      3  C   UNL     1      -4.081  -4.452   3.603  0.00  0.00    +0.030 A 
ATOM      4  C   UNL     1      -4.644  -5.621   3.115  0.00  0.00    +0.090 A 
ATOM      5  C   UNL     1      -5.399  -5.597   1.944  0.00  0.00    +0.157 A 
ATOM      6  C   UNL     1      -5.589  -4.399   1.273  0.00  0.00    +0.054 A 
ATOM      7  O   UNL     1      -5.819  -6.864   1.708  0.00  0.00    -0.407 OA
ATOM      8  C   UNL     1      -5.357  -7.668   2.679  0.00  0.00    +0.421 A 
ATOM      9  O   UNL     1      -5.559  -8.865   2.755  0.00  0.00    -0.223 OA
ATOM     10  N   UNL     1      -4.635  -6.944   3.557  0.00  0.00    -0.277 N 
ATOM     11  C   UNL     1      -3.964  -7.453   4.755  0.00  0.00    +0.156 C 
ENDROOT
BRANCH   1  12
ATOM     12  C   UNL     1      -5.223  -1.938   1.027  0.00  0.00    +0.147 C 
ATOM     13 CL   UNL     1      -5.913  -0.712   2.156  0.00  0.00    -0.111 Cl
BRANCH  12  17
ATOM     14  C   UNL     1      -1.412  -0.526   0.013  0.00  0.00    -0.010 A 
ATOM     15  C   UNL     1      -2.221  -0.821  -1.034  0.00  0.00    +0.011 A 
ATOM     16  C   UNL     1      -3.495  -1.293  -0.784  0.00  0.00    +0.013 A 
ATOM     17  C   UNL     1      -3.899  -1.446   0.501  0.00  0.00    +0.012 A 
ATOM     18  S   UNL     1      -2.453  -0.923   1.407  0.00  0.00    -0.096 S 
BRANCH  14  20
ATOM     19  C   UNL     1      -0.019   1.526   0.010  0.00  0.00    +0.009 C 
ATOM     20  C   UNL     1       0.002  -0.004   0.002  0.00  0.00    +0.039 C 
ENDBRANCH  14  20
ENDBRANCH  12  17
ENDBRANCH   1  12
TORSDOF 3
