REMARK  Name = ZINC20731110
REMARK  4 active torsions:
REMARK  status: ('A' for Active; 'I' for Inactive)
REMARK    1  A    between atoms: C_3  and  C_8
REMARK    2  A    between atoms: C_8  and  O_9
REMARK    3  A    between atoms: O_9  and  C_10
REMARK    4  A    between atoms: C_14  and  C_16
REMARK                            x       y       z     vdW  Elec       q    Type
REMARK                         _______ _______ _______ _____ _____    ______ ____
ROOT
ATOM      1  C   UNL     1       5.252   3.110   1.494  0.00  0.00    +0.121 A 
ATOM      2  C   UNL     1       5.966   3.555   0.390  0.00  0.00    +0.045 A 
ATOM      3  C   UNL     1       7.143   4.256   0.566  0.00  0.00    +0.004 A 
ATOM      4  C   UNL     1       7.610   4.514   1.842  0.00  0.00    +0.004 A 
ATOM      5  C   UNL     1       6.902   4.072   2.943  0.00  0.00    -0.036 A 
ATOM      6  C   UNL     1       5.721   3.376   2.772  0.00  0.00    +0.050 A 
ENDROOT
BRANCH   5   7
ATOM      7  C   UNL     1       7.415   4.356   4.332  0.00  0.00    +0.063 C 
ATOM      8  C   UNL     1       7.531   5.868   4.540  0.00  0.00    +0.109 C 
ATOM      9  C   UNL     1       8.720   6.441   3.828  0.00  0.00    +0.219 C 
ATOM     10  O   UNL     1       8.615   7.532   3.309  0.00  0.00    -0.275 OA
ATOM     11  N   UNL     1       9.902   5.795   3.740  0.00  0.00    -0.269 N 
ATOM     12  C   UNL     1       9.963   4.474   4.209  0.00  0.00    +0.150 A 
ATOM     13  C   UNL     1       8.783   3.747   4.502  0.00  0.00    +0.020 A 
ATOM     14  C   UNL     1       9.141   2.526   4.920  0.00  0.00    +0.111 A 
ATOM     15  N   UNL     1      10.493   2.465   4.903  0.00  0.00    -0.283 N 
ATOM     16  H   UNL     1      11.032   1.699   5.157  0.00  0.00    +0.188 HD
ATOM     17  N   UNL     1      10.982   3.705   4.453  0.00  0.00    -0.158 NA
ATOM     18  H   UNL     1      10.684   6.230   3.365  0.00  0.00    +0.156 HD
ENDBRANCH   5   7
BRANCH   1  19
ATOM     19  O   UNL     1       4.094   2.421   1.323  0.00  0.00    -0.487 OA
BRANCH  19  20
ATOM     20  C   UNL     1       3.672   2.184  -0.021  0.00  0.00    +0.264 C 
BRANCH  20  23
ATOM     21  C   UNL     1      -0.017   1.378   0.010  0.00  0.00    +0.002 A 
ATOM     22  C   UNL     1       1.171   2.086   0.002  0.00  0.00    +0.007 A 
ATOM     23  C   UNL     1       2.378   1.412  -0.013  0.00  0.00    -0.009 A 
ATOM     24  C   UNL     1       2.398   0.029  -0.021  0.00  0.00    +0.027 A 
ATOM     25  C   UNL     1       1.210  -0.679  -0.013  0.00  0.00    +0.041 A 
ATOM     26  C   UNL     1       0.002  -0.004   0.002  0.00  0.00    +0.020 A 
ATOM     27 CL   UNL     1       1.234  -2.415  -0.024  0.00  0.00    -0.084 Cl
ENDBRANCH  20  23
ENDBRANCH  19  20
ENDBRANCH   1  19
TORSDOF 4
