REMARK  Name = ZINC09883454
REMARK  4 active torsions:
REMARK  status: ('A' for Active; 'I' for Inactive)
REMARK    1  A    between atoms: C_4  and  C_7
REMARK    2  A    between atoms: C_15  and  C_18
REMARK    3  A    between atoms: C_18  and  S_19
REMARK    4  A    between atoms: S_19  and  C_20
REMARK                            x       y       z     vdW  Elec       q    Type
REMARK                         _______ _______ _______ _____ _____    ______ ____
ROOT
ATOM      1  C   UNL     1      -5.710  -2.543  -3.513  0.00  0.00    +0.340 C 
ATOM      2  O   UNL     1      -6.902  -1.748  -3.509  0.00  0.00    -0.333 OA
ATOM      3  C   UNL     1      -7.789  -2.075  -2.434  0.00  0.00    +0.203 C 
ATOM      4  C   UNL     1      -7.011  -2.123  -1.143  0.00  0.00    +0.021 A 
ATOM      5  C   UNL     1      -7.686  -2.086   0.063  0.00  0.00    +0.024 A 
ATOM      6  C   UNL     1      -6.982  -2.135   1.252  0.00  0.00    +0.019 A 
ATOM      7  C   UNL     1      -5.602  -2.227   1.238  0.00  0.00    +0.023 A 
ATOM      8  C   UNL     1      -4.924  -2.257   0.035  0.00  0.00    +0.006 A 
ATOM      9  C   UNL     1      -5.628  -2.206  -1.160  0.00  0.00    +0.134 A 
ATOM     10  O   UNL     1      -4.952  -2.234  -2.340  0.00  0.00    -0.459 OA
ATOM     11 BR   UNL     1      -7.909  -2.084   2.900  0.00  0.00    -0.050 Br
ENDROOT
BRANCH   1  15
ATOM     12  C   UNL     1      -3.400  -1.643  -6.991  0.00  0.00    +0.000 A 
ATOM     13  C   UNL     1      -4.684  -2.136  -7.123  0.00  0.00    +0.000 A 
ATOM     14  C   UNL     1      -5.432  -2.427  -5.997  0.00  0.00    +0.010 A 
ATOM     15  C   UNL     1      -4.895  -2.225  -4.740  0.00  0.00    +0.020 A 
ATOM     16  C   UNL     1      -3.612  -1.728  -4.608  0.00  0.00    +0.010 A 
ATOM     17  C   UNL     1      -2.863  -1.441  -5.733  0.00  0.00    +0.000 A 
ENDBRANCH   1  15
BRANCH   8  18
ATOM     18  C   UNL     1      -3.420  -2.352   0.020  0.00  0.00    +0.116 C 
BRANCH  18  19
ATOM     19  S   UNL     1      -2.709  -0.683   0.024  0.00  0.00    -0.081 S 
BRANCH  19  20
ATOM     20  C   UNL     1      -0.969  -0.961   0.005  0.00  0.00    +0.196 A 
ATOM     21  N   UNL     1      -0.367  -2.129  -0.007  0.00  0.00    -0.122 NA
ATOM     22  N   UNL     1       0.910  -1.973  -0.018  0.00  0.00    -0.129 NA
ATOM     23  C   UNL     1       1.201  -0.686  -0.013  0.00  0.00    +0.162 A 
ATOM     24  N   UNL     1       0.002  -0.004   0.002  0.00  0.00    -0.278 N 
ATOM     25  C   UNL     1      -0.017   1.363   0.009  0.00  0.00    +0.095 A 
ATOM     26  C   UNL     1       1.136   2.062   0.002  0.00  0.00    +0.018 A 
ATOM     27  C   UNL     1       2.375   1.395  -0.012  0.00  0.00    +0.005 A 
ATOM     28  C   UNL     1       2.412   0.036  -0.020  0.00  0.00    +0.049 A 
ENDBRANCH  19  20
ENDBRANCH  18  19
ENDBRANCH   8  18
TORSDOF 4
