REMARK  Name = ZINC02502771
REMARK  8 active torsions:
REMARK  status: ('A' for Active; 'I' for Inactive)
REMARK    1  A    between atoms: C_1  and  C_2
REMARK    2  A    between atoms: C_3  and  C_27
REMARK    3  A    between atoms: C_4  and  C_20
REMARK    4  A    between atoms: C_10  and  C_15
REMARK    5  A    between atoms: C_24  and  O_26
REMARK    6  A    between atoms: C_27  and  O_29
REMARK    7  A    between atoms: O_29  and  C_30
REMARK    8  A    between atoms: C_30  and  C_31
REMARK                            x       y       z     vdW  Elec       q    Type
REMARK                         _______ _______ _______ _____ _____    ______ ____
ROOT
ATOM      1  C   UNL     1      -0.018   1.503   0.010  0.00  0.00    +0.061 C 
ATOM      2  C   UNL     1       0.002  -0.004   0.002  0.00  0.00    +0.016 C 
ATOM      3  C   UNL     1      -1.155  -0.687   0.004  0.00  0.00    +0.065 C 
ATOM      4  C   UNL     1      -1.174  -2.188  -0.012  0.00  0.00    +0.092 C 
ATOM      5  C   UNL     1       0.164  -2.749   0.399  0.00  0.00    +0.024 C 
ATOM      6  C   UNL     1       1.272  -1.979   0.376  0.00  0.00    +0.016 C 
ATOM      7  N   UNL     1       1.198  -0.667  -0.013  0.00  0.00    -0.321 N 
ATOM      8  C   UNL     1       2.616  -2.539   0.768  0.00  0.00    +0.060 C 
ATOM      9  C   UNL     1       2.429  -3.633   1.822  0.00  0.00    +0.039 C 
ATOM     10  C   UNL     1       1.521  -4.720   1.240  0.00  0.00    +0.088 C 
ATOM     11  C   UNL     1       0.224  -4.094   0.806  0.00  0.00    +0.162 C 
ATOM     12  O   UNL     1      -0.791  -4.762   0.808  0.00  0.00    -0.292 OA
ATOM     13  H   UNL     1       2.000  -0.203  -0.298  0.00  0.00    +0.152 HD
ENDROOT
BRANCH   4  14
ATOM     14  C   UNL     1      -1.503  -2.664  -1.404  0.00  0.00    -0.032 A 
ATOM     15  C   UNL     1      -0.678  -2.328  -2.462  0.00  0.00    +0.005 A 
ATOM     16  C   UNL     1      -0.977  -2.764  -3.739  0.00  0.00    +0.004 A 
ATOM     17  C   UNL     1      -2.102  -3.534  -3.962  0.00  0.00    +0.045 A 
ATOM     18  C   UNL     1      -2.931  -3.872  -2.903  0.00  0.00    +0.117 A 
ATOM     19  C   UNL     1      -2.625  -3.439  -1.620  0.00  0.00    +0.050 A 
BRANCH  18  20
ATOM     20  O   UNL     1      -4.037  -4.631  -3.119  0.00  0.00    -0.507 OA
ATOM     21  H   UNL     1      -3.883  -5.582  -3.044  0.00  0.00    +0.292 HD
ENDBRANCH  18  20
ENDBRANCH   4  14
BRANCH   9  22
ATOM     22  C   UNL     1       3.768  -4.225   2.181  0.00  0.00    -0.006 A 
ATOM     23  C   UNL     1       4.386  -4.270   3.386  0.00  0.00    +0.011 A 
ATOM     24  C   UNL     1       5.627  -4.871   3.481  0.00  0.00    +0.008 A 
ATOM     25  C   UNL     1       6.189  -5.398   2.366  0.00  0.00    +0.045 A 
ATOM     26  S   UNL     1       4.948  -5.055   1.129  0.00  0.00    -0.101 S 
ENDBRANCH   9  22
BRANCH   3  27
ATOM     27  C   UNL     1      -2.380   0.021   0.021  0.00  0.00    +0.338 C 
ATOM     28  O   UNL     1      -2.378   1.238   0.035  0.00  0.00    -0.245 OA
BRANCH  27  29
ATOM     29  O   UNL     1      -3.549  -0.652   0.024  0.00  0.00    -0.457 OA
BRANCH  29  30
ATOM     30  C   UNL     1      -4.746   0.128   0.042  0.00  0.00    +0.268 C 
BRANCH  30  31
ATOM     31  C   UNL     1      -5.943  -0.789   0.041  0.00  0.00    -0.010 A 
ATOM     32  C   UNL     1      -6.498  -1.200  -1.156  0.00  0.00    +0.007 A 
ATOM     33  C   UNL     1      -7.595  -2.041  -1.157  0.00  0.00    +0.000 A 
ATOM     34  C   UNL     1      -8.137  -2.470   0.040  0.00  0.00    +0.000 A 
ATOM     35  C   UNL     1      -7.582  -2.059   1.238  0.00  0.00    +0.000 A 
ATOM     36  C   UNL     1      -6.482  -1.222   1.238  0.00  0.00    +0.007 A 
ENDBRANCH  30  31
ENDBRANCH  29  30
ENDBRANCH  27  29
ENDBRANCH   3  27
TORSDOF 7
