REMARK  Name = ZINC01188382
REMARK  7 active torsions:
REMARK  status: ('A' for Active; 'I' for Inactive)
REMARK    1  A    between atoms: C_1  and  C_2
REMARK    2  A    between atoms: C_2  and  C_3
REMARK    3  A    between atoms: C_2  and  N_4
REMARK    4  A    between atoms: C_8  and  C_9
REMARK    5  A    between atoms: C_12  and  N_15
REMARK    6  A    between atoms: N_15  and  C_16
REMARK    7  A    between atoms: N_15  and  C_17
REMARK                            x       y       z     vdW  Elec       q    Type
REMARK                         _______ _______ _______ _____ _____    ______ ____
ROOT
ATOM      1  N   UNL     1       3.732   6.150  -0.324  0.00  0.00    -0.253 N 
ATOM      2  C   UNL     1       2.492   5.700  -0.225  0.00  0.00    +0.259 C 
ATOM      3  O   UNL     1       1.536   6.454  -0.227  0.00  0.00    -0.269 OA
ATOM      4  C   UNL     1       2.326   4.238  -0.112  0.00  0.00    +0.077 C 
ATOM      5  C   UNL     1       1.190   3.502   0.002  0.00  0.00    +0.028 C 
ATOM      6  S   UNL     1       4.030   3.702  -0.158  0.00  0.00    -0.061 S 
ATOM      7  C   UNL     1       4.788   5.311  -0.322  0.00  0.00    +0.121 C 
ATOM      8  S   UNL     1       6.452   5.696  -0.439  0.00  0.00    -0.027 S 
ENDROOT
BRANCH   5   9
ATOM      9  C   UNL     1       1.254   2.038  -0.073  0.00  0.00    -0.024 A 
ATOM     10  C   UNL     1       0.121   1.269   0.225  0.00  0.00    +0.010 A 
ATOM     11  C   UNL     1       0.185  -0.099   0.154  0.00  0.00    +0.023 A 
ATOM     12  C   UNL     1       1.374  -0.724  -0.214  0.00  0.00    +0.029 A 
ATOM     13  C   UNL     1       2.502   0.036  -0.511  0.00  0.00    +0.023 A 
ATOM     14  C   UNL     1       2.447   1.404  -0.442  0.00  0.00    +0.010 A 
BRANCH  12  15
ATOM     15  N   UNL     1       1.434  -2.113  -0.286  0.00  0.00    -0.336 N 
ATOM     16  C   UNL     1       0.284  -2.918   0.132  0.00  0.00    +0.129 C 
ATOM     17  C   UNL     1       2.647  -2.769  -0.780  0.00  0.00    +0.129 C 
ENDBRANCH  12  15
ENDBRANCH   5   9
BRANCH   1  19
ATOM     18  C   UNL     1       4.822   8.066   0.734  0.00  0.00    +0.028 C 
ATOM     19  C   UNL     1       3.963   7.592  -0.440  0.00  0.00    +0.077 C 
ATOM     20  C   UNL     1       4.688   7.888  -1.755  0.00  0.00    +0.028 C 
ENDBRANCH   1  19
TORSDOF 3
