REMARK  Name = ZINC02997498
REMARK  6 active torsions:
REMARK  status: ('A' for Active; 'I' for Inactive)
REMARK    1  A    between atoms: C_1  and  C_2
REMARK    2  A    between atoms: C_7  and  C_34
REMARK    3  A    between atoms: C_10  and  C_12
REMARK    4  A    between atoms: C_12  and  S_13
REMARK    5  A    between atoms: S_13  and  C_14
REMARK    6  A    between atoms: N_27  and  C_28
REMARK                            x       y       z     vdW  Elec       q    Type
REMARK                         _______ _______ _______ _____ _____    ______ ____
ROOT
ATOM      1  C   UNL     1       3.711   6.822  -0.963  0.00  0.00    +0.178 A 
ATOM      2  N   UNL     1       4.676   5.979  -0.624  0.00  0.00    -0.215 NA
ATOM      3  C   UNL     1       4.314   4.757  -0.252  0.00  0.00    +0.117 A 
ATOM      4  C   UNL     1       2.973   4.312  -0.200  0.00  0.00    +0.076 A 
ATOM      5  C   UNL     1       2.772   2.939   0.232  0.00  0.00    -0.023 A 
ATOM      6  C   UNL     1       3.882   2.229   0.537  0.00  0.00    -0.004 A 
ATOM      7  S   UNL     1       5.236   3.345   0.269  0.00  0.00    -0.073 S 
ATOM      8  C   UNL     1       3.950   0.807   1.003  0.00  0.00    +0.043 C 
ATOM      9  C   UNL     1       2.546   0.372   1.444  0.00  0.00    +0.005 C 
ATOM     10  C   UNL     1       1.543   0.781   0.361  0.00  0.00    +0.005 C 
ATOM     11  C   UNL     1       1.389   2.302   0.345  0.00  0.00    +0.037 C 
ATOM     12  C   UNL     1       1.956   5.250  -0.574  0.00  0.00    +0.268 A 
ATOM     13  O   UNL     1       0.772   4.960  -0.561  0.00  0.00    -0.267 OA
ATOM     14  N   UNL     1       2.391   6.478  -0.942  0.00  0.00    -0.255 N 
ENDROOT
BRANCH  14  15
ATOM     15  C   UNL     1       1.443   7.438  -1.319  0.00  0.00    +0.052 A 
ATOM     16  C   UNL     1       1.260   8.576  -0.545  0.00  0.00    +0.026 A 
ATOM     17  C   UNL     1       0.329   9.524  -0.922  0.00  0.00    +0.002 A 
ATOM     18  C   UNL     1      -0.429   9.334  -2.063  0.00  0.00    +0.000 A 
ATOM     19  C   UNL     1      -0.253   8.199  -2.833  0.00  0.00    +0.002 A 
ATOM     20  C   UNL     1       0.680   7.251  -2.464  0.00  0.00    +0.026 A 
ENDBRANCH  14  15
BRANCH   1  21
ATOM     21  S   UNL     1       4.151   8.454  -1.462  0.00  0.00    -0.078 S 
BRANCH  21  22
ATOM     22  C   UNL     1       5.951   8.355  -1.306  0.00  0.00    +0.173 C 
BRANCH  22  30
ATOM     23  C   UNL     1       7.431  12.202  -2.006  0.00  0.00    +0.028 C 
ATOM     24  C   UNL     1       8.514  11.121  -2.004  0.00  0.00    +0.073 C 
ATOM     25  C   UNL     1       9.531  11.411  -0.889  0.00  0.00    +0.022 C 
ATOM     26  C   UNL     1      10.531  10.255  -0.807  0.00  0.00    +0.004 C 
ATOM     27  C   UNL     1       9.791   8.961  -0.460  0.00  0.00    +0.022 C 
ATOM     28  C   UNL     1       8.778   8.645  -1.565  0.00  0.00    +0.073 C 
ATOM     29  N   UNL     1       7.902   9.810  -1.750  0.00  0.00    -0.295 N 
ATOM     30  C   UNL     1       6.562   9.678  -1.692  0.00  0.00    +0.226 C 
ATOM     31  O   UNL     1       5.847  10.623  -1.952  0.00  0.00    -0.275 OA
ATOM     32  C   UNL     1       9.515   8.345  -2.871  0.00  0.00    +0.028 C 
ENDBRANCH  22  30
ENDBRANCH  21  22
ENDBRANCH   1  21
TORSDOF 4
