REMARK  Name = ZINC40023608
REMARK  8 active torsions:
REMARK  status: ('A' for Active; 'I' for Inactive)
REMARK    1  A    between atoms: C_1  and  C_2
REMARK    2  A    between atoms: C_15  and  C_17
REMARK    3  A    between atoms: C_17  and  N_18
REMARK    4  A    between atoms: N_18  and  C_19
REMARK    5  A    between atoms: N_18  and  C_20
REMARK    6  A    between atoms: C_20  and  C_21
REMARK    7  A    between atoms: C_23  and  O_24
REMARK    8  A    between atoms: C_33  and  C_35
REMARK                            x       y       z     vdW  Elec       q    Type
REMARK                         _______ _______ _______ _____ _____    ______ ____
ROOT
ATOM      1  N   UNL     1       4.015  -1.948   2.361  0.00  0.00    +0.386 N 
ATOM      2  C   UNL     1       4.707  -0.715   1.961  0.00  0.00    -0.095 C 
ATOM      3  H   UNL     1       3.915  -2.553   1.560  0.00  0.00    -0.081 HD
ENDROOT
BRANCH   1   4
ATOM      4  C   UNL     1       2.686  -1.613   2.890  0.00  0.00    +0.019 C 
BRANCH   4  18
ATOM      5  C   UNL     1      -0.319   1.459   1.164  0.00  0.00    +0.029 C 
ATOM      6  C   UNL     1      -0.256  -0.060   0.990  0.00  0.00    +0.087 C 
ATOM      7  C   UNL     1      -1.669  -0.639   1.068  0.00  0.00    +0.118 C 
ATOM      8  C   UNL     1      -1.608  -2.126   1.297  0.00  0.00    +0.219 C 
ATOM      9  O   UNL     1      -1.837  -2.886   0.380  0.00  0.00    -0.275 OA
ATOM     10  N   UNL     1      -1.298  -2.619   2.516  0.00  0.00    -0.284 N 
ATOM     11  C   UNL     1      -0.937  -1.757   3.558  0.00  0.00    +0.055 A 
ATOM     12  C   UNL     1      -1.528  -1.865   4.806  0.00  0.00    +0.025 A 
ATOM     13  C   UNL     1      -1.138  -1.018   5.828  0.00  0.00    +0.002 A 
ATOM     14  C   UNL     1      -0.160  -0.066   5.607  0.00  0.00    +0.002 A 
ATOM     15  C   UNL     1       0.428   0.055   4.362  0.00  0.00    +0.025 A 
ATOM     16  C   UNL     1       0.034  -0.782   3.330  0.00  0.00    +0.058 A 
ATOM     17  N   UNL     1       0.576  -0.637   2.047  0.00  0.00    -0.268 N 
ATOM     18  C   UNL     1       1.842  -1.021   1.791  0.00  0.00    +0.204 C 
ATOM     19  O   UNL     1       2.302  -0.890   0.677  0.00  0.00    -0.277 OA
ATOM     20  H   UNL     1      -1.327  -3.576   2.670  0.00  0.00    +0.155 HD
ENDBRANCH   4  18
ENDBRANCH   1   4
BRANCH   1  21
ATOM     21  C   UNL     1       4.797  -2.634   3.398  0.00  0.00    -0.042 C 
BRANCH  21  22
ATOM     22  C   UNL     1       6.113  -3.085   2.819  0.00  0.00    -0.047 A 
ATOM     23  C   UNL     1       6.211  -4.283   2.140  0.00  0.00    +0.090 A 
ATOM     24  C   UNL     1       7.431  -4.683   1.614  0.00  0.00    +0.285 A 
ATOM     25  O   UNL     1       8.527  -3.928   1.748  0.00  0.00    -0.425 OA
ATOM     26  C   UNL     1       8.488  -2.749   2.402  0.00  0.00    +0.141 A 
ATOM     27  C   UNL     1       7.271  -2.290   2.953  0.00  0.00    +0.019 A 
ATOM     28  C   UNL     1       7.224  -1.059   3.631  0.00  0.00    +0.013 A 
ATOM     29  C   UNL     1       8.350  -0.308   3.751  0.00  0.00    +0.024 A 
ATOM     30  C   UNL     1       9.564  -0.754   3.200  0.00  0.00    +0.037 A 
ATOM     31  C   UNL     1       9.629  -1.979   2.534  0.00  0.00    +0.070 A 
ATOM     32  N   UNL     1      10.685   0.008   3.326  0.00  0.00    -0.286 N 
ATOM     33  C   UNL     1      11.734  -0.230   2.562  0.00  0.00    +0.214 C 
ATOM     34  O   UNL     1      11.659  -1.048   1.663  0.00  0.00    -0.276 OA
ATOM     35  C   UNL     1      13.024   0.511   2.802  0.00  0.00    +0.109 C 
ATOM     36  H   UNL     1      10.713   0.726   3.977  0.00  0.00    +0.155 HD
BRANCH  24  37
ATOM     37  O   UNL     1       7.513  -5.854   0.954  0.00  0.00    -0.480 OA
ATOM     38  H   UNL     1       8.398  -6.056   0.619  0.00  0.00    +0.295 HD
ENDBRANCH  24  37
ENDBRANCH  21  22
ENDBRANCH   1  21
TORSDOF 5
