REMARK  Name = ZINC57681365
REMARK  3 active torsions:
REMARK  status: ('A' for Active; 'I' for Inactive)
REMARK    1  A    between atoms: C_9  and  S_11
REMARK    2  A    between atoms: S_11  and  C_12
REMARK    3  A    between atoms: C_12  and  C_13
REMARK                            x       y       z     vdW  Elec       q    Type
REMARK                         _______ _______ _______ _____ _____    ______ ____
ROOT
ATOM      1  C   UNL     1      -0.016   1.358   0.009  0.00  0.00    +0.001 A 
ATOM      2  C   UNL     1       1.169   2.088   0.002  0.00  0.00    +0.002 A 
ATOM      3  C   UNL     1       2.379   1.463  -0.013  0.00  0.00    +0.028 A 
ATOM      4  C   UNL     1       2.438   0.059  -0.021  0.00  0.00    +0.072 A 
ATOM      5  C   UNL     1       1.231  -0.681  -0.013  0.00  0.00    +0.000 A 
ATOM      6  C   UNL     1       0.002  -0.004   0.002  0.00  0.00    +0.010 A 
ATOM      7  C   UNL     1       1.290  -2.090  -0.021  0.00  0.00    +0.012 A 
ATOM      8  C   UNL     1       2.515  -2.685  -0.036  0.00  0.00    +0.035 A 
ATOM      9  C   UNL     1       3.675  -1.897  -0.044  0.00  0.00    +0.098 A 
ATOM     10  N   UNL     1       3.613  -0.580  -0.036  0.00  0.00    -0.240 NA
ENDROOT
BRANCH   9  11
ATOM     11  S   UNL     1       5.251  -2.684  -0.064  0.00  0.00    -0.100 S 
BRANCH  11  12
ATOM     12  C   UNL     1       6.430  -1.306  -0.068  0.00  0.00    +0.132 C 
BRANCH  12  13
ATOM     13  C   UNL     1       7.836  -1.848  -0.085  0.00  0.00    +0.071 A 
ATOM     14  C   UNL     1       8.578  -2.141   0.996  0.00  0.00    +0.117 A 
ATOM     15  N   UNL     1       9.809  -2.614   0.549  0.00  0.00    -0.300 N 
ATOM     16  C   UNL     1      10.992  -3.073   1.087  0.00  0.00    +0.100 A 
ATOM     17  C   UNL     1      11.996  -3.455   0.301  0.00  0.00    +0.067 A 
ATOM     18  S   UNL     1      11.315  -3.182  -1.327  0.00  0.00    -0.058 S 
ATOM     19  C   UNL     1       9.725  -2.572  -0.818  0.00  0.00    +0.178 A 
ATOM     20  N   UNL     1       8.558  -2.125  -1.182  0.00  0.00    -0.225 NA
ENDBRANCH  12  13
ENDBRANCH  11  12
ENDBRANCH   9  11
TORSDOF 3
