REMARK  Name = ZINC09283141
REMARK  7 active torsions:
REMARK  status: ('A' for Active; 'I' for Inactive)
REMARK    1  A    between atoms: C_1  and  C_2
REMARK    2  A    between atoms: C_9  and  N_14
REMARK    3  A    between atoms: C_10  and  C_11
REMARK    4  A    between atoms: C_15  and  C_17
REMARK    5  A    between atoms: C_17  and  O_18
REMARK    6  A    between atoms: O_18  and  C_19
REMARK    7  A    between atoms: C_19  and  C_21
REMARK                            x       y       z     vdW  Elec       q    Type
REMARK                         _______ _______ _______ _____ _____    ______ ____
ROOT
ATOM      1  N   UNL     1      -0.011   0.966   0.007  0.00  0.00    -0.277 N 
ATOM      2  C   UNL     1       1.147   1.655   0.000  0.00  0.00    +0.255 C 
ATOM      3  O   UNL     1       1.130   2.868   0.007  0.00  0.00    -0.272 OA
ATOM      4  H   UNL     1       0.002  -0.004   0.002  0.00  0.00    +0.155 HD
ENDROOT
BRANCH   1  12
ATOM      5  C   UNL     1      -6.616   5.157  -0.035  0.00  0.00    +0.008 C 
ATOM      6  C   UNL     1      -5.599   4.053  -0.329  0.00  0.00    -0.009 C 
ATOM      7  C   UNL     1      -5.931   2.810   0.503  0.00  0.00    +0.008 C 
ATOM      8  C   UNL     1      -5.080   1.628   0.036  0.00  0.00    +0.037 C 
ATOM      9  C   UNL     1      -3.616   2.051   0.030  0.00  0.00    -0.023 A 
ATOM     10  C   UNL     1      -3.268   3.356   0.035  0.00  0.00    -0.004 A 
ATOM     11  S   UNL     1      -1.498   3.353   0.035  0.00  0.00    -0.077 S 
ATOM     12  C   UNL     1      -1.221   1.643   0.017  0.00  0.00    +0.084 A 
ATOM     13  C   UNL     1      -2.505   1.115   0.020  0.00  0.00    +0.068 A 
ATOM     14  C   UNL     1      -4.190   4.536   0.046  0.00  0.00    +0.046 C 
BRANCH  13  15
ATOM     15  C   UNL     1      -2.731  -0.334   0.014  0.00  0.00    +0.244 C 
ATOM     16  O   UNL     1      -2.819  -0.941   1.065  0.00  0.00    -0.270 OA
ATOM     17  N   UNL     1      -2.840  -0.994  -1.156  0.00  0.00    -0.325 N 
ATOM     18  H   UNL     1      -2.770  -0.510  -1.994  0.00  0.00    +0.145 HD
ATOM     19  H   UNL     1      -2.990  -1.952  -1.160  0.00  0.00    +0.145 HD
ENDBRANCH  13  15
ENDBRANCH   1  12
BRANCH   2  20
ATOM     20  C   UNL     1       2.462   0.920  -0.017  0.00  0.00    +0.328 C 
BRANCH  20  21
ATOM     21  O   UNL     1       3.553   1.878  -0.022  0.00  0.00    -0.452 OA
BRANCH  21  22
ATOM     22  C   UNL     1       4.805   1.380  -0.036  0.00  0.00    +0.340 C 
ATOM     23  O   UNL     1       4.980   0.178  -0.044  0.00  0.00    -0.245 OA
BRANCH  22  24
ATOM     24  C   UNL     1       5.962   2.294  -0.043  0.00  0.00    +0.060 A 
ATOM     25  C   UNL     1       5.770   3.684  -0.039  0.00  0.00    +0.017 A 
ATOM     26  C   UNL     1       6.819   4.543  -0.039  0.00  0.00    +0.029 A 
ATOM     27  C   UNL     1       8.151   4.064  -0.054  0.00  0.00    +0.078 A 
ATOM     28  C   UNL     1       8.321   2.659  -0.063  0.00  0.00    +0.040 A 
ATOM     29  C   UNL     1       7.265   1.788  -0.058  0.00  0.00    +0.032 A 
ATOM     30  S   UNL     1      10.089   2.498  -0.080  0.00  0.00    -0.075 S 
ATOM     31  C   UNL     1      10.473   4.192  -0.074  0.00  0.00    +0.157 A 
ATOM     32  N   UNL     1       9.301   4.765  -0.061  0.00  0.00    -0.247 NA
ENDBRANCH  22  24
ENDBRANCH  21  22
ENDBRANCH  20  21
ENDBRANCH   2  20
TORSDOF 6
