REMARK  Name = ZINC57944542
REMARK  11 active torsions:
REMARK  status: ('A' for Active; 'I' for Inactive)
REMARK    1  A    between atoms: C_1  and  N_2
REMARK    2  A    between atoms: N_2  and  C_3
REMARK    3  A    between atoms: N_2  and  C_10
REMARK    4  A    between atoms: C_3  and  C_4
REMARK    5  A    between atoms: C_10  and  C_11
REMARK    6  A    between atoms: C_11  and  C_13
REMARK    7  A    between atoms: C_11  and  O_23
REMARK    8  A    between atoms: C_13  and  O_14
REMARK    9  A    between atoms: O_14  and  C_15
REMARK   10  A    between atoms: C_18  and  O_21
REMARK   11  A    between atoms: O_21  and  C_22
REMARK                            x       y       z     vdW  Elec       q    Type
REMARK                         _______ _______ _______ _____ _____    ______ ____
ROOT
ATOM      1  C   UNL     1      -0.188  -0.319   2.423  0.00  0.00    +0.135 C 
ENDROOT
BRANCH   1   2
ATOM      2  O   UNL     1      -0.412   1.087   2.544  0.00  0.00    -0.390 OA
ATOM      3  H   UNL     1       0.398   1.609   2.626  0.00  0.00    +0.210 HD
ENDBRANCH   1   2
BRANCH   1   4
ATOM      4  C   UNL     1       0.655  -0.596   1.177  0.00  0.00    -0.044 C 
BRANCH   4   6
ATOM      5  C   UNL     1       0.808  -0.254  -1.192  0.00  0.00    -0.096 C 
ATOM      6  N   UNL     1      -0.056  -0.112  -0.013  0.00  0.00    +0.383 N 
ATOM      7  H   UNL     1      -0.299   0.859   0.111  0.00  0.00    -0.082 HD
BRANCH   6   8
ATOM      8  C   UNL     1      -1.280  -0.901  -0.207  0.00  0.00    -0.036 C 
BRANCH   8   9
ATOM      9  C   UNL     1      -2.072  -0.328  -1.353  0.00  0.00    -0.026 A 
ATOM     10  C   UNL     1      -2.012  -0.638  -2.671  0.00  0.00    +0.010 A 
ATOM     11  C   UNL     1      -2.844   0.025  -3.554  0.00  0.00    +0.023 A 
ATOM     12  C   UNL     1      -3.695   0.967  -3.075  0.00  0.00    +0.055 A 
ATOM     13  S   UNL     1      -3.338   0.931  -1.326  0.00  0.00    -0.088 S 
ATOM     14 BR   UNL     1      -4.941   2.034  -4.015  0.00  0.00    -0.043 Br
ENDBRANCH   8   9
ENDBRANCH   6   8
ENDBRANCH   4   6
ENDBRANCH   1   4
BRANCH   1  15
ATOM     15  C   UNL     1       0.552  -0.826   3.663  0.00  0.00    +0.258 C 
BRANCH  15  16
ATOM     16  O   UNL     1      -0.283  -0.674   4.812  0.00  0.00    -0.489 OA
BRANCH  16  17
ATOM     17  C   UNL     1       0.228  -1.079   6.005  0.00  0.00    +0.121 A 
ATOM     18  C   UNL     1       1.509  -1.607   6.067  0.00  0.00    +0.049 A 
ATOM     19  C   UNL     1       2.028  -2.019   7.279  0.00  0.00    +0.049 A 
ATOM     20  C   UNL     1       1.268  -1.905   8.434  0.00  0.00    +0.120 A 
ATOM     21  C   UNL     1      -0.013  -1.376   8.372  0.00  0.00    +0.049 A 
ATOM     22  C   UNL     1      -0.530  -0.960   7.160  0.00  0.00    +0.049 A 
BRANCH  20  23
ATOM     23  O   UNL     1       1.779  -2.311   9.627  0.00  0.00    -0.495 OA
ATOM     24  C   UNL     1       0.941  -2.164  10.775  0.00  0.00    +0.277 C 
ENDBRANCH  20  23
ENDBRANCH  16  17
ENDBRANCH  15  16
ENDBRANCH   1  15
TORSDOF 9
