REMARK  Name = ZINC20363211
REMARK  8 active torsions:
REMARK  status: ('A' for Active; 'I' for Inactive)
REMARK    1  A    between atoms: C_1  and  C_2
REMARK    2  A    between atoms: C_2  and  C_4
REMARK    3  A    between atoms: C_2  and  C_22
REMARK    4  A    between atoms: C_4  and  N_5
REMARK    5  A    between atoms: N_5  and  C_6
REMARK    6  A    between atoms: C_6  and  C_7
REMARK    7  A    between atoms: C_14  and  O_16
REMARK    8  A    between atoms: O_16  and  C_17
REMARK                            x       y       z     vdW  Elec       q    Type
REMARK                         _______ _______ _______ _____ _____    ______ ____
ROOT
ATOM      1  C   UNL     1      -4.149  -0.225  -2.550  0.00  0.00    +0.014 C 
ATOM      2  C   UNL     1      -4.174  -1.084  -3.609  0.00  0.00    +0.018 C 
ATOM      3  C   UNL     1      -4.785  -0.699  -4.808  0.00  0.00    -0.003 C 
ATOM      4  C   UNL     1      -4.813  -1.626  -5.951  0.00  0.00    +0.041 C 
ATOM      5  C   UNL     1      -4.237  -2.883  -5.835  0.00  0.00    +0.024 C 
ATOM      6  C   UNL     1      -4.268  -3.751  -6.917  0.00  0.00    +0.007 C 
ATOM      7  C   UNL     1      -4.876  -3.343  -8.097  0.00  0.00    +0.063 C 
ATOM      8  C   UNL     1      -5.439  -2.084  -8.178  0.00  0.00    +0.184 C 
ATOM      9  N   UNL     1      -5.408  -1.249  -7.117  0.00  0.00    -0.285 N 
ATOM     10  C   UNL     1      -5.371   0.569  -4.921  0.00  0.00    +0.013 C 
ATOM     11  C   UNL     1      -5.347   1.428  -3.863  0.00  0.00    +0.052 C 
ATOM     12  C   UNL     1      -4.739   1.041  -2.660  0.00  0.00    +0.183 C 
ATOM     13  O   UNL     1      -4.720   1.880  -1.622  0.00  0.00    -0.288 OA
ATOM     14  H   UNL     1      -5.811  -0.370  -7.187  0.00  0.00    +0.155 HD
ENDROOT
BRANCH   8  15
ATOM     15  O   UNL     1      -6.030  -1.687  -9.326  0.00  0.00    -0.482 OA
ATOM     16  C   UNL     1      -6.594  -0.374  -9.345  0.00  0.00    +0.278 C 
ENDBRANCH   8  15
BRANCH   1  17
ATOM     17  C   UNL     1      -3.491  -0.640  -1.259  0.00  0.00    +0.120 C 
BRANCH  17  18
ATOM     18  N   UNL     1      -2.107  -0.147  -1.234  0.00  0.00    -0.311 NA
ATOM     19  H   UNL     1      -2.077   0.853  -1.367  0.00  0.00    +0.122 HD
BRANCH  18  20
ATOM     20  C   UNL     1      -1.433  -0.534   0.013  0.00  0.00    +0.089 C 
BRANCH  20  22
ATOM     21  C   UNL     1      -0.019   1.526   0.010  0.00  0.00    +0.014 C 
ATOM     22  C   UNL     1       0.002  -0.004   0.002  0.00  0.00    +0.030 C 
BRANCH  22  23
ATOM     23  C   UNL     1       0.731  -0.503   1.223  0.00  0.00    -0.043 A 
ATOM     24  C   UNL     1       0.263  -0.187   2.485  0.00  0.00    +0.004 A 
ATOM     25  C   UNL     1       0.931  -0.645   3.605  0.00  0.00    +0.000 A 
ATOM     26  C   UNL     1       2.068  -1.419   3.463  0.00  0.00    +0.000 A 
ATOM     27  C   UNL     1       2.535  -1.736   2.201  0.00  0.00    +0.000 A 
ATOM     28  C   UNL     1       1.864  -1.282   1.081  0.00  0.00    +0.004 A 
ENDBRANCH  22  23
ENDBRANCH  20  22
ENDBRANCH  18  20
ENDBRANCH  17  18
ENDBRANCH   1  17
TORSDOF 6
