REMARK  Name = ZINC45619919
REMARK  7 active torsions:
REMARK  status: ('A' for Active; 'I' for Inactive)
REMARK    1  A    between atoms: N_9  and  C_25
REMARK    2  A    between atoms: C_10  and  S_12
REMARK    3  A    between atoms: S_12  and  C_13
REMARK    4  A    between atoms: C_13  and  C_14
REMARK    5  A    between atoms: N_16  and  C_17
REMARK    6  A    between atoms: C_18  and  C_22
REMARK    7  A    between atoms: C_28  and  C_31
REMARK                            x       y       z     vdW  Elec       q    Type
REMARK                         _______ _______ _______ _____ _____    ______ ____
ROOT
ATOM      1  C   UNL     1       0.383   1.393   1.244  0.00  0.00    +0.001 A 
ATOM      2  C   UNL     1       1.338   2.102   0.526  0.00  0.00    +0.002 A 
ATOM      3  C   UNL     1       2.338   1.455  -0.144  0.00  0.00    +0.028 A 
ATOM      4  C   UNL     1       2.404   0.059  -0.108  0.00  0.00    +0.079 A 
ATOM      5  C   UNL     1       1.432  -0.659   0.625  0.00  0.00    +0.065 A 
ATOM      6  C   UNL     1       0.422   0.027   1.298  0.00  0.00    +0.015 A 
ATOM      7  C   UNL     1       1.522  -2.125   0.647  0.00  0.00    +0.267 A 
ATOM      8  O   UNL     1       0.714  -2.798   1.260  0.00  0.00    -0.267 OA
ATOM      9  N   UNL     1       2.538  -2.700  -0.038  0.00  0.00    -0.255 N 
ATOM     10  C   UNL     1       3.438  -1.930  -0.722  0.00  0.00    +0.177 A 
ATOM     11  N   UNL     1       3.377  -0.622  -0.757  0.00  0.00    -0.223 NA
ENDROOT
BRANCH   9  12
ATOM     12  C   UNL     1       2.667  -4.092  -0.047  0.00  0.00    +0.052 A 
ATOM     13  C   UNL     1       2.038  -4.841  -1.035  0.00  0.00    +0.027 A 
ATOM     14  C   UNL     1       2.164  -6.212  -1.047  0.00  0.00    +0.021 A 
ATOM     15  C   UNL     1       2.925  -6.851  -0.065  0.00  0.00    +0.052 A 
ATOM     16  C   UNL     1       3.556  -6.095   0.927  0.00  0.00    +0.021 A 
ATOM     17  C   UNL     1       3.430  -4.723   0.929  0.00  0.00    +0.027 A 
BRANCH  15  18
ATOM     18  C   UNL     1       3.058  -8.277  -0.073  0.00  0.00    +0.099 C 
ATOM     19  N   UNL     1       3.163  -9.408  -0.080  0.00  0.00    -0.191 NA
ENDBRANCH  15  18
ENDBRANCH   9  12
BRANCH  10  20
ATOM     20  S   UNL     1       4.739  -2.735  -1.596  0.00  0.00    -0.078 S 
BRANCH  20  21
ATOM     21  C   UNL     1       5.676  -1.372  -2.341  0.00  0.00    +0.173 C 
BRANCH  21  22
ATOM     22  C   UNL     1       6.833  -1.929  -3.129  0.00  0.00    +0.228 C 
ATOM     23  O   UNL     1       7.010  -3.128  -3.182  0.00  0.00    -0.275 OA
ATOM     24  N   UNL     1       7.673  -1.095  -3.774  0.00  0.00    -0.279 N 
ATOM     25  H   UNL     1       7.533  -0.137  -3.731  0.00  0.00    +0.155 HD
BRANCH  24  26
ATOM     26  C   UNL     1       8.739  -1.608  -4.498  0.00  0.00    +0.084 A 
ATOM     27  C   UNL     1       9.699  -0.908  -5.214  0.00  0.00    +0.065 A 
ATOM     28  C   UNL     1      10.708  -1.697  -5.883  0.00  0.00    +0.022 A 
ATOM     29  C   UNL     1      10.603  -3.031  -5.737  0.00  0.00    +0.048 A 
ATOM     30  S   UNL     1       9.166  -3.217  -4.704  0.00  0.00    -0.081 S 
BRANCH  27  31
ATOM     31  C   UNL     1       9.691   0.556  -5.287  0.00  0.00    +0.244 C 
ATOM     32  O   UNL     1       8.825   1.189  -4.711  0.00  0.00    -0.270 OA
ATOM     33  N   UNL     1      10.641   1.201  -5.993  0.00  0.00    -0.325 N 
ATOM     34  H   UNL     1      11.331   0.696  -6.452  0.00  0.00    +0.145 HD
ATOM     35  H   UNL     1      10.635   2.170  -6.041  0.00  0.00    +0.145 HD
ENDBRANCH  27  31
ENDBRANCH  24  26
ENDBRANCH  21  22
ENDBRANCH  20  21
ENDBRANCH  10  20
TORSDOF 7
