REMARK  Name = ZINC14548310
REMARK  7 active torsions:
REMARK  status: ('A' for Active; 'I' for Inactive)
REMARK    1  A    between atoms: C_1  and  C_2
REMARK    2  A    between atoms: C_2  and  C_3
REMARK    3  A    between atoms: C_2  and  C_4
REMARK    4  A    between atoms: C_2  and  N_5
REMARK    5  A    between atoms: C_6  and  C_8
REMARK    6  A    between atoms: C_21  and  C_24
REMARK    7  A    between atoms: C_33  and  O_34
REMARK                            x       y       z     vdW  Elec       q    Type
REMARK                         _______ _______ _______ _____ _____    ______ ____
ROOT
ATOM      1  C   UNL     1       1.159   3.172   0.007  0.00  0.00    +0.037 A 
ATOM      2  C   UNL     1       1.171   1.774   0.000  0.00  0.00    +0.015 A 
ATOM      3  C   UNL     1      -0.013   1.076   0.008  0.00  0.00    +0.024 A 
ATOM      4  C   UNL     1      -1.232   1.750   0.017  0.00  0.00    +0.031 A 
ATOM      5  C   UNL     1      -1.243   3.153   0.017  0.00  0.00    -0.019 A 
ATOM      6  C   UNL     1      -0.061   3.853   0.016  0.00  0.00    +0.019 A 
ATOM      7  C   UNL     1      -2.561   3.824  -0.009  0.00  0.00    +0.049 C 
ATOM      8  C   UNL     1      -2.757   5.196   0.514  0.00  0.00    -0.023 C 
ATOM      9  C   UNL     1      -3.995   5.295   0.982  0.00  0.00    -0.030 C 
ATOM     10  C   UNL     1      -4.723   3.959   0.823  0.00  0.00    +0.033 C 
ATOM     11  C   UNL     1      -3.552   2.968   0.822  0.00  0.00    +0.029 C 
ATOM     12  C   UNL     1      -3.736   1.678   0.043  0.00  0.00    +0.109 C 
ATOM     13  N   UNL     1      -2.415   1.013   0.054  0.00  0.00    -0.336 N 
ATOM     14  H   UNL     1      -2.370   0.045   0.087  0.00  0.00    +0.147 HD
ENDROOT
BRANCH  12  15
ATOM     15  C   UNL     1      -4.763   0.805   0.717  0.00  0.00    +0.022 A 
ATOM     16  C   UNL     1      -6.028   0.625   0.135  0.00  0.00    -0.009 A 
ATOM     17  C   UNL     1      -6.367   1.247  -1.079  0.00  0.00    +0.009 A 
ATOM     18  C   UNL     1      -7.602   1.051  -1.615  0.00  0.00    +0.001 A 
ATOM     19  C   UNL     1      -8.540   0.240  -0.977  0.00  0.00    +0.001 A 
ATOM     20  C   UNL     1      -8.243  -0.387   0.194  0.00  0.00    +0.008 A 
ATOM     21  C   UNL     1      -6.980  -0.204   0.780  0.00  0.00    -0.017 A 
ATOM     22  C   UNL     1      -6.645  -0.822   1.998  0.00  0.00    +0.012 A 
ATOM     23  C   UNL     1      -5.413  -0.623   2.539  0.00  0.00    +0.046 A 
ATOM     24  C   UNL     1      -4.471   0.189   1.901  0.00  0.00    +0.122 A 
BRANCH  24  25
ATOM     25  O   UNL     1      -3.248   0.368   2.466  0.00  0.00    -0.506 OA
ATOM     26  H   UNL     1      -3.200   1.122   3.070  0.00  0.00    +0.292 HD
ENDBRANCH  24  25
ENDBRANCH  12  15
BRANCH   1  28
ATOM     27  N   UNL     1       3.603   3.264  -0.000  0.00  0.00    -0.307 N 
ATOM     28  C   UNL     1       2.428   3.924   0.007  0.00  0.00    +0.244 C 
ATOM     29  O   UNL     1       2.414   5.140   0.013  0.00  0.00    -0.270 OA
ATOM     30  H   UNL     1       3.615   2.294  -0.005  0.00  0.00    +0.150 HD
BRANCH  27  32
ATOM     31  C   UNL     1       4.938   4.885   1.253  0.00  0.00    +0.031 C 
ATOM     32  C   UNL     1       4.863   4.011  -0.001  0.00  0.00    +0.026 C 
ATOM     33  C   UNL     1       6.038   3.031  -0.009  0.00  0.00    +0.031 C 
ATOM     34  C   UNL     1       4.930   4.898  -1.246  0.00  0.00    +0.031 C 
ENDBRANCH  27  32
ENDBRANCH   1  28
TORSDOF 4
