REMARK  Name = ZINC13064508
REMARK  16 active torsions:
REMARK  status: ('A' for Active; 'I' for Inactive)
REMARK    1  A    between atoms: C_1  and  C_2
REMARK    2  A    between atoms: C_2  and  C_3
REMARK    3  A    between atoms: C_3  and  C_5
REMARK    4  A    between atoms: C_3  and  N_73
REMARK    5  A    between atoms: N_9  and  C_10
REMARK    6  A    between atoms: C_10  and  C_11
REMARK    7  A    between atoms: C_11  and  O_13
REMARK    8  A    between atoms: O_13  and  C_14
REMARK    9  A    between atoms: C_14  and  C_15
REMARK   10  A    between atoms: C_16  and  C_17
REMARK   11  A    between atoms: C_16  and  N_73
REMARK   12  A    between atoms: C_21  and  O_31
REMARK   13  A    between atoms: C_22  and  O_29
REMARK   14  A    between atoms: O_29  and  C_30
REMARK   15  A    between atoms: O_31  and  C_32
REMARK   16  A    between atoms: C_33  and  N_73
REMARK                            x       y       z     vdW  Elec       q    Type
REMARK                         _______ _______ _______ _____ _____    ______ ____
ROOT
ATOM      1  N   UNL     1      -5.258   4.308  -1.194  0.00  0.00    +0.391 N 
ATOM      2  H   UNL     1      -4.492   4.616  -1.804  0.00  0.00    -0.080 HD
ENDROOT
BRANCH   1   3
ATOM      3  C   UNL     1      -5.547   2.884  -1.467  0.00  0.00    -0.067 C 
ATOM      4  C   UNL     1      -4.282   2.231  -2.027  0.00  0.00    -0.015 C 
ATOM      5  C   UNL     1      -4.560   0.757  -2.329  0.00  0.00    -0.002 C 
ATOM      6  C   UNL     1      -5.688   0.651  -3.358  0.00  0.00    -0.000 C 
ATOM      7  C   UNL     1      -6.952   1.304  -2.798  0.00  0.00    -0.002 C 
ATOM      8  C   UNL     1      -6.674   2.778  -2.496  0.00  0.00    -0.015 C 
ENDBRANCH   1   3
BRANCH   1   9
ATOM      9  C   UNL     1      -6.455   5.129  -1.476  0.00  0.00    +0.003 C 
BRANCH   9  10
ATOM     10  C   UNL     1      -7.546   4.832  -0.479  0.00  0.00    +0.139 A 
ATOM     11  N   UNL     1      -7.387   4.494   0.777  0.00  0.00    -0.115 NA
ATOM     12  N   UNL     1      -8.555   4.325   1.294  0.00  0.00    -0.023 NA
ATOM     13  N   UNL     1      -9.454   4.547   0.401  0.00  0.00    -0.043 NA
ATOM     14  N   UNL     1      -8.872   4.867  -0.705  0.00  0.00    -0.220 N 
BRANCH  14  15
ATOM     15  C   UNL     1      -9.530   5.203  -1.970  0.00  0.00    +0.267 C 
BRANCH  15  16
ATOM     16  C   UNL     1      -9.871   3.936  -2.711  0.00  0.00    +0.329 C 
ATOM     17  O   UNL     1      -9.711   2.863  -2.179  0.00  0.00    -0.249 OA
BRANCH  16  18
ATOM     18  O   UNL     1     -10.351   3.999  -3.963  0.00  0.00    -0.464 OA
BRANCH  18  19
ATOM     19  C   UNL     1     -10.738   2.745  -4.584  0.00  0.00    +0.229 C 
ATOM     20  C   UNL     1     -11.143   2.999  -6.038  0.00  0.00    +0.048 C 
ENDBRANCH  18  19
ENDBRANCH  16  18
ENDBRANCH  15  16
ENDBRANCH  14  15
ENDBRANCH   9  10
BRANCH   9  22
ATOM     21  C   UNL     1      -5.029   6.930  -2.459  0.00  0.00    +0.002 C 
ATOM     22  C   UNL     1      -6.071   6.607  -1.386  0.00  0.00    -0.011 C 
ENDBRANCH   9  22
ENDBRANCH   1   9
BRANCH   1  23
ATOM     23  C   UNL     1      -4.848   4.479   0.215  0.00  0.00    -0.036 C 
BRANCH  23  24
ATOM     24  C   UNL     1      -3.416   4.034   0.359  0.00  0.00    +0.001 A 
ATOM     25  C   UNL     1      -2.411   4.936   0.228  0.00  0.00    +0.017 A 
ATOM     26  C   UNL     1      -1.031   4.473   0.373  0.00  0.00    +0.002 A 
ATOM     27  C   UNL     1       0.045   5.361   0.247  0.00  0.00    +0.059 A 
ATOM     28  C   UNL     1       1.333   4.893   0.389  0.00  0.00    +0.162 A 
ATOM     29  C   UNL     1       1.567   3.541   0.658  0.00  0.00    +0.163 A 
ATOM     30  C   UNL     1       0.512   2.657   0.783  0.00  0.00    +0.075 A 
ATOM     31  C   UNL     1      -0.793   3.111   0.638  0.00  0.00    +0.053 A 
ATOM     32  N   UNL     1      -1.861   2.245   0.765  0.00  0.00    -0.322 N 
ATOM     33  H   UNL     1      -1.696   1.307   0.951  0.00  0.00    +0.169 HD
ATOM     34  C   UNL     1      -3.125   2.681   0.629  0.00  0.00    +0.251 A 
ATOM     35  O   UNL     1      -4.043   1.887   0.743  0.00  0.00    -0.268 OA
BRANCH  29  36
ATOM     36  O   UNL     1       2.842   3.092   0.796  0.00  0.00    -0.491 OA
ATOM     37  C   UNL     1       3.014   1.700   1.069  0.00  0.00    +0.277 C 
ENDBRANCH  29  36
BRANCH  28  38
ATOM     38  O   UNL     1       2.382   5.751   0.268  0.00  0.00    -0.491 OA
ATOM     39  C   UNL     1       2.073   7.119  -0.007  0.00  0.00    +0.277 C 
ENDBRANCH  28  38
ENDBRANCH  23  24
ENDBRANCH   1  23
TORSDOF 12
