REMARK  Name = ZINC14970015
REMARK  10 active torsions:
REMARK  status: ('A' for Active; 'I' for Inactive)
REMARK    1  A    between atoms: C_4  and  C_7
REMARK    2  A    between atoms: C_7  and  C_8
REMARK    3  A    between atoms: C_8  and  C_23
REMARK    4  A    between atoms: N_11  and  C_15
REMARK    5  A    between atoms: C_15  and  C_16
REMARK    6  A    between atoms: C_16  and  C_17
REMARK    7  A    between atoms: C_28  and  C_29
REMARK    8  A    between atoms: C_28  and  N_68
REMARK    9  A    between atoms: C_32  and  C_34
REMARK   10  A    between atoms: C_34  and  O_35
REMARK                            x       y       z     vdW  Elec       q    Type
REMARK                         _______ _______ _______ _____ _____    ______ ____
ROOT
ATOM      1  C   UNL     1       0.002  -0.004   0.002  0.00  0.00    +0.119 C 
ATOM      2  C   UNL     1       1.480  -0.340  -0.014  0.00  0.00    +0.247 C 
ATOM      3  O   UNL     1       1.980  -1.445  -0.025  0.00  0.00    -0.273 OA
ATOM      4  N   UNL     1       2.123   0.844  -0.014  0.00  0.00    -0.224 N 
ATOM      5  C   UNL     1       1.266   1.871   0.000  0.00  0.00    +0.309 C 
ATOM      6  O   UNL     1       1.608   3.037   0.003  0.00  0.00    -0.252 OA
ATOM      7  N   UNL     1      -0.018   1.469   0.010  0.00  0.00    -0.284 N 
ATOM      8  H   UNL     1      -0.803   2.038   0.017  0.00  0.00    +0.151 HD
ENDROOT
BRANCH   1   9
ATOM      9  C   UNL     1      -0.666  -0.558   1.262  0.00  0.00    +0.018 C 
ATOM     10  C   UNL     1      -2.124  -0.095   1.314  0.00  0.00    -0.013 C 
ATOM     11  C   UNL     1      -2.769  -0.600   2.607  0.00  0.00    -0.078 C 
ATOM     12  C   UNL     1      -0.637  -0.551   3.759  0.00  0.00    -0.078 C 
ATOM     13  C   UNL     1       0.071  -0.043   2.501  0.00  0.00    -0.013 C 
ATOM     14  N   UNL     1      -2.028  -0.049   3.761  0.00  0.00    +0.384 N 
ATOM     15  H   UNL     1      -2.013   0.975   3.689  0.00  0.00    -0.081 HD
BRANCH  14  16
ATOM     16  C   UNL     1      -2.700  -0.431   5.021  0.00  0.00    -0.003 C 
BRANCH  16  17
ATOM     17  C   UNL     1      -4.176  -0.155   4.896  0.00  0.00    +0.089 A 
ATOM     18  C   UNL     1      -5.105  -1.025   4.463  0.00  0.00    +0.043 A 
ATOM     19  C   UNL     1      -6.348  -0.353   4.508  0.00  0.00    +0.047 A 
ATOM     20  C   UNL     1      -6.104   0.888   4.966  0.00  0.00    +0.130 A 
ATOM     21  O   UNL     1      -4.788   1.000   5.205  0.00  0.00    -0.464 OA
BRANCH  20  22
ATOM     22  C   UNL     1      -7.135   1.966   5.181  0.00  0.00    +0.230 C 
BRANCH  22  23
ATOM     23  O   UNL     1      -7.646   1.877   6.512  0.00  0.00    -0.387 OA
ATOM     24  H   UNL     1      -8.316   2.543   6.721  0.00  0.00    +0.210 HD
ENDBRANCH  22  23
ENDBRANCH  20  22
ENDBRANCH  16  17
ENDBRANCH  14  16
ENDBRANCH   1   9
BRANCH   1  25
ATOM     25  C   UNL     1      -0.686  -0.545  -1.253  0.00  0.00    +0.070 C 
BRANCH  25  29
ATOM     26  C   UNL     1       1.321   0.925  -4.725  0.00  0.00    +0.000 A 
ATOM     27  C   UNL     1       1.720  -0.266  -4.149  0.00  0.00    +0.000 A 
ATOM     28  C   UNL     1       1.070  -0.742  -3.025  0.00  0.00    +0.004 A 
ATOM     29  C   UNL     1       0.022  -0.026  -2.478  0.00  0.00    -0.045 A 
ATOM     30  C   UNL     1      -0.380   1.163  -3.057  0.00  0.00    +0.004 A 
ATOM     31  C   UNL     1       0.273   1.641  -4.178  0.00  0.00    +0.000 A 
ENDBRANCH  25  29
ENDBRANCH   1  25
BRANCH   4  32
ATOM     32  C   UNL     1       3.581   0.989  -0.027  0.00  0.00    +0.124 C 
BRANCH  32  33
ATOM     33  C   UNL     1       4.074   1.048  -1.474  0.00  0.00    +0.075 C 
BRANCH  33  34
ATOM     34  C   UNL     1       5.574   1.197  -1.488  0.00  0.00    +0.043 A 
ATOM     35  C   UNL     1       6.344   0.289  -2.190  0.00  0.00    +0.023 A 
ATOM     36  C   UNL     1       7.722   0.435  -2.197  0.00  0.00    +0.003 A 
ATOM     37  C   UNL     1       8.277   1.494  -1.494  0.00  0.00    +0.020 A 
ATOM     38  C   UNL     1       7.443   2.362  -0.816  0.00  0.00    +0.111 A 
ATOM     39  N   UNL     1       6.135   2.195  -0.835  0.00  0.00    -0.260 NA
ENDBRANCH  33  34
ENDBRANCH  32  33
ENDBRANCH   4  32
TORSDOF 10
