REMARK  Name = ZINC36587067
REMARK  18 active torsions:
REMARK  status: ('A' for Active; 'I' for Inactive)
REMARK    1  A    between atoms: C_1  and  C_2
REMARK    2  A    between atoms: C_2  and  C_3
REMARK    3  A    between atoms: C_3  and  C_4
REMARK    4  A    between atoms: C_4  and  C_5
REMARK    5  A    between atoms: C_5  and  C_6
REMARK    6  A    between atoms: C_6  and  C_8
REMARK    7  A    between atoms: C_6  and  N_22
REMARK    8  A    between atoms: N_10  and  C_11
REMARK    9  A    between atoms: C_11  and  S_12
REMARK   10  A    between atoms: S_12  and  C_15
REMARK   11  A    between atoms: C_18  and  C_21
REMARK   12  A    between atoms: N_22  and  C_33
REMARK   13  A    between atoms: C_23  and  C_25
REMARK   14  A    between atoms: C_29  and  O_32
REMARK   15  A    between atoms: C_30  and  O_31
REMARK   16  A    between atoms: C_33  and  C_34
REMARK   17  A    between atoms: C_33  and  C_35
REMARK   18  A    between atoms: C_33  and  C_36
REMARK                            x       y       z     vdW  Elec       q    Type
REMARK                         _______ _______ _______ _____ _____    ______ ____
ROOT
ATOM      1  C   UNL     1       2.387  -5.332  -1.245  0.00  0.00    +0.163 C 
ENDROOT
BRANCH   1   2
ATOM      2  C   UNL     1       2.677  -5.890  -2.614  0.00  0.00    +0.235 C 
ATOM      3  O   UNL     1       3.807  -5.863  -3.053  0.00  0.00    -0.274 OA
ATOM      4  N   UNL     1       1.680  -6.419  -3.351  0.00  0.00    -0.295 N 
ATOM      5  H   UNL     1       0.776  -6.440  -3.000  0.00  0.00    +0.150 HD
BRANCH   4   6
ATOM      6  C   UNL     1       1.962  -6.961  -4.682  0.00  0.00    +0.278 C 
BRANCH   6   7
ATOM      7  S   UNL     1       2.238  -8.750  -4.560  0.00  0.00    +0.013 S 
ATOM      8  O   UNL     1       2.450  -9.302  -5.853  0.00  0.00    -0.168 OA
ATOM      9  O   UNL     1       3.134  -9.036  -3.495  0.00  0.00    -0.168 OA
BRANCH   7  10
ATOM     10  C   UNL     1       0.691  -9.412  -4.037  0.00  0.00    +0.090 A 
ATOM     11  C   UNL     1       0.414  -9.538  -2.689  0.00  0.00    +0.027 A 
ATOM     12  C   UNL     1      -0.800 -10.057  -2.279  0.00  0.00    +0.005 A 
ATOM     13  C   UNL     1      -1.736 -10.451  -3.216  0.00  0.00    -0.050 A 
ATOM     14  C   UNL     1      -1.458 -10.325  -4.565  0.00  0.00    +0.005 A 
ATOM     15  C   UNL     1      -0.247  -9.801  -4.975  0.00  0.00    +0.027 A 
ATOM     16  C   UNL     1      -3.058 -11.018  -2.769  0.00  0.00    +0.044 C 
ENDBRANCH   7  10
ENDBRANCH   6   7
ENDBRANCH   4   6
ENDBRANCH   1   2
BRANCH   1  17
ATOM     17  N   UNL     1       3.495  -4.470  -0.824  0.00  0.00    -0.281 N 
ATOM     18  C   UNL     1       4.054  -4.636   0.391  0.00  0.00    +0.251 C 
ATOM     19  O   UNL     1       3.493  -5.312   1.231  0.00  0.00    -0.270 OA
BRANCH  18  20
ATOM     20  C   UNL     1       5.347  -3.997   0.701  0.00  0.00    +0.082 A 
ATOM     21  C   UNL     1       5.862  -3.008  -0.142  0.00  0.00    +0.017 A 
ATOM     22  C   UNL     1       7.070  -2.413   0.151  0.00  0.00    +0.005 A 
ATOM     23  C   UNL     1       7.780  -2.790   1.280  0.00  0.00    +0.049 A 
ATOM     24  C   UNL     1       7.283  -3.768   2.124  0.00  0.00    +0.159 A 
ATOM     25  C   UNL     1       6.062  -4.374   1.844  0.00  0.00    +0.171 A 
BRANCH  25  26
ATOM     26  O   UNL     1       5.568  -5.329   2.673  0.00  0.00    -0.503 OA
ATOM     27  H   UNL     1       5.845  -6.227   2.446  0.00  0.00    +0.292 HD
ENDBRANCH  25  26
BRANCH  24  28
ATOM     28  O   UNL     1       7.986  -4.133   3.230  0.00  0.00    -0.503 OA
ATOM     29  H   UNL     1       7.770  -3.619   4.021  0.00  0.00    +0.292 HD
ENDBRANCH  24  28
ENDBRANCH  18  20
BRANCH  17  30
ATOM     30  C   UNL     1       3.994  -3.427  -1.724  0.00  0.00    +0.030 C 
ATOM     31  C   UNL     1       3.111  -3.365  -2.972  0.00  0.00    +0.031 C 
ATOM     32  C   UNL     1       3.961  -2.076  -1.008  0.00  0.00    +0.031 C 
ATOM     33  C   UNL     1       5.433  -3.752  -2.132  0.00  0.00    +0.031 C 
ENDBRANCH  17  30
ENDBRANCH   1  17
BRANCH   1  34
ATOM     34  C   UNL     1       1.094  -4.515  -1.290  0.00  0.00    +0.032 C 
BRANCH  34  35
ATOM     35  C   UNL     1       0.487  -4.443   0.113  0.00  0.00    +0.002 C 
BRANCH  35  36
ATOM     36  C   UNL     1      -0.806  -3.626   0.068  0.00  0.00    -0.000 C 
BRANCH  36  38
ATOM     37  C   UNL     1      -2.706  -2.738   1.425  0.00  0.00    +0.004 C 
ATOM     38  C   UNL     1      -1.413  -3.554   1.470  0.00  0.00    -0.003 C 
ENDBRANCH  36  38
ENDBRANCH  35  36
ENDBRANCH  34  35
ENDBRANCH   1  34
TORSDOF 13
