REMARK  Name = ZINC16022693
REMARK  6 active torsions:
REMARK  status: ('A' for Active; 'I' for Inactive)
REMARK    1  A    between atoms: C_1  and  C_2
REMARK    2  A    between atoms: C_5  and  S_9
REMARK    3  A    between atoms: C_6  and  C_8
REMARK    4  A    between atoms: S_9  and  N_12
REMARK    5  A    between atoms: C_15  and  C_18
REMARK    6  A    between atoms: C_28  and  C_30
REMARK                            x       y       z     vdW  Elec       q    Type
REMARK                         _______ _______ _______ _____ _____    ______ ____
ROOT
ATOM      1  N   UNL     1       2.029  -2.972  -1.465  0.00  0.00    -0.177 NA
ATOM      2  C   UNL     1       0.980  -2.880  -2.490  0.00  0.00    +0.110 C 
ATOM      3  C   UNL     1       1.508  -2.026  -3.653  0.00  0.00    +0.030 C 
ATOM      4  C   UNL     1       2.827  -2.617  -4.155  0.00  0.00    +0.078 C 
ATOM      5  C   UNL     1       3.862  -2.588  -3.029  0.00  0.00    +0.030 C 
ATOM      6  C   UNL     1       3.364  -3.443  -1.859  0.00  0.00    +0.110 C 
ENDROOT
BRANCH   4   7
ATOM      7  C   UNL     1       3.330  -1.804  -5.320  0.00  0.00    +0.223 C 
ATOM      8  O   UNL     1       4.356  -1.167  -5.217  0.00  0.00    -0.275 OA
ATOM      9  N   UNL     1       2.639  -1.786  -6.477  0.00  0.00    -0.268 N 
ATOM     10  C   UNL     1       1.492  -2.543  -6.738  0.00  0.00    +0.040 A 
ATOM     11  C   UNL     1       0.823  -3.449  -5.913  0.00  0.00    +0.024 A 
ATOM     12  C   UNL     1      -0.305  -4.100  -6.366  0.00  0.00    +0.002 A 
ATOM     13  C   UNL     1      -0.781  -3.861  -7.642  0.00  0.00    +0.000 A 
ATOM     14  C   UNL     1      -0.124  -2.965  -8.464  0.00  0.00    +0.005 A 
ATOM     15  C   UNL     1       1.006  -2.310  -8.015  0.00  0.00    -0.024 A 
ATOM     16  C   UNL     1       1.903  -1.300  -8.694  0.00  0.00    +0.059 C 
ATOM     17  C   UNL     1       2.975  -0.966  -7.644  0.00  0.00    +0.083 C 
ATOM     18  C   UNL     1       4.363  -1.336  -8.171  0.00  0.00    +0.029 C 
ENDBRANCH   4   7
BRANCH   1  19
ATOM     19  S   UNL     1       1.710  -2.558   0.107  0.00  0.00    +0.061 S 
ATOM     20  O   UNL     1       2.731  -3.152   0.898  0.00  0.00    -0.153 OA
ATOM     21  O   UNL     1       0.330  -2.818   0.324  0.00  0.00    -0.153 OA
BRANCH  19  26
ATOM     22  C   UNL     1       2.432   3.415   0.561  0.00  0.00    +0.044 C 
ATOM     23  C   UNL     1       2.252   1.923   0.448  0.00  0.00    -0.050 A 
ATOM     24  C   UNL     1       0.991   1.368   0.565  0.00  0.00    +0.005 A 
ATOM     25  C   UNL     1       0.826  -0.000   0.461  0.00  0.00    +0.029 A 
ATOM     26  C   UNL     1       1.921  -0.814   0.240  0.00  0.00    +0.108 A 
ATOM     27  C   UNL     1       3.182  -0.259   0.122  0.00  0.00    -0.024 A 
ATOM     28  C   UNL     1       3.347   1.109   0.225  0.00  0.00    +0.008 A 
ATOM     29  C   UNL     1       4.376  -1.146  -0.121  0.00  0.00    +0.046 C 
ENDBRANCH  19  26
ENDBRANCH   1  19
TORSDOF 3
