REMARK  Name = ZINC01071687
REMARK  3 active torsions:
REMARK  status: ('A' for Active; 'I' for Inactive)
REMARK    1  A    between atoms: C_12  and  N_14
REMARK    2  A    between atoms: C_15  and  C_17
REMARK    3  A    between atoms: C_17  and  N_18
REMARK                            x       y       z     vdW  Elec       q    Type
REMARK                         _______ _______ _______ _____ _____    ______ ____
ROOT
ATOM      1  N   UNL     1       6.740   0.814  -0.058  0.00  0.00    -0.284 N 
ATOM      2  C   UNL     1       7.272  -0.317  -0.562  0.00  0.00    +0.237 C 
ATOM      3  O   UNL     1       6.556  -1.144  -1.085  0.00  0.00    -0.274 OA
ATOM      4  H   UNL     1       7.319   1.509   0.292  0.00  0.00    +0.155 HD
ENDROOT
BRANCH   1  16
ATOM      5  C   UNL     1      -1.248   3.106  -0.133  0.00  0.00    +0.000 A 
ATOM      6  C   UNL     1      -1.217   1.735   0.056  0.00  0.00    +0.001 A 
ATOM      7  C   UNL     1      -0.011   1.070   0.119  0.00  0.00    +0.009 A 
ATOM      8  C   UNL     1       1.185   1.778  -0.020  0.00  0.00    -0.014 A 
ATOM      9  C   UNL     1       1.143   3.156  -0.215  0.00  0.00    -0.035 A 
ATOM     10  C   UNL     1      -0.068   3.814  -0.271  0.00  0.00    +0.004 A 
ATOM     11  C   UNL     1       2.566   3.643  -0.330  0.00  0.00    +0.071 C 
ATOM     12  C   UNL     1       3.438   2.420  -0.183  0.00  0.00    -0.034 A 
ATOM     13  C   UNL     1       2.597   1.325  -0.000  0.00  0.00    -0.014 A 
ATOM     14  C   UNL     1       3.151   0.053   0.164  0.00  0.00    +0.010 A 
ATOM     15  C   UNL     1       4.519  -0.112   0.144  0.00  0.00    +0.024 A 
ATOM     16  C   UNL     1       5.352   0.985  -0.039  0.00  0.00    +0.034 A 
ATOM     17  C   UNL     1       4.805   2.252  -0.203  0.00  0.00    +0.028 A 
ENDBRANCH   1  16
BRANCH   2  18
ATOM     18  C   UNL     1       8.758  -0.554  -0.475  0.00  0.00    +0.224 C 
BRANCH  18  19
ATOM     19  N   UNL     1       9.084  -1.844  -1.089  0.00  0.00    -0.265 N 
ATOM     20  C   UNL     1       9.406  -2.061  -2.428  0.00  0.00    +0.091 A 
ATOM     21  C   UNL     1       9.519  -1.225  -3.528  0.00  0.00    +0.030 A 
ATOM     22  C   UNL     1       9.863  -1.751  -4.758  0.00  0.00    +0.002 A 
ATOM     23  C   UNL     1      10.096  -3.108  -4.894  0.00  0.00    +0.004 A 
ATOM     24  C   UNL     1       9.986  -3.948  -3.803  0.00  0.00    +0.048 A 
ATOM     25  C   UNL     1       9.641  -3.429  -2.564  0.00  0.00    +0.157 A 
ATOM     26  O   UNL     1       9.461  -3.992  -1.344  0.00  0.00    -0.407 OA
ATOM     27  C   UNL     1       9.132  -3.036  -0.462  0.00  0.00    +0.422 A 
ATOM     28  O   UNL     1       8.909  -3.217   0.720  0.00  0.00    -0.223 OA
ENDBRANCH  18  19
ENDBRANCH   2  18
TORSDOF 3
