REMARK  Name = ZINC02103080
REMARK  9 active torsions:
REMARK  status: ('A' for Active; 'I' for Inactive)
REMARK    1  A    between atoms: C_1  and  C_2
REMARK    2  A    between atoms: C_2  and  C_3
REMARK    3  A    between atoms: C_2  and  O_4
REMARK    4  A    between atoms: O_4  and  C_5
REMARK    5  A    between atoms: C_5  and  C_7
REMARK    6  A    between atoms: C_8  and  C_21
REMARK    7  A    between atoms: C_11  and  N_12
REMARK    8  A    between atoms: C_13  and  C_15
REMARK    9  A    between atoms: C_15  and  C_20
REMARK                            x       y       z     vdW  Elec       q    Type
REMARK                         _______ _______ _______ _____ _____    ______ ____
ROOT
ATOM      1  C   UNL     1      -1.255  -0.753   0.010  0.00  0.00    +0.095 A 
ATOM      2  C   UNL     1      -1.923  -1.131  -1.221  0.00  0.00    +0.005 A 
ATOM      3  C   UNL     1      -3.081  -1.829  -1.097  0.00  0.00    +0.056 A 
ATOM      4  S   UNL     1      -3.288  -1.970   0.665  0.00  0.00    -0.080 S 
ATOM      5  C   UNL     1      -1.869  -1.131   1.196  0.00  0.00    +0.086 A 
ENDROOT
BRANCH   2   6
ATOM      6  C   UNL     1      -1.366  -0.777  -2.548  0.00  0.00    -0.016 A 
ATOM      7  C   UNL     1      -0.982   0.535  -2.819  0.00  0.00    +0.010 A 
ATOM      8  C   UNL     1      -0.460   0.858  -4.054  0.00  0.00    +0.020 A 
ATOM      9  C   UNL     1      -0.326  -0.117  -5.029  0.00  0.00    +0.041 A 
ATOM     10  C   UNL     1      -0.711  -1.421  -4.767  0.00  0.00    +0.020 A 
ATOM     11  C   UNL     1      -1.230  -1.755  -3.533  0.00  0.00    +0.010 A 
ATOM     12 CL   UNL     1       0.325   0.297  -6.583  0.00  0.00    -0.084 Cl
ENDBRANCH   2   6
BRANCH   5  13
ATOM     13  N   UNL     1      -1.448  -0.894   2.495  0.00  0.00    -0.279 N 
ATOM     14  C   UNL     1      -2.181  -1.342   3.533  0.00  0.00    +0.226 C 
ATOM     15  O   UNL     1      -3.210  -1.952   3.331  0.00  0.00    -0.275 OA
ATOM     16  H   UNL     1      -0.625  -0.406   2.656  0.00  0.00    +0.155 HD
BRANCH  14  17
ATOM     17  C   UNL     1      -1.723  -1.084   4.946  0.00  0.00    +0.080 C 
ATOM     18  C   UNL     1      -2.550  -0.114   5.791  0.00  0.00    +0.058 C 
ATOM     19  C   UNL     1      -2.600  -1.616   6.081  0.00  0.00    +0.133 C 
ATOM     20 CL   UNL     1      -4.103  -2.503   5.627  0.00  0.00    -0.100 Cl
ATOM     21 CL   UNL     1      -1.769  -2.205   7.569  0.00  0.00    -0.100 Cl
ATOM     22  C   UNL     1      -0.208  -1.093   5.160  0.00  0.00    +0.024 C 
ENDBRANCH  14  17
ENDBRANCH   5  13
BRANCH   1  23
ATOM     23  C   UNL     1       0.002  -0.004   0.002  0.00  0.00    +0.342 C 
ATOM     24  O   UNL     1       1.064  -0.598  -0.011  0.00  0.00    -0.245 OA
BRANCH  23  25
ATOM     25  O   UNL     1      -0.016   1.345   0.009  0.00  0.00    -0.458 OA
BRANCH  25  27
ATOM     26  C   UNL     1       1.131   3.368  -0.712  0.00  0.00    +0.052 C 
ATOM     27  C   UNL     1       1.268   2.022   0.001  0.00  0.00    +0.171 C 
ATOM     28  C   UNL     1       1.733   2.252   1.440  0.00  0.00    +0.052 C 
ENDBRANCH  25  27
ENDBRANCH  23  25
ENDBRANCH   1  23
TORSDOF 6
