REMARK  Name = ZINC51056036
REMARK  9 active torsions:
REMARK  status: ('A' for Active; 'I' for Inactive)
REMARK    1  A    between atoms: C_1  and  C_2
REMARK    2  A    between atoms: C_2  and  C_3
REMARK    3  A    between atoms: C_3  and  C_4
REMARK    4  A    between atoms: C_4  and  C_6
REMARK    5  A    between atoms: C_4  and  N_7
REMARK    6  A    between atoms: C_8  and  C_10
REMARK    7  A    between atoms: N_15  and  C_17
REMARK    8  A    between atoms: C_17  and  C_18
REMARK    9  A    between atoms: N_20  and  C_21
REMARK                            x       y       z     vdW  Elec       q    Type
REMARK                         _______ _______ _______ _____ _____    ______ ____
ROOT
ATOM      1  C   UNL     1      -2.343  -4.286  -1.032  0.00  0.00    +0.058 C 
ATOM      2  C   UNL     1      -3.287  -3.360  -0.259  0.00  0.00    +0.009 C 
ATOM      3  C   UNL     1      -4.705  -3.937  -0.306  0.00  0.00    -0.018 C 
ATOM      4  C   UNL     1      -4.690  -5.357   0.263  0.00  0.00    -0.078 C 
ATOM      5  N   UNL     1      -3.791  -6.199  -0.535  0.00  0.00    +0.386 N 
ATOM      6  C   UNL     1      -2.416  -5.694  -0.437  0.00  0.00    -0.065 C 
ATOM      7  H   UNL     1      -4.085  -6.184  -1.500  0.00  0.00    -0.081 HD
ENDROOT
BRANCH   1   9
ATOM      8  N   UNL     1      -0.629  -2.538  -1.389  0.00  0.00    -0.313 N 
ATOM      9  C   UNL     1      -0.932  -3.768  -0.927  0.00  0.00    +0.215 C 
ATOM     10  O   UNL     1      -0.069  -4.457  -0.427  0.00  0.00    -0.276 OA
ATOM     11  H   UNL     1      -1.320  -1.987  -1.789  0.00  0.00    +0.149 HD
BRANCH   8  12
ATOM     12  C   UNL     1       0.743  -2.034  -1.286  0.00  0.00    +0.070 C 
ATOM     13  C   UNL     1       1.556  -2.525  -2.485  0.00  0.00    +0.028 C 
BRANCH  12  14
ATOM     14  C   UNL     1       0.725  -0.504  -1.274  0.00  0.00    +0.022 C 
BRANCH  14  16
ATOM     15  C   UNL     1      -0.000   1.516   0.004  0.00  0.00    +0.004 C 
ATOM     16  C   UNL     1       0.018  -0.013  -0.009  0.00  0.00    -0.002 C 
ENDBRANCH  14  16
ENDBRANCH  12  14
ENDBRANCH   8  12
ENDBRANCH   1   9
BRANCH   5  17
ATOM     17  C   UNL     1      -3.840  -7.579  -0.033  0.00  0.00    +0.019 C 
BRANCH  17  18
ATOM     18  C   UNL     1      -5.219  -8.145  -0.256  0.00  0.00    +0.201 C 
ATOM     19  O   UNL     1      -6.076  -7.466  -0.780  0.00  0.00    -0.278 OA
ATOM     20  N   UNL     1      -5.500  -9.406   0.129  0.00  0.00    -0.287 N 
ATOM     21  H   UNL     1      -4.798  -9.972   0.487  0.00  0.00    +0.155 HD
BRANCH  20  22
ATOM     22  C   UNL     1      -6.805  -9.900   0.011  0.00  0.00    +0.036 A 
ATOM     23  C   UNL     1      -7.304 -10.777   0.965  0.00  0.00    +0.026 A 
ATOM     24  C   UNL     1      -8.592 -11.264   0.849  0.00  0.00    +0.043 A 
ATOM     25  C   UNL     1      -9.385 -10.878  -0.218  0.00  0.00    +0.159 A 
ATOM     26  C   UNL     1      -8.889 -10.002  -1.172  0.00  0.00    +0.160 A 
ATOM     27  C   UNL     1      -7.602  -9.509  -1.055  0.00  0.00    +0.064 A 
ATOM     28  F   UNL     1      -9.665  -9.627  -2.213  0.00  0.00    -0.202 F 
ATOM     29  F   UNL     1     -10.644 -11.355  -0.330  0.00  0.00    -0.202 F 
ENDBRANCH  20  22
ENDBRANCH  17  18
ENDBRANCH   5  17
TORSDOF 7
