REMARK  Name = ZINC24924564
REMARK  5 active torsions:
REMARK  status: ('A' for Active; 'I' for Inactive)
REMARK    1  A    between atoms: C_3  and  O_23
REMARK    2  A    between atoms: C_4  and  C_8
REMARK    3  A    between atoms: N_10  and  C_11
REMARK    4  A    between atoms: C_11  and  C_12
REMARK    5  A    between atoms: C_12  and  C_13
REMARK                            x       y       z     vdW  Elec       q    Type
REMARK                         _______ _______ _______ _____ _____    ______ ____
ROOT
ATOM      1  C   UNL     1       1.584   3.361   0.005  0.00  0.00    +0.248 C 
ATOM      2  O   UNL     1       0.649   4.139   0.018  0.00  0.00    -0.270 OA
ATOM      3  N   UNL     1       1.356   2.033   0.000  0.00  0.00    -0.311 N 
ATOM      4  H   UNL     1       2.201   1.330  -0.012  0.00  0.00    +0.149 HD
ENDROOT
BRANCH   1   8
ATOM      5  C   UNL     1       5.571   4.832  -0.026  0.00  0.00    +0.019 A 
ATOM      6  C   UNL     1       4.515   5.722  -0.011  0.00  0.00    +0.047 A 
ATOM      7  C   UNL     1       3.210   5.252  -0.006  0.00  0.00    +0.129 A 
ATOM      8  C   UNL     1       2.968   3.872  -0.005  0.00  0.00    +0.079 A 
ATOM      9  C   UNL     1       4.045   2.982  -0.021  0.00  0.00    +0.032 A 
ATOM     10  C   UNL     1       5.336   3.466  -0.031  0.00  0.00    +0.019 A 
ATOM     11 BR   UNL     1       6.793   2.261  -0.052  0.00  0.00    -0.050 Br
BRANCH   7  12
ATOM     12  O   UNL     1       2.172   6.126   0.003  0.00  0.00    -0.506 OA
ATOM     13  H   UNL     1       1.138   5.751   0.006  0.00  0.00    +0.292 HD
ENDBRANCH   7  12
ENDBRANCH   1   8
BRANCH   3  14
ATOM     14  C   UNL     1      -0.019   1.526   0.010  0.00  0.00    +0.112 C 
BRANCH  14  15
ATOM     15  C   UNL     1       0.002  -0.004   0.002  0.00  0.00    +0.095 C 
BRANCH  15  16
ATOM     16  C   UNL     1      -1.412  -0.526   0.013  0.00  0.00    +0.135 A 
ATOM     17  N   UNL     1      -2.150  -0.789  -1.033  0.00  0.00    -0.134 NA
ATOM     18  N   UNL     1      -3.301  -1.223  -0.654  0.00  0.00    -0.134 NA
ATOM     19  C   UNL     1      -3.346  -1.259   0.648  0.00  0.00    +0.133 A 
ATOM     20  N   UNL     1      -2.152  -0.814   1.106  0.00  0.00    -0.315 N 
ATOM     21  C   UNL     1      -1.758  -0.664   2.506  0.00  0.00    +0.125 C 
ATOM     22  C   UNL     1      -2.523  -1.679   3.361  0.00  0.00    +0.022 C 
ATOM     23  C   UNL     1      -3.844  -1.068   3.827  0.00  0.00    +0.002 C 
ATOM     24  C   UNL     1      -4.721  -0.716   2.629  0.00  0.00    +0.008 C 
ATOM     25  C   UNL     1      -4.493  -1.724   1.507  0.00  0.00    +0.076 C 
ENDBRANCH  15  16
ENDBRANCH  14  15
ENDBRANCH   3  14
TORSDOF 5
