REMARK  Name = ZINC63303172
REMARK  10 active torsions:
REMARK  status: ('A' for Active; 'I' for Inactive)
REMARK    1  A    between atoms: C_1  and  C_2
REMARK    2  A    between atoms: C_4  and  C_13
REMARK    3  A    between atoms: C_13  and  C_14
REMARK    4  A    between atoms: C_14  and  N_15
REMARK    5  A    between atoms: C_16  and  C_18
REMARK    6  A    between atoms: C_24  and  C_26
REMARK    7  A    between atoms: C_26  and  C_27
REMARK    8  A    between atoms: C_27  and  C_28
REMARK    9  A    between atoms: C_31  and  O_34
REMARK   10  A    between atoms: O_34  and  C_35
REMARK                            x       y       z     vdW  Elec       q    Type
REMARK                         _______ _______ _______ _____ _____    ______ ____
ROOT
ATOM      1  N   UNL     1       0.998  -0.730  -4.977  0.00  0.00    -0.315 N 
ATOM      2  C   UNL     1       1.751  -1.250  -5.967  0.00  0.00    +0.216 C 
ATOM      3  O   UNL     1       2.732  -1.911  -5.699  0.00  0.00    -0.276 OA
ATOM      4  H   UNL     1       0.213  -0.201  -5.192  0.00  0.00    +0.149 HD
ENDROOT
BRANCH   2   5
ATOM      5  C   UNL     1       1.374  -1.010  -7.406  0.00  0.00    +0.078 C 
ATOM      6  C   UNL     1      -0.024  -1.574  -7.668  0.00  0.00    +0.032 C 
ATOM      7  C   UNL     1      -0.418  -1.298  -9.122  0.00  0.00    +0.108 C 
ATOM      8  N   UNL     1       0.626  -1.837 -10.005  0.00  0.00    -0.301 N 
ATOM      9  C   UNL     1       2.019  -1.429  -9.782  0.00  0.00    +0.108 C 
ATOM     10  C   UNL     1       2.386  -1.704  -8.320  0.00  0.00    +0.032 C 
ATOM     11  C   UNL     1       0.310  -2.689 -11.000  0.00  0.00    +0.216 C 
ATOM     12  O   UNL     1      -0.844  -3.018 -11.174  0.00  0.00    -0.276 OA
BRANCH  11  13
ATOM     13  C   UNL     1       1.392  -3.234 -11.898  0.00  0.00    +0.100 C 
BRANCH  13  14
ATOM     14  C   UNL     1       0.770  -4.170 -12.935  0.00  0.00    +0.044 C 
BRANCH  14  15
ATOM     15  C   UNL     1       1.852  -4.715 -13.832  0.00  0.00    -0.047 A 
ATOM     16  C   UNL     1       2.200  -4.035 -14.985  0.00  0.00    +0.007 A 
ATOM     17  C   UNL     1       3.191  -4.532 -15.809  0.00  0.00    +0.046 A 
ATOM     18  C   UNL     1       3.838  -5.714 -15.479  0.00  0.00    +0.120 A 
ATOM     19  C   UNL     1       3.488  -6.394 -14.322  0.00  0.00    +0.046 A 
ATOM     20  C   UNL     1       2.500  -5.890 -13.498  0.00  0.00    +0.007 A 
BRANCH  18  21
ATOM     21  O   UNL     1       4.812  -6.205 -16.289  0.00  0.00    -0.495 OA
ATOM     22  C   UNL     1       5.436  -7.426 -15.886  0.00  0.00    +0.277 C 
ENDBRANCH  18  21
ENDBRANCH  14  15
ENDBRANCH  13  14
ENDBRANCH  11  13
ENDBRANCH   2   5
BRANCH   1  23
ATOM     23  C   UNL     1       1.364  -0.963  -3.578  0.00  0.00    +0.108 C 
BRANCH  23  24
ATOM     24  C   UNL     1       0.352  -0.269  -2.664  0.00  0.00    +0.052 C 
BRANCH  24  27
ATOM     25  C   UNL     1      -0.019   1.526   0.010  0.00  0.00    +0.035 C 
ATOM     26  C   UNL     1       0.002  -0.004   0.002  0.00  0.00    +0.103 C 
ATOM     27  C   UNL     1       0.729  -0.509  -1.224  0.00  0.00    -0.037 C 
ATOM     28  C   UNL     1       1.785  -1.220  -0.768  0.00  0.00    +0.002 A 
ATOM     29  C   UNL     1       2.858  -1.954  -1.449  0.00  0.00    +0.048 A 
ATOM     30  C   UNL     1       3.798  -2.583  -0.705  0.00  0.00    +0.124 A 
ATOM     31  C   UNL     1       3.771  -2.550   0.698  0.00  0.00    +0.040 A 
ATOM     32  C   UNL     1       2.817  -1.897   1.393  0.00  0.00    +0.029 A 
ATOM     33  C   UNL     1       1.780  -1.201   0.712  0.00  0.00    +0.043 A 
ATOM     34  N   UNL     1       0.758  -0.506   1.155  0.00  0.00    -0.378 N 
ATOM     35  F   UNL     1       4.787  -3.260  -1.329  0.00  0.00    -0.205 F 
ATOM     36  H   UNL     1       0.540  -0.349   2.087  0.00  0.00    +0.160 HD
ENDBRANCH  24  27
ENDBRANCH  23  24
ENDBRANCH   1  23
TORSDOF 8
