REMARK  Name = ZINC12562995
REMARK  7 active torsions:
REMARK  status: ('A' for Active; 'I' for Inactive)
REMARK    1  A    between atoms: C_1  and  C_2
REMARK    2  A    between atoms: C_2  and  N_3
REMARK    3  A    between atoms: N_3  and  C_4
REMARK    4  A    between atoms: N_3  and  C_6
REMARK    5  A    between atoms: C_4  and  C_5
REMARK    6  A    between atoms: C_11  and  C_23
REMARK    7  A    between atoms: N_13  and  C_14
REMARK                            x       y       z     vdW  Elec       q    Type
REMARK                         _______ _______ _______ _____ _____    ______ ____
ROOT
ATOM      1  C   UNL     1      -0.831  -0.802  -2.510  0.00  0.00    +0.033 A 
ATOM      2  C   UNL     1      -1.712   0.198  -2.928  0.00  0.00    +0.024 A 
ATOM      3  C   UNL     1      -2.047   0.318  -4.243  0.00  0.00    +0.013 A 
ATOM      4  C   UNL     1      -1.513  -0.574  -5.186  0.00  0.00    +0.018 A 
ATOM      5  C   UNL     1      -1.882  -0.481  -6.551  0.00  0.00    +0.030 A 
ATOM      6  C   UNL     1      -1.490  -1.500  -7.408  0.00  0.00    +0.097 A 
ATOM      7  C   UNL     1      -0.739  -2.627  -6.822  0.00  0.00    +0.212 A 
ATOM      8  N   UNL     1      -0.754  -3.819  -7.379  0.00  0.00    -0.325 N 
ATOM      9  O   UNL     1      -0.032  -2.391  -5.687  0.00  0.00    -0.438 OA
ATOM     10  C   UNL     1      -0.599  -1.565  -4.773  0.00  0.00    +0.139 A 
ATOM     11  C   UNL     1      -0.270  -1.675  -3.434  0.00  0.00    +0.070 A 
ATOM     12  H   UNL     1      -0.164  -4.516  -7.051  0.00  0.00    +0.169 HD
ENDROOT
BRANCH   8  13
ATOM     13  C   UNL     1      -1.601  -4.076  -8.421  0.00  0.00    +0.042 A 
ATOM     14  C   UNL     1      -1.119  -4.682  -9.585  0.00  0.00    +0.026 A 
ATOM     15  C   UNL     1      -1.980  -4.939 -10.632  0.00  0.00    +0.002 A 
ATOM     16  C   UNL     1      -3.317  -4.597 -10.532  0.00  0.00    +0.000 A 
ATOM     17  C   UNL     1      -3.801  -3.996  -9.383  0.00  0.00    +0.002 A 
ATOM     18  C   UNL     1      -2.954  -3.740  -8.326  0.00  0.00    +0.026 A 
ENDBRANCH   8  13
BRANCH   6  19
ATOM     19  C   UNL     1      -1.810  -1.459  -8.844  0.00  0.00    +0.247 C 
ATOM     20  O   UNL     1      -1.061  -1.978  -9.649  0.00  0.00    -0.270 OA
ATOM     21  N   UNL     1      -2.933  -0.845  -9.266  0.00  0.00    -0.325 N 
ATOM     22  H   UNL     1      -3.558  -0.479  -8.620  0.00  0.00    +0.145 HD
ATOM     23  H   UNL     1      -3.117  -0.770 -10.215  0.00  0.00    +0.145 HD
ENDBRANCH   6  19
BRANCH   1  24
ATOM     24  N   UNL     1      -0.508  -0.920  -1.164  0.00  0.00    -0.330 N 
BRANCH  24  26
ATOM     25  C   UNL     1      -0.194   1.225  -0.032  0.00  0.00    +0.024 C 
ATOM     26  C   UNL     1      -1.096  -0.001  -0.186  0.00  0.00    +0.102 C 
ENDBRANCH  24  26
BRANCH  24  27
ATOM     27  C   UNL     1       0.421  -1.964  -0.722  0.00  0.00    +0.102 C 
ATOM     28  C   UNL     1      -0.363  -3.233  -0.382  0.00  0.00    +0.024 C 
ENDBRANCH  24  27
ENDBRANCH   1  24
TORSDOF 5
