REMARK  Name = ZINC39655832
REMARK  7 active torsions:
REMARK  status: ('A' for Active; 'I' for Inactive)
REMARK    1  A    between atoms: C_1  and  C_2
REMARK    2  A    between atoms: C_8  and  C_11
REMARK    3  A    between atoms: C_11  and  C_12
REMARK    4  A    between atoms: C_12  and  N_13
REMARK    5  A    between atoms: C_14  and  C_16
REMARK    6  A    between atoms: C_27  and  C_29
REMARK    7  A    between atoms: C_34  and  C_35
REMARK                            x       y       z     vdW  Elec       q    Type
REMARK                         _______ _______ _______ _____ _____    ______ ____
ROOT
ATOM      1  C   UNL     1       4.084  -0.498  -7.241  0.00  0.00    +0.100 C 
ATOM      2  C   UNL     1       5.185   0.105  -6.339  0.00  0.00    +0.121 C 
ATOM      3  N   UNL     1       5.885  -1.069  -5.768  0.00  0.00    -0.296 N 
ATOM      4  C   UNL     1       5.955  -2.039  -6.888  0.00  0.00    +0.115 C 
ATOM      5  C   UNL     1       4.595  -1.903  -7.602  0.00  0.00    -0.004 C 
ATOM      6  C   UNL     1       4.777  -2.028  -9.111  0.00  0.00    -0.010 C 
ATOM      7  C   UNL     1       5.229  -3.451  -9.451  0.00  0.00    -0.082 C 
ATOM      8  N   UNL     1       4.225  -4.412  -8.977  0.00  0.00    +0.379 N 
ATOM      9  C   UNL     1       4.124  -4.350  -7.514  0.00  0.00    -0.082 C 
ATOM     10  C   UNL     1       3.625  -2.965  -7.093  0.00  0.00    -0.010 C 
ATOM     11  C   UNL     1       6.354  -1.222  -4.513  0.00  0.00    +0.247 C 
ATOM     12  O   UNL     1       6.999  -2.210  -4.221  0.00  0.00    -0.270 OA
ATOM     13  H   UNL     1       3.329  -4.189  -9.385  0.00  0.00    -0.086 HD
ATOM     14  H   UNL     1       4.495  -5.343  -9.255  0.00  0.00    -0.086 HD
ENDROOT
BRANCH  11  15
ATOM     15  C   UNL     1       6.083  -0.187  -3.492  0.00  0.00    +0.049 A 
ATOM     16  C   UNL     1       6.073   1.163  -3.848  0.00  0.00    +0.013 A 
ATOM     17  C   UNL     1       5.819   2.123  -2.890  0.00  0.00    +0.001 A 
ATOM     18  C   UNL     1       5.575   1.750  -1.580  0.00  0.00    +0.001 A 
ATOM     19  C   UNL     1       5.583   0.414  -1.221  0.00  0.00    +0.013 A 
ATOM     20  C   UNL     1       5.830  -0.557  -2.170  0.00  0.00    +0.067 A 
BRANCH  20  21
ATOM     21  C   UNL     1       5.833  -2.012  -1.779  0.00  0.00    +0.418 C 
ATOM     22  F   UNL     1       5.557  -2.128  -0.412  0.00  0.00    -0.166 F 
ATOM     23  F   UNL     1       4.856  -2.694  -2.512  0.00  0.00    -0.166 F 
ATOM     24  F   UNL     1       7.089  -2.565  -2.049  0.00  0.00    -0.166 F 
ENDBRANCH  20  21
ENDBRANCH  11  15
BRANCH   1  26
ATOM     25  N   UNL     1       1.613  -0.553  -7.159  0.00  0.00    -0.315 N 
ATOM     26  C   UNL     1       2.782  -0.591  -6.489  0.00  0.00    +0.218 C 
ATOM     27  O   UNL     1       2.785  -0.699  -5.281  0.00  0.00    -0.275 OA
ATOM     28  H   UNL     1       1.610  -0.467  -8.125  0.00  0.00    +0.149 HD
BRANCH  25  29
ATOM     29  C   UNL     1       0.346  -0.643  -6.428  0.00  0.00    +0.109 C 
BRANCH  29  30
ATOM     30  C   UNL     1      -0.819  -0.577  -7.417  0.00  0.00    +0.056 C 
BRANCH  30  38
ATOM     31  C   UNL     1      -3.255   4.079  -5.135  0.00  0.00    +0.044 C 
ATOM     32  C   UNL     1      -3.507   2.598  -5.255  0.00  0.00    -0.050 A 
ATOM     33  C   UNL     1      -4.644   2.045  -4.684  0.00  0.00    +0.005 A 
ATOM     34  C   UNL     1      -4.893   0.693  -4.781  0.00  0.00    +0.026 A 
ATOM     35  C   UNL     1      -3.997  -0.127  -5.459  0.00  0.00    +0.047 A 
ATOM     36  N   UNL     1      -3.962  -1.478  -5.724  0.00  0.00    -0.360 N 
ATOM     37  C   UNL     1      -2.839  -1.782  -6.442  0.00  0.00    +0.087 A 
ATOM     38  C   UNL     1      -2.122  -0.669  -6.664  0.00  0.00    -0.021 A 
ATOM     39  C   UNL     1      -2.846   0.439  -6.037  0.00  0.00    +0.003 A 
ATOM     40  C   UNL     1      -2.616   1.812  -5.930  0.00  0.00    +0.013 A 
ATOM     41  H   UNL     1      -4.634  -2.119  -5.442  0.00  0.00    +0.165 HD
ENDBRANCH  30  38
ENDBRANCH  29  30
ENDBRANCH  25  29
ENDBRANCH   1  26
TORSDOF 6
