REMARK  Name = ZINC01129364
REMARK  8 active torsions:
REMARK  status: ('A' for Active; 'I' for Inactive)
REMARK    1  A    between atoms: C_1  and  C_2
REMARK    2  A    between atoms: C_2  and  C_4
REMARK    3  A    between atoms: C_2  and  N_10
REMARK    4  A    between atoms: N_10  and  C_11
REMARK    5  A    between atoms: C_11  and  N_13
REMARK    6  A    between atoms: C_14  and  C_16
REMARK    7  A    between atoms: C_21  and  O_25
REMARK    8  A    between atoms: O_25  and  C_26
REMARK                            x       y       z     vdW  Elec       q    Type
REMARK                         _______ _______ _______ _____ _____    ______ ____
ROOT
ATOM      1  N   UNL     1       0.214   0.945   9.573  0.00  0.00    -0.263 N 
ATOM      2  C   UNL     1       1.018   0.392   8.643  0.00  0.00    +0.258 C 
ATOM      3  O   UNL     1       1.980  -0.269   8.986  0.00  0.00    -0.269 OA
ATOM      4  H   UNL     1      -0.553   1.472   9.300  0.00  0.00    +0.157 HD
ENDROOT
BRANCH   2   5
ATOM      5  C   UNL     1       0.732   0.586   7.218  0.00  0.00    +0.094 A 
ATOM      6  C   UNL     1       1.419   0.112   6.142  0.00  0.00    +0.068 A 
ATOM      7  C   UNL     1       0.978   0.412   4.841  0.00  0.00    +0.008 A 
ATOM      8  C   UNL     1       1.554   0.015   3.606  0.00  0.00    +0.014 A 
ATOM      9  C   UNL     1       1.000   0.393   2.426  0.00  0.00    +0.046 A 
ATOM     10  C   UNL     1      -0.149   1.182   2.379  0.00  0.00    +0.121 A 
ATOM     11  C   UNL     1      -0.739   1.596   3.562  0.00  0.00    +0.061 A 
ATOM     12  C   UNL     1      -0.188   1.213   4.765  0.00  0.00    +0.025 A 
ATOM     13  S   UNL     1      -0.603   1.502   6.467  0.00  0.00    -0.082 S 
ATOM     14 CL   UNL     1       2.837  -0.862   6.377  0.00  0.00    -0.082 Cl
BRANCH  10  15
ATOM     15  O   UNL     1      -0.682   1.547   1.184  0.00  0.00    -0.495 OA
ATOM     16  C   UNL     1      -0.013   1.086   0.008  0.00  0.00    +0.277 C 
ENDBRANCH  10  15
ENDBRANCH   2   5
BRANCH   1  17
ATOM     17  C   UNL     1       0.477   0.766  10.883  0.00  0.00    +0.137 C 
ATOM     18  S   UNL     1       1.831  -0.163  11.365  0.00  0.00    -0.018 S 
BRANCH  17  19
ATOM     19  N   UNL     1      -0.326   1.320  11.813  0.00  0.00    -0.320 N 
ATOM     20  H   UNL     1      -1.094   1.847  11.539  0.00  0.00    +0.148 HD
BRANCH  19  22
ATOM     21  C   UNL     1      -0.654  -0.196  13.704  0.00  0.00    +0.033 C 
ATOM     22  C   UNL     1      -0.041   1.125  13.236  0.00  0.00    +0.099 C 
BRANCH  22  23
ATOM     23  C   UNL     1      -0.634   2.263  14.027  0.00  0.00    -0.028 A 
ATOM     24  C   UNL     1      -1.876   2.766  13.689  0.00  0.00    +0.005 A 
ATOM     25  C   UNL     1      -2.422   3.806  14.418  0.00  0.00    +0.000 A 
ATOM     26  C   UNL     1      -1.722   4.349  15.479  0.00  0.00    +0.000 A 
ATOM     27  C   UNL     1      -0.478   3.849  15.814  0.00  0.00    +0.000 A 
ATOM     28  C   UNL     1       0.067   2.806  15.088  0.00  0.00    +0.005 A 
ENDBRANCH  22  23
ENDBRANCH  19  22
ENDBRANCH  17  19
ENDBRANCH   1  17
TORSDOF 6
