REMARK  Name = ZINC04085121
REMARK  6 active torsions:
REMARK  status: ('A' for Active; 'I' for Inactive)
REMARK    1  A    between atoms: C_1  and  C_2
REMARK    2  A    between atoms: C_18  and  C_20
REMARK    3  A    between atoms: C_20  and  N_61
REMARK    4  A    between atoms: C_21  and  C_22
REMARK    5  A    between atoms: C_21  and  N_61
REMARK    6  A    between atoms: C_22  and  C_23
REMARK                            x       y       z     vdW  Elec       q    Type
REMARK                         _______ _______ _______ _____ _____    ______ ____
ROOT
ATOM      1  C   UNL     1      -7.330  -7.601   3.219  0.00  0.00    +0.011 C 
ATOM      2  C   UNL     1      -6.299  -6.752   3.965  0.00  0.00    -0.023 C 
ATOM      3  C   UNL     1      -6.172  -7.256   5.400  0.00  0.00    +0.007 C 
ATOM      4  C   UNL     1      -7.551  -7.268   6.064  0.00  0.00    +0.003 C 
ATOM      5  C   UNL     1      -8.104  -5.841   6.127  0.00  0.00    +0.037 C 
ATOM      6  C   UNL     1      -8.120  -5.245   4.719  0.00  0.00    +0.096 C 
ATOM      7  C   UNL     1      -6.777  -5.293   3.980  0.00  0.00    +0.030 C 
ATOM      8  C   UNL     1      -5.757  -4.469   4.768  0.00  0.00    +0.014 C 
ATOM      9  C   UNL     1      -4.364  -4.556   4.187  0.00  0.00    +0.042 C 
ATOM     10  C   UNL     1      -3.889  -6.004   3.949  0.00  0.00    +0.181 C 
ATOM     11  C   UNL     1      -4.963  -6.833   3.243  0.00  0.00    +0.052 C 
ATOM     12  O   UNL     1      -2.821  -5.787   2.949  0.00  0.00    -0.461 OA
ATOM     13  C   UNL     1      -3.283  -4.876   2.064  0.00  0.00    +0.309 C 
ATOM     14  O   UNL     1      -2.958  -4.798   0.903  0.00  0.00    -0.251 OA
ATOM     15  C   UNL     1      -4.277  -3.966   2.768  0.00  0.00    +0.087 C 
ATOM     16  C   UNL     1      -9.042  -4.059   4.449  0.00  0.00    +0.196 C 
ATOM     17  O   UNL     1      -9.312  -5.371   3.948  0.00  0.00    -0.368 OA
ENDROOT
BRANCH  15  18
ATOM     18  C   UNL     1      -3.753  -2.529   2.812  0.00  0.00    -0.068 C 
BRANCH  18  19
ATOM     19  N   UNL     1      -3.696  -1.993   1.440  0.00  0.00    +0.380 N 
ATOM     20  H   UNL     1      -4.638  -2.008   1.030  0.00  0.00    -0.086 HD
ATOM     21  H   UNL     1      -3.067  -2.575   0.874  0.00  0.00    -0.086 HD
BRANCH  19  22
ATOM     22  C   UNL     1      -3.194  -0.606   1.453  0.00  0.00    -0.078 C 
BRANCH  22  23
ATOM     23  C   UNL     1      -3.145  -0.077   0.018  0.00  0.00    +0.018 C 
BRANCH  23  24
ATOM     24  C   UNL     1      -2.633   1.341   0.022  0.00  0.00    -0.024 A 
ATOM     25  C   UNL     1      -3.376   2.458   0.032  0.00  0.00    +0.087 A 
ATOM     26  N   UNL     1      -2.563   3.559   0.045  0.00  0.00    -0.360 N 
ATOM     27  H   UNL     1      -2.871   4.479   0.053  0.00  0.00    +0.165 HD
ATOM     28  C   UNL     1      -1.244   3.167   0.030  0.00  0.00    +0.047 A 
ATOM     29  C   UNL     1      -1.229   1.760   0.017  0.00  0.00    +0.003 A 
ATOM     30  C   UNL     1      -0.013   1.076   0.008  0.00  0.00    +0.010 A 
ATOM     31  C   UNL     1       1.160   1.778   0.001  0.00  0.00    +0.001 A 
ATOM     32  C   UNL     1       1.151   3.165   0.008  0.00  0.00    +0.002 A 
ATOM     33  C   UNL     1      -0.038   3.861   0.023  0.00  0.00    +0.026 A 
ENDBRANCH  23  24
ENDBRANCH  22  23
ENDBRANCH  19  22
ENDBRANCH  18  19
ENDBRANCH  15  18
TORSDOF 5
