REMARK  Name = ZINC09265665
REMARK  3 active torsions:
REMARK  status: ('A' for Active; 'I' for Inactive)
REMARK    1  A    between atoms: C_4  and  C_7
REMARK    2  A    between atoms: N_9  and  C_10
REMARK    3  A    between atoms: C_18  and  C_19
REMARK                            x       y       z     vdW  Elec       q    Type
REMARK                         _______ _______ _______ _____ _____    ______ ____
ROOT
ATOM      1  C   UNL     1       2.699   6.310   0.517  0.00  0.00    +0.092 A 
ATOM      2  C   UNL     1       2.700   6.849   1.883  0.00  0.00    +0.042 A 
ATOM      3  C   UNL     1       3.635   7.544   2.651  0.00  0.00    +0.013 A 
ATOM      4  C   UNL     1       3.321   7.916   3.928  0.00  0.00    +0.001 A 
ATOM      5  C   UNL     1       2.079   7.608   4.464  0.00  0.00    +0.004 A 
ATOM      6  C   UNL     1       1.142   6.923   3.721  0.00  0.00    +0.047 A 
ATOM      7  C   UNL     1       1.440   6.534   2.420  0.00  0.00    +0.138 A 
ATOM      8  O   UNL     1       0.742   5.875   1.474  0.00  0.00    -0.448 OA
ATOM      9  C   UNL     1       1.472   5.729   0.345  0.00  0.00    +0.212 A 
ENDROOT
BRANCH   9  10
ATOM     10  C   UNL     1       1.019   5.059  -0.872  0.00  0.00    +0.284 C 
ATOM     11  O   UNL     1       1.797   4.872  -1.790  0.00  0.00    -0.267 OA
ATOM     12  N   UNL     1      -0.260   4.649  -0.979  0.00  0.00    -0.295 N 
ATOM     13  C   UNL     1      -0.701   4.030  -2.245  0.00  0.00    +0.108 C 
ATOM     14  C   UNL     1      -1.597   2.801  -2.008  0.00  0.00    +0.019 C 
ATOM     15  C   UNL     1      -1.062   1.982  -0.860  0.00  0.00    +0.002 C 
ATOM     16  C   UNL     1      -1.721   2.439   0.438  0.00  0.00    +0.002 C 
ATOM     17  C   UNL     1      -1.069   3.594   1.076  0.00  0.00    +0.019 C 
ATOM     18  C   UNL     1      -1.144   4.833   0.150  0.00  0.00    +0.108 C 
ENDBRANCH   9  10
BRANCH   1  21
ATOM     19  C   UNL     1       4.633   7.376  -0.344  0.00  0.00    +0.248 C 
ATOM     20  O   UNL     1       4.505   8.256   0.484  0.00  0.00    -0.270 OA
ATOM     21  N   UNL     1       3.731   6.376  -0.410  0.00  0.00    -0.278 N 
ATOM     22  H   UNL     1       3.803   5.703  -1.105  0.00  0.00    +0.155 HD
BRANCH  19  26
ATOM     23  C   UNL     1       7.920   7.450  -3.033  0.00  0.00    +0.000 A 
ATOM     24  C   UNL     1       7.778   8.454  -2.091  0.00  0.00    +0.001 A 
ATOM     25  C   UNL     1       6.712   8.435  -1.215  0.00  0.00    +0.013 A 
ATOM     26  C   UNL     1       5.777   7.402  -1.280  0.00  0.00    +0.037 A 
ATOM     27  C   UNL     1       5.929   6.389  -2.229  0.00  0.00    +0.013 A 
ATOM     28  C   UNL     1       6.996   6.423  -3.103  0.00  0.00    +0.001 A 
ENDBRANCH  19  26
ENDBRANCH   1  21
TORSDOF 3
