REMARK  Name = ZINC67268127
REMARK  6 active torsions:
REMARK  status: ('A' for Active; 'I' for Inactive)
REMARK    1  A    between atoms: C_1  and  C_2
REMARK    2  A    between atoms: C_2  and  N_3
REMARK    3  A    between atoms: N_3  and  C_4
REMARK    4  A    between atoms: C_4  and  C_6
REMARK    5  A    between atoms: C_4  and  C_7
REMARK    6  A    between atoms: C_14  and  C_16
REMARK                            x       y       z     vdW  Elec       q    Type
REMARK                         _______ _______ _______ _____ _____    ______ ____
ROOT
ATOM      1  N   UNL     1       0.804  -0.227  -1.299  0.00  0.00    -0.295 N 
ATOM      2  C   UNL     1       0.068  -0.630  -2.354  0.00  0.00    +0.219 C 
ATOM      3  O   UNL     1       0.580  -1.291  -3.233  0.00  0.00    -0.275 OA
ENDROOT
BRANCH   2   4
ATOM      4  C   UNL     1      -1.390  -0.259  -2.442  0.00  0.00    +0.075 C 
ATOM      5  C   UNL     1      -2.178  -1.034  -1.384  0.00  0.00    +0.015 C 
ATOM      6  C   UNL     1      -3.657  -0.646  -1.467  0.00  0.00    +0.036 C 
ATOM      7  C   UNL     1      -4.192  -0.966  -2.858  0.00  0.00    +0.112 C 
ATOM      8  C   UNL     1      -3.399  -0.220  -3.926  0.00  0.00    +0.036 C 
ATOM      9  C   UNL     1      -1.922  -0.609  -3.834  0.00  0.00    +0.015 C 
ATOM     10  C   UNL     1      -4.149  -2.455  -3.112  0.00  0.00    +0.244 C 
ATOM     11  O   UNL     1      -3.168  -3.167  -3.133  0.00  0.00    -0.273 OA
ATOM     12  N   UNL     1      -5.431  -2.824  -3.310  0.00  0.00    -0.238 N 
ATOM     13  C   UNL     1      -6.264  -1.781  -3.217  0.00  0.00    +0.307 C 
ATOM     14  O   UNL     1      -7.469  -1.864  -3.357  0.00  0.00    -0.252 OA
ATOM     15  N   UNL     1      -5.619  -0.630  -2.950  0.00  0.00    -0.285 N 
ATOM     16  H   UNL     1      -5.713  -3.733  -3.498  0.00  0.00    +0.159 HD
ATOM     17  H   UNL     1      -6.017   0.247  -2.839  0.00  0.00    +0.151 HD
ENDBRANCH   2   4
BRANCH   1  19
ATOM     18  C   UNL     1       2.484  -1.908  -0.722  0.00  0.00    +0.024 C 
ATOM     19  C   UNL     1       2.243  -0.497  -1.263  0.00  0.00    +0.105 C 
ENDBRANCH   1  19
BRANCH   1  20
ATOM     20  C   UNL     1       0.163   0.480  -0.188  0.00  0.00    +0.103 C 
ATOM     21  C   UNL     1       0.479  -0.240   1.125  0.00  0.00    +0.033 C 
BRANCH  20  22
ATOM     22  C   UNL     1       0.686   1.893  -0.124  0.00  0.00    -0.027 A 
ATOM     23  C   UNL     1       1.058   2.544  -1.285  0.00  0.00    +0.008 A 
ATOM     24  C   UNL     1       1.537   3.839  -1.228  0.00  0.00    +0.038 A 
ATOM     25  C   UNL     1       1.643   4.484  -0.007  0.00  0.00    +0.123 A 
ATOM     26  C   UNL     1       1.270   3.831   1.155  0.00  0.00    +0.038 A 
ATOM     27  C   UNL     1       0.787   2.537   1.095  0.00  0.00    +0.008 A 
ATOM     28  F   UNL     1       2.112   5.750   0.050  0.00  0.00    -0.205 F 
ENDBRANCH  20  22
ENDBRANCH   1  20
TORSDOF 4
