REMARK  Name = ZINC21108993
REMARK  7 active torsions:
REMARK  status: ('A' for Active; 'I' for Inactive)
REMARK    1  A    between atoms: C_1  and  C_2
REMARK    2  A    between atoms: C_2  and  C_3
REMARK    3  A    between atoms: N_9  and  S_10
REMARK    4  A    between atoms: S_10  and  C_13
REMARK    5  A    between atoms: C_19  and  C_24
REMARK    6  A    between atoms: C_19  and  C_25
REMARK    7  A    between atoms: N_22  and  C_23
REMARK                            x       y       z     vdW  Elec       q    Type
REMARK                         _______ _______ _______ _____ _____    ______ ____
ROOT
ATOM      1  C   UNL     1      -3.415   0.366  -1.249  0.00  0.00    +0.106 A 
ATOM      2  C   UNL     1      -4.445   1.126  -1.773  0.00  0.00    +0.030 A 
ATOM      3  C   UNL     1      -5.717   1.034  -1.247  0.00  0.00    +0.026 A 
ATOM      4  C   UNL     1      -5.972   0.173  -0.181  0.00  0.00    +0.040 A 
ATOM      5  C   UNL     1      -4.929  -0.584   0.337  0.00  0.00    -0.010 A 
ATOM      6  C   UNL     1      -3.662  -0.494  -0.194  0.00  0.00    +0.035 A 
ATOM      7  C   UNL     1      -5.516  -1.402   1.464  0.00  0.00    +0.068 C 
ATOM      8  C   UNL     1      -6.975  -1.001   1.489  0.00  0.00    +0.230 C 
ATOM      9  O   UNL     1      -7.825  -1.419   2.247  0.00  0.00    -0.274 OA
ATOM     10  N   UNL     1      -7.153  -0.093   0.514  0.00  0.00    -0.273 N 
ATOM     11  C   UNL     1      -8.438   0.542   0.214  0.00  0.00    +0.138 C 
ATOM     12  C   UNL     1      -5.376  -2.897   1.170  0.00  0.00    +0.025 C 
ATOM     13  C   UNL     1      -4.840  -1.050   2.791  0.00  0.00    +0.025 C 
ENDROOT
BRANCH   1  14
ATOM     14  S   UNL     1      -1.793   0.489  -1.928  0.00  0.00    +0.061 S 
ATOM     15  O   UNL     1      -1.929   1.126  -3.191  0.00  0.00    -0.153 OA
ATOM     16  O   UNL     1      -1.193  -0.790  -1.780  0.00  0.00    -0.153 OA
BRANCH  14  22
ATOM     17  C   UNL     1      -1.076   2.982  -1.120  0.00  0.00    +0.080 C 
ATOM     18  C   UNL     1      -1.430   3.592   0.239  0.00  0.00    +0.021 C 
ATOM     19  C   UNL     1      -0.383   3.169   1.272  0.00  0.00    +0.003 C 
ATOM     20  C   UNL     1      -0.384   1.645   1.412  0.00  0.00    +0.017 C 
ATOM     21  C   UNL     1      -0.022   1.013   0.064  0.00  0.00    +0.110 C 
ATOM     22  N   UNL     1      -0.936   1.528  -0.964  0.00  0.00    -0.174 NA
BRANCH  17  24
ATOM     23  C   UNL     1      -2.415   4.796  -2.197  0.00  0.00    +0.005 C 
ATOM     24  C   UNL     1      -2.188   3.285  -2.127  0.00  0.00    +0.017 C 
ENDBRANCH  17  24
ENDBRANCH  14  22
ENDBRANCH   1  14
TORSDOF 3
