REMARK  Name = ZINC55211359
REMARK  5 active torsions:
REMARK  status: ('A' for Active; 'I' for Inactive)
REMARK    1  A    between atoms: C_3  and  O_26
REMARK    2  A    between atoms: C_6  and  C_7
REMARK    3  A    between atoms: C_7  and  N_8
REMARK    4  A    between atoms: N_16  and  C_18
REMARK    5  A    between atoms: C_18  and  C_19
REMARK                            x       y       z     vdW  Elec       q    Type
REMARK                         _______ _______ _______ _____ _____    ______ ____
ROOT
ATOM      1  N   UNL     1      -1.728  -1.017  -1.371  0.00  0.00    +0.383 N 
ATOM      2  C   UNL     1      -2.169   0.252  -2.008  0.00  0.00    -0.078 C 
ATOM      3  C   UNL     1      -3.093  -0.193  -3.163  0.00  0.00    -0.012 C 
ATOM      4  C   UNL     1      -3.596  -1.587  -2.753  0.00  0.00    -0.033 C 
ATOM      5  C   UNL     1      -2.940  -1.878  -1.391  0.00  0.00    -0.070 C 
ATOM      6  C   UNL     1      -3.158  -2.628  -3.779  0.00  0.00    +0.007 C 
ATOM      7  C   UNL     1      -3.701  -4.000  -3.368  0.00  0.00    +0.016 C 
ATOM      8  C   UNL     1      -5.224  -3.920  -3.236  0.00  0.00    +0.085 C 
ATOM      9  N   UNL     1      -5.579  -2.918  -2.222  0.00  0.00    -0.298 NA
ATOM     10  C   UNL     1      -5.115  -1.580  -2.613  0.00  0.00    +0.089 C 
ATOM     11  H   UNL     1      -0.985  -1.441  -1.905  0.00  0.00    -0.081 HD
ENDROOT
BRANCH   1  12
ATOM     12  C   UNL     1      -1.293  -0.774   0.011  0.00  0.00    -0.043 C 
BRANCH  12  18
ATOM     13  C   UNL     1      -0.017   1.378   0.010  0.00  0.00    +0.005 A 
ATOM     14  C   UNL     1       1.169   2.087   0.002  0.00  0.00    +0.045 A 
ATOM     15  C   UNL     1       2.380   1.409  -0.013  0.00  0.00    +0.117 A 
ATOM     16  C   UNL     1       2.396   0.022  -0.021  0.00  0.00    +0.045 A 
ATOM     17  C   UNL     1       1.207  -0.681  -0.013  0.00  0.00    +0.005 A 
ATOM     18  C   UNL     1       0.002  -0.004   0.002  0.00  0.00    -0.064 A 
BRANCH  15  19
ATOM     19  O   UNL     1       3.548   2.104  -0.021  0.00  0.00    -0.507 OA
ATOM     20  H   UNL     1       3.895   2.300   0.860  0.00  0.00    +0.292 HD
ENDBRANCH  15  19
ENDBRANCH  12  18
ENDBRANCH   1  12
BRANCH   9  21
ATOM     21  C   UNL     1      -7.025  -2.920  -1.964  0.00  0.00    +0.119 C 
BRANCH  21  22
ATOM     22  C   UNL     1      -7.422  -4.228  -1.331  0.00  0.00    -0.033 A 
ATOM     23  C   UNL     1      -7.790  -5.297  -2.126  0.00  0.00    +0.008 A 
ATOM     24  C   UNL     1      -8.153  -6.498  -1.545  0.00  0.00    +0.038 A 
ATOM     25  C   UNL     1      -8.148  -6.630  -0.167  0.00  0.00    +0.123 A 
ATOM     26  C   UNL     1      -7.778  -5.558   0.628  0.00  0.00    +0.038 A 
ATOM     27  C   UNL     1      -7.411  -4.360   0.046  0.00  0.00    +0.008 A 
ATOM     28  F   UNL     1      -8.503  -7.803   0.401  0.00  0.00    -0.205 F 
ENDBRANCH  21  22
ENDBRANCH   9  21
TORSDOF 5
