REMARK  Name = ZINC19368381
REMARK  10 active torsions:
REMARK  status: ('A' for Active; 'I' for Inactive)
REMARK    1  A    between atoms: C_4  and  C_7
REMARK    2  A    between atoms: C_7  and  C_8
REMARK    3  A    between atoms: C_7  and  N_14
REMARK    4  A    between atoms: N_17  and  C_20
REMARK    5  A    between atoms: C_20  and  C_21
REMARK    6  A    between atoms: C_21  and  C_23
REMARK    7  A    between atoms: C_21  and  O_37
REMARK    8  A    between atoms: C_23  and  O_24
REMARK    9  A    between atoms: O_24  and  C_25
REMARK   10  A    between atoms: C_32  and  C_35
REMARK                            x       y       z     vdW  Elec       q    Type
REMARK                         _______ _______ _______ _____ _____    ______ ____
ROOT
ATOM      1  N   UNL     1       3.611  -1.868  -0.933  0.00  0.00    +0.389 N 
ATOM      2  C   UNL     1       4.893  -2.586  -0.948  0.00  0.00    -0.062 C 
ATOM      3  C   UNL     1       4.783  -3.805  -1.866  0.00  0.00    +0.066 C 
ATOM      4  N   UNL     1       4.433  -3.364  -3.223  0.00  0.00    -0.303 NA
ATOM      5  C   UNL     1       3.164  -2.622  -3.220  0.00  0.00    +0.066 C 
ATOM      6  C   UNL     1       3.287  -1.412  -2.291  0.00  0.00    -0.062 C 
ATOM      7  H   UNL     1       2.884  -2.485  -0.603  0.00  0.00    -0.080 HD
ENDROOT
BRANCH   1   8
ATOM      8  C   UNL     1       3.711  -0.707  -0.038  0.00  0.00    -0.007 C 
BRANCH   8  12
ATOM      9  C   UNL     1      -0.017   1.378   0.010  0.00  0.00    +0.000 A 
ATOM     10  C   UNL     1       1.171   2.086   0.002  0.00  0.00    +0.000 A 
ATOM     11  C   UNL     1       2.377   1.411  -0.013  0.00  0.00    +0.002 A 
ATOM     12  C   UNL     1       2.396   0.029  -0.020  0.00  0.00    -0.057 A 
ATOM     13  C   UNL     1       1.208  -0.679  -0.012  0.00  0.00    +0.002 A 
ATOM     14  C   UNL     1       0.002  -0.004   0.002  0.00  0.00    +0.000 A 
ENDBRANCH   8  12
BRANCH   8  15
ATOM     15  C   UNL     1       4.044  -1.175   1.356  0.00  0.00    -0.057 A 
ATOM     16  C   UNL     1       3.455  -2.320   1.860  0.00  0.00    +0.002 A 
ATOM     17  C   UNL     1       3.760  -2.748   3.138  0.00  0.00    +0.000 A 
ATOM     18  C   UNL     1       4.654  -2.033   3.912  0.00  0.00    +0.000 A 
ATOM     19  C   UNL     1       5.243  -0.888   3.408  0.00  0.00    +0.000 A 
ATOM     20  C   UNL     1       4.941  -0.462   2.128  0.00  0.00    +0.002 A 
ENDBRANCH   8  15
ENDBRANCH   1   8
BRANCH   4  21
ATOM     21  C   UNL     1       4.374  -4.503  -4.149  0.00  0.00    +0.119 C 
BRANCH  21  22
ATOM     22  C   UNL     1       4.256  -3.988  -5.584  0.00  0.00    +0.166 C 
BRANCH  22  23
ATOM     23  O   UNL     1       5.445  -3.277  -5.935  0.00  0.00    -0.387 OA
ATOM     24  H   UNL     1       6.250  -3.811  -5.889  0.00  0.00    +0.210 HD
ENDBRANCH  22  23
BRANCH  22  25
ATOM     25  C   UNL     1       4.069  -5.171  -6.537  0.00  0.00    +0.261 C 
BRANCH  25  26
ATOM     26  O   UNL     1       3.842  -4.685  -7.861  0.00  0.00    -0.489 OA
BRANCH  26  27
ATOM     27  C   UNL     1       3.656  -5.613  -8.835  0.00  0.00    +0.130 A 
ATOM     28  C   UNL     1       3.683  -6.959  -8.526  0.00  0.00    +0.046 A 
ATOM     29  C   UNL     1       3.493  -7.910  -9.518  0.00  0.00    +0.006 A 
ATOM     30  C   UNL     1       3.274  -7.531 -10.824  0.00  0.00    +0.026 A 
ATOM     31  C   UNL     1       3.241  -6.182 -11.163  0.00  0.00    +0.051 A 
ATOM     32  C   UNL     1       3.427  -5.210 -10.161  0.00  0.00    +0.043 A 
ATOM     33  C   UNL     1       3.336  -3.945 -10.790  0.00  0.00    +0.050 A 
ATOM     34  C   UNL     1       3.099  -4.155 -12.112  0.00  0.00    +0.119 A 
ATOM     35  N   UNL     1       3.047  -5.516 -12.351  0.00  0.00    -0.346 N 
ATOM     36  H   UNL     1       2.890  -5.932 -13.213  0.00  0.00    +0.167 HD
BRANCH  34  37
ATOM     37  C   UNL     1       2.941  -3.132 -13.101  0.00  0.00    +0.117 C 
ATOM     38  N   UNL     1       2.815  -2.319 -13.885  0.00  0.00    -0.189 NA
ENDBRANCH  34  37
ENDBRANCH  26  27
ENDBRANCH  25  26
ENDBRANCH  22  25
ENDBRANCH  21  22
ENDBRANCH   4  21
TORSDOF 10
