REMARK  Name = ZINC14475080
REMARK  2 active torsions:
REMARK  status: ('A' for Active; 'I' for Inactive)
REMARK    1  A    between atoms: C_6  and  C_11
REMARK    2  A    between atoms: C_24  and  C_27
REMARK                            x       y       z     vdW  Elec       q    Type
REMARK                         _______ _______ _______ _____ _____    ______ ____
ROOT
ATOM      1  C   UNL     1      -0.013   1.086   0.008  0.00  0.00    +0.105 C 
ATOM      2  C   UNL     1       1.404   1.621  -0.003  0.00  0.00    +0.029 C 
ATOM      3  C   UNL     1       2.344   1.195   1.131  0.00  0.00    +0.033 C 
ATOM      4  C   UNL     1       3.705   1.246   0.433  0.00  0.00    -0.030 C 
ATOM      5  C   UNL     1       3.551   1.061  -0.873  0.00  0.00    -0.023 C 
ATOM      6  C   UNL     1       2.103   0.859  -1.171  0.00  0.00    +0.049 C 
ATOM      7  C   UNL     1       1.448   1.304  -2.421  0.00  0.00    -0.019 A 
ATOM      8  C   UNL     1       2.143   1.408  -3.606  0.00  0.00    +0.006 A 
ATOM      9  C   UNL     1       1.508   1.813  -4.769  0.00  0.00    +0.001 A 
ATOM     10  C   UNL     1       0.163   2.114  -4.747  0.00  0.00    +0.015 A 
ATOM     11  C   UNL     1      -0.554   2.017  -3.557  0.00  0.00    +0.058 A 
ATOM     12  C   UNL     1       0.087   1.618  -2.365  0.00  0.00    +0.044 A 
ATOM     13  N   UNL     1      -0.673   1.585  -1.208  0.00  0.00    -0.336 N 
ATOM     14  H   UNL     1      -1.550   1.110  -1.365  0.00  0.00    +0.147 HD
ENDROOT
BRANCH   1  20
ATOM     15  C   UNL     1      -2.918   2.171   5.673  0.00  0.00    +0.001 A 
ATOM     16  C   UNL     1      -2.413   0.872   5.655  0.00  0.00    +0.001 A 
ATOM     17  C   UNL     1      -1.751   0.392   4.567  0.00  0.00    +0.008 A 
ATOM     18  C   UNL     1      -1.572   1.216   3.443  0.00  0.00    -0.018 A 
ATOM     19  C   UNL     1      -0.899   0.755   2.299  0.00  0.00    +0.014 A 
ATOM     20  C   UNL     1      -0.741   1.583   1.231  0.00  0.00    -0.026 A 
ATOM     21  C   UNL     1      -1.246   2.881   1.248  0.00  0.00    +0.006 A 
ATOM     22  C   UNL     1      -1.908   3.361   2.336  0.00  0.00    +0.009 A 
ATOM     23  C   UNL     1      -2.086   2.537   3.461  0.00  0.00    -0.018 A 
ATOM     24  C   UNL     1      -2.764   2.997   4.602  0.00  0.00    +0.008 A 
ENDBRANCH   1  20
BRANCH  11  25
ATOM     25  C   UNL     1      -1.994   2.335  -3.542  0.00  0.00    +0.243 C 
ATOM     26  O   UNL     1      -2.624   2.252  -2.506  0.00  0.00    -0.270 OA
ATOM     27  N   UNL     1      -2.611   2.717  -4.678  0.00  0.00    -0.325 N 
ATOM     28  H   UNL     1      -2.109   2.782  -5.505  0.00  0.00    +0.145 HD
ATOM     29  H   UNL     1      -3.559   2.926  -4.668  0.00  0.00    +0.145 HD
ENDBRANCH  11  25
TORSDOF 2
