REMARK  Name = ZINC57762960
REMARK  11 active torsions:
REMARK  status: ('A' for Active; 'I' for Inactive)
REMARK    1  A    between atoms: C_1  and  C_2
REMARK    2  A    between atoms: C_2  and  C_3
REMARK    3  A    between atoms: C_5  and  C_11
REMARK    4  A    between atoms: C_8  and  O_9
REMARK    5  A    between atoms: O_9  and  C_10
REMARK    6  A    between atoms: C_11  and  C_13
REMARK    7  A    between atoms: C_11  and  C_23
REMARK    8  A    between atoms: C_13  and  C_14
REMARK    9  A    between atoms: C_17  and  O_21
REMARK   10  A    between atoms: O_21  and  C_22
REMARK   11  A    between atoms: C_23  and  N_24
REMARK                            x       y       z     vdW  Elec       q    Type
REMARK                         _______ _______ _______ _____ _____    ______ ____
ROOT
ATOM      1  C   UNL     1       4.252  -1.838  -2.044  0.00  0.00    +0.006 C 
ENDROOT
BRANCH   1   4
ATOM      2  C   UNL     1       0.707  -1.020  -1.037  0.00  0.00    -0.006 A 
ATOM      3  C   UNL     1       2.073  -1.222  -0.979  0.00  0.00    +0.011 A 
ATOM      4  C   UNL     1       2.762  -1.619  -2.110  0.00  0.00    -0.045 A 
ATOM      5  C   UNL     1       2.088  -1.815  -3.301  0.00  0.00    +0.007 A 
ATOM      6  C   UNL     1       0.722  -1.615  -3.364  0.00  0.00    +0.046 A 
ATOM      7  C   UNL     1       0.027  -1.222  -2.229  0.00  0.00    +0.123 A 
BRANCH   2   9
ATOM      8  C   UNL     1      -0.302   0.919   0.133  0.00  0.00    +0.009 C 
ATOM      9  C   UNL     1      -0.044  -0.587   0.196  0.00  0.00    +0.035 C 
ENDBRANCH   2   9
BRANCH   7  10
ATOM     10  O   UNL     1      -1.317  -1.030  -2.287  0.00  0.00    -0.495 OA
ATOM     11  C   UNL     1      -1.951  -1.256  -3.547  0.00  0.00    +0.277 C 
ENDBRANCH   7  10
ENDBRANCH   1   4
BRANCH   1  12
ATOM     12  C   UNL     1       4.950  -0.894  -3.025  0.00  0.00    +0.041 C 
BRANCH  12  13
ATOM     13  C   UNL     1       4.743   0.532  -2.583  0.00  0.00    -0.045 A 
ATOM     14  C   UNL     1       3.717   1.282  -3.127  0.00  0.00    +0.007 A 
ATOM     15  C   UNL     1       3.525   2.589  -2.724  0.00  0.00    +0.047 A 
ATOM     16  C   UNL     1       4.364   3.151  -1.772  0.00  0.00    +0.138 A 
ATOM     17  C   UNL     1       5.394   2.397  -1.227  0.00  0.00    +0.083 A 
ATOM     18  C   UNL     1       5.578   1.087  -1.630  0.00  0.00    +0.027 A 
ATOM     19 CL   UNL     1       6.446   3.095  -0.036  0.00  0.00    -0.080 Cl
BRANCH  16  20
ATOM     20  O   UNL     1       4.178   4.437  -1.375  0.00  0.00    -0.494 OA
ATOM     21  C   UNL     1       3.099   5.153  -1.979  0.00  0.00    +0.277 C 
ENDBRANCH  16  20
ENDBRANCH  12  13
ENDBRANCH   1  12
BRANCH   1  22
ATOM     22  C   UNL     1       4.571  -3.287  -2.416  0.00  0.00    -0.078 C 
BRANCH  22  23
ATOM     23  N   UNL     1       6.013  -3.525  -2.265  0.00  0.00    +0.379 N 
ATOM     24  H   UNL     1       6.306  -3.243  -1.342  0.00  0.00    -0.090 HD
ATOM     25  H   UNL     1       6.207  -4.506  -2.394  0.00  0.00    -0.090 HD
ATOM     26  H   UNL     1       6.517  -2.989  -2.956  0.00  0.00    -0.090 HD
ENDBRANCH  22  23
ENDBRANCH   1  22
TORSDOF 8
