REMARK  Name = ZINC14471540
REMARK  7 active torsions:
REMARK  status: ('A' for Active; 'I' for Inactive)
REMARK    1  A    between atoms: C_1  and  C_2
REMARK    2  A    between atoms: C_2  and  N_3
REMARK    3  A    between atoms: N_3  and  C_4
REMARK    4  A    between atoms: N_3  and  C_6
REMARK    5  A    between atoms: C_4  and  C_5
REMARK    6  A    between atoms: C_19  and  C_22
REMARK    7  A    between atoms: C_26  and  N_28
REMARK                            x       y       z     vdW  Elec       q    Type
REMARK                         _______ _______ _______ _____ _____    ______ ____
ROOT
ATOM      1  C   UNL     1       0.609  -1.872  -1.272  0.00  0.00    +0.014 A 
ATOM      2  C   UNL     1       1.142  -2.643  -0.255  0.00  0.00    +0.023 A 
ATOM      3  C   UNL     1       1.067  -4.018  -0.325  0.00  0.00    +0.025 A 
ATOM      4  C   UNL     1       0.455  -4.630  -1.416  0.00  0.00    +0.031 A 
ATOM      5  C   UNL     1      -0.088  -3.860  -2.428  0.00  0.00    -0.018 A 
ATOM      6  C   UNL     1      -0.006  -2.476  -2.350  0.00  0.00    +0.027 A 
ATOM      7  C   UNL     1      -0.790  -4.466  -3.610  0.00  0.00    +0.049 C 
ATOM      8  C   UNL     1      -2.140  -3.780  -3.751  0.00  0.00    -0.023 C 
ATOM      9  C   UNL     1      -3.094  -4.538  -3.276  0.00  0.00    -0.030 C 
ATOM     10  C   UNL     1      -2.537  -5.847  -2.757  0.00  0.00    +0.033 C 
ATOM     11  C   UNL     1      -1.126  -5.942  -3.417  0.00  0.00    +0.029 C 
ATOM     12  C   UNL     1      -0.150  -6.738  -2.602  0.00  0.00    +0.105 C 
ATOM     13  N   UNL     1       0.405  -6.019  -1.472  0.00  0.00    -0.336 N 
ATOM     14  H   UNL     1       0.778  -6.527  -0.734  0.00  0.00    +0.147 HD
ENDROOT
BRANCH  12  15
ATOM     15  C   UNL     1      -0.858  -7.954  -2.063  0.00  0.00    -0.025 A 
ATOM     16  C   UNL     1      -1.672  -7.843  -0.950  0.00  0.00    +0.005 A 
ATOM     17  C   UNL     1      -2.322  -8.958  -0.456  0.00  0.00    +0.003 A 
ATOM     18  C   UNL     1      -2.158 -10.184  -1.074  0.00  0.00    +0.033 A 
ATOM     19  C   UNL     1      -1.345 -10.294  -2.186  0.00  0.00    +0.127 A 
ATOM     20  C   UNL     1      -0.699  -9.178  -2.683  0.00  0.00    +0.038 A 
BRANCH  19  21
ATOM     21  N   UNL     1      -1.170 -11.607  -2.847  0.00  0.00    +0.056 N 
ATOM     22  O   UNL     1      -1.738 -12.583  -2.414  0.00  0.00    -0.126 OA
ATOM     23  O   UNL     1      -0.459 -11.704  -3.820  0.00  0.00    -0.126 OA
ENDBRANCH  19  21
ENDBRANCH  12  15
BRANCH   1  24
ATOM     24  N   UNL     1       0.690  -0.478  -1.207  0.00  0.00    -0.394 NA
ATOM     25  H   UNL     1       0.251  -0.077  -2.022  0.00  0.00    +0.126 HD
BRANCH  24  27
ATOM     26  C   UNL     1      -0.019   1.526   0.010  0.00  0.00    +0.022 C 
ATOM     27  C   UNL     1       0.002  -0.004   0.002  0.00  0.00    +0.081 C 
ENDBRANCH  24  27
BRANCH  24  28
ATOM     28  C   UNL     1       2.100  -0.070  -1.159  0.00  0.00    +0.081 C 
ATOM     29  C   UNL     1       2.786  -0.454  -2.472  0.00  0.00    +0.022 C 
ENDBRANCH  24  28
ENDBRANCH   1  24
TORSDOF 5
