REMARK  Name = ZINC36092918
REMARK  10 active torsions:
REMARK  status: ('A' for Active; 'I' for Inactive)
REMARK    1  A    between atoms: C_1  and  C_2
REMARK    2  A    between atoms: C_7  and  N_12
REMARK    3  A    between atoms: C_9  and  C_11
REMARK    4  A    between atoms: C_13  and  C_15
REMARK    5  A    between atoms: C_15  and  C_16
REMARK    6  A    between atoms: C_16  and  C_17
REMARK    7  A    between atoms: C_17  and  C_18
REMARK    8  A    between atoms: C_18  and  N_19
REMARK    9  A    between atoms: C_26  and  O_32
REMARK   10  A    between atoms: O_32  and  C_33
REMARK                            x       y       z     vdW  Elec       q    Type
REMARK                         _______ _______ _______ _____ _____    ______ ____
ROOT
ATOM      1  N   UNL     1       2.418  -8.068   7.237  0.00  0.00    -0.287 N 
ATOM      2  C   UNL     1       3.580  -8.735   7.088  0.00  0.00    +0.279 A 
ATOM      3  O   UNL     1       4.037  -8.933   5.977  0.00  0.00    -0.265 OA
ATOM      4  C   UNL     1       4.265  -9.205   8.239  0.00  0.00    +0.129 A 
ATOM      5  C   UNL     1       3.713  -8.960   9.483  0.00  0.00    +0.079 A 
ATOM      6  C   UNL     1       4.618  -9.547  10.470  0.00  0.00    +0.027 A 
ATOM      7  C   UNL     1       4.603  -9.623  11.867  0.00  0.00    +0.057 A 
ATOM      8  C   UNL     1       5.632 -10.262  12.527  0.00  0.00    +0.121 A 
ATOM      9  C   UNL     1       6.682 -10.829  11.809  0.00  0.00    +0.047 A 
ATOM     10  C   UNL     1       6.709 -10.761  10.435  0.00  0.00    +0.030 A 
ATOM     11  C   UNL     1       5.680 -10.121   9.748  0.00  0.00    +0.049 A 
ATOM     12  N   UNL     1       5.449  -9.904   8.406  0.00  0.00    -0.349 N 
ATOM     13  H   UNL     1       6.029 -10.198   7.687  0.00  0.00    +0.166 HD
ATOM     14  N   UNL     1       2.518  -8.270   9.572  0.00  0.00    -0.333 N 
ATOM     15  C   UNL     1       1.902  -7.836   8.456  0.00  0.00    +0.161 A 
ATOM     16  S   UNL     1       0.427  -6.977   8.592  0.00  0.00    -0.013 S 
ATOM     17  H   UNL     1       2.124  -8.094  10.441  0.00  0.00    +0.168 HD
ENDROOT
BRANCH   8  18
ATOM     18  O   UNL     1       5.620 -10.338  13.885  0.00  0.00    -0.495 OA
ATOM     19  C   UNL     1       6.716 -11.014  14.506  0.00  0.00    +0.277 C 
ENDBRANCH   8  18
BRANCH   1  20
ATOM     20  C   UNL     1       1.710  -7.583   6.050  0.00  0.00    +0.127 C 
BRANCH  20  21
ATOM     21  C   UNL     1       2.193  -6.172   5.709  0.00  0.00    +0.022 C 
BRANCH  21  22
ATOM     22  C   UNL     1       1.453  -5.665   4.469  0.00  0.00    +0.011 C 
BRANCH  22  23
ATOM     23  C   UNL     1       1.936  -4.254   4.128  0.00  0.00    +0.096 C 
BRANCH  23  25
ATOM     24  N   UNL     1       1.471  -2.526   2.420  0.00  0.00    -0.312 N 
ATOM     25  C   UNL     1       1.207  -3.754   2.907  0.00  0.00    +0.213 C 
ATOM     26  O   UNL     1       0.382  -4.458   2.364  0.00  0.00    -0.276 OA
ATOM     27  H   UNL     1       2.131  -1.963   2.855  0.00  0.00    +0.149 HD
BRANCH  24  33
ATOM     28  C   UNL     1      -0.019   1.526   0.010  0.00  0.00    +0.008 C 
ATOM     29  C   UNL     1       0.002  -0.004   0.002  0.00  0.00    -0.009 C 
ATOM     30  C   UNL     1       0.718  -0.497  -1.257  0.00  0.00    +0.003 C 
ATOM     31  C   UNL     1       0.739  -2.027  -1.265  0.00  0.00    +0.002 C 
ATOM     32  C   UNL     1       1.479  -2.534  -0.026  0.00  0.00    +0.022 C 
ATOM     33  C   UNL     1       0.763  -2.041   1.233  0.00  0.00    +0.076 C 
ATOM     34  C   UNL     1       0.742  -0.511   1.242  0.00  0.00    +0.009 C 
ATOM     35  C   UNL     1       0.026  -0.018   2.500  0.00  0.00    +0.009 C 
ENDBRANCH  24  33
ENDBRANCH  23  25
ENDBRANCH  22  23
ENDBRANCH  21  22
ENDBRANCH  20  21
ENDBRANCH   1  20
TORSDOF 7
