REMARK  Name = ZINC17320449
REMARK  4 active torsions:
REMARK  status: ('A' for Active; 'I' for Inactive)
REMARK    1  A    between atoms: C_1  and  C_2
REMARK    2  A    between atoms: C_8  and  C_21
REMARK    3  A    between atoms: C_12  and  C_13
REMARK    4  A    between atoms: C_21  and  C_22
REMARK                            x       y       z     vdW  Elec       q    Type
REMARK                         _______ _______ _______ _____ _____    ______ ____
ROOT
ATOM      1  C   UNL     1      -3.661   3.882   0.268  0.00  0.00    +0.046 C 
ATOM      2  C   UNL     1      -2.260   4.438   0.253  0.00  0.00    -0.017 A 
ATOM      3  C   UNL     1      -2.053   5.815   0.360  0.00  0.00    +0.076 A 
ATOM      4  C   UNL     1      -3.047   6.904   0.497  0.00  0.00    +0.260 A 
ATOM      5  O   UNL     1      -4.240   6.659   0.536  0.00  0.00    -0.267 OA
ATOM      6  N   UNL     1      -2.599   8.172   0.577  0.00  0.00    -0.310 N 
ATOM      7  H   UNL     1      -3.237   8.896   0.667  0.00  0.00    +0.170 HD
ATOM      8  C   UNL     1      -1.274   8.456   0.535  0.00  0.00    +0.115 A 
ATOM      9  N   UNL     1      -0.371   7.520   0.415  0.00  0.00    -0.226 NA
ATOM     10  C   UNL     1      -0.705   6.239   0.328  0.00  0.00    +0.116 A 
ATOM     11  S   UNL     1       0.196   4.718   0.160  0.00  0.00    -0.064 S 
ATOM     12  C   UNL     1      -1.192   3.597   0.138  0.00  0.00    +0.080 A 
ENDROOT
BRANCH  12  13
ATOM     13  C   UNL     1      -1.187   2.136   0.019  0.00  0.00    +0.254 C 
ATOM     14  O   UNL     1      -2.000   1.472   0.635  0.00  0.00    -0.269 OA
ATOM     15  N   UNL     1      -0.281   1.528  -0.772  0.00  0.00    -0.297 N 
ATOM     16  C   UNL     1      -0.177   0.062  -0.801  0.00  0.00    +0.108 C 
ATOM     17  C   UNL     1      -0.281  -0.411  -2.254  0.00  0.00    +0.019 C 
ATOM     18  C   UNL     1       0.771   0.311  -3.099  0.00  0.00    +0.003 C 
ATOM     19  C   UNL     1       0.511   1.819  -3.062  0.00  0.00    +0.019 C 
ATOM     20  C   UNL     1       0.625   2.317  -1.617  0.00  0.00    +0.108 C 
ENDBRANCH  12  13
BRANCH   8  21
ATOM     21  C   UNL     1      -0.830   9.893   0.628  0.00  0.00    +0.109 C 
BRANCH  21  22
ATOM     22  C   UNL     1       0.674   9.960   0.559  0.00  0.00    -0.040 A 
ATOM     23  C   UNL     1       1.422   9.900   1.720  0.00  0.00    +0.004 A 
ATOM     24  C   UNL     1       2.802   9.957   1.657  0.00  0.00    +0.000 A 
ATOM     25  C   UNL     1       3.433  10.083   0.433  0.00  0.00    +0.000 A 
ATOM     26  C   UNL     1       2.684  10.148  -0.727  0.00  0.00    +0.000 A 
ATOM     27  C   UNL     1       1.305  10.086  -0.664  0.00  0.00    +0.004 A 
ENDBRANCH  21  22
ENDBRANCH   8  21
TORSDOF 3
