REMARK  Name = ZINC39949509
REMARK  6 active torsions:
REMARK  status: ('A' for Active; 'I' for Inactive)
REMARK    1  A    between atoms: C_1  and  C_2
REMARK    2  A    between atoms: C_5  and  C_27
REMARK    3  A    between atoms: C_6  and  C_8
REMARK    4  A    between atoms: C_8  and  C_9
REMARK    5  A    between atoms: C_10  and  C_16
REMARK    6  A    between atoms: C_17  and  C_18
REMARK                            x       y       z     vdW  Elec       q    Type
REMARK                         _______ _______ _______ _____ _____    ______ ____
ROOT
ATOM      1  C   UNL     1       1.281  -3.662   2.511  0.00  0.00    +0.047 A 
ATOM      2  C   UNL     1       1.971  -3.106   3.578  0.00  0.00    +0.074 A 
ATOM      3  N   UNL     1       3.216  -3.534   3.858  0.00  0.00    -0.237 NA
ATOM      4  C   UNL     1       3.788  -4.463   3.144  0.00  0.00    +0.199 A 
ATOM      5  N   UNL     1       3.166  -5.039   2.096  0.00  0.00    -0.313 N 
ATOM      6  C   UNL     1       1.914  -4.666   1.758  0.00  0.00    +0.255 A 
ATOM      7  O   UNL     1       1.343  -5.188   0.813  0.00  0.00    -0.267 OA
ATOM      8  H   UNL     1       3.619  -5.728   1.585  0.00  0.00    +0.170 HD
ENDROOT
BRANCH   2   9
ATOM      9  C   UNL     1       1.345  -2.053   4.400  0.00  0.00    +0.025 C 
ATOM     10  C   UNL     1       2.011  -1.524   5.421  0.00  0.00    -0.007 C 
BRANCH  10  11
ATOM     11  C   UNL     1       1.371  -0.448   6.260  0.00  0.00    +0.137 C 
ATOM     12  C   UNL     1       2.191   0.818   6.109  0.00  0.00    +0.092 C 
ATOM     13  N   UNL     1       2.695   1.349   7.179  0.00  0.00    -0.174 NA
ATOM     14  C   UNL     1       2.520   0.828   8.398  0.00  0.00    +0.329 C 
ATOM     15  O   UNL     1       3.035   1.405   9.336  0.00  0.00    -0.250 OA
ATOM     16  N   UNL     1       1.819  -0.282   8.661  0.00  0.00    -0.238 N 
ATOM     17  C   UNL     1       1.221  -0.979   7.674  0.00  0.00    +0.232 C 
ATOM     18  O   UNL     1       0.588  -1.986   7.909  0.00  0.00    -0.274 OA
ATOM     19  H   UNL     1       1.743  -0.591   9.577  0.00  0.00    +0.159 HD
ENDBRANCH  10  11
ENDBRANCH   2   9
BRANCH   1  20
ATOM     20  C   UNL     1      -0.114  -3.204   2.171  0.00  0.00    +0.078 C 
BRANCH  20  26
ATOM     21  C   UNL     1       2.576  -0.110  -0.698  0.00  0.00    +0.044 C 
ATOM     22  C   UNL     1       1.240  -0.645  -0.252  0.00  0.00    -0.050 A 
ATOM     23  C   UNL     1       0.075  -0.147  -0.806  0.00  0.00    +0.003 A 
ATOM     24  C   UNL     1      -1.150  -0.638  -0.397  0.00  0.00    +0.004 A 
ATOM     25  C   UNL     1      -1.211  -1.628   0.567  0.00  0.00    -0.047 A 
ATOM     26  C   UNL     1      -0.047  -2.126   1.120  0.00  0.00    -0.040 A 
ATOM     27  C   UNL     1       1.179  -1.638   0.708  0.00  0.00    +0.007 A 
ATOM     28  C   UNL     1      -2.547  -2.163   1.014  0.00  0.00    +0.044 C 
ENDBRANCH  20  26
ENDBRANCH   1  20
TORSDOF 4
