REMARK  Name = ZINC59437607
REMARK  8 active torsions:
REMARK  status: ('A' for Active; 'I' for Inactive)
REMARK    1  A    between atoms: C_1  and  C_2
REMARK    2  A    between atoms: C_2  and  C_3
REMARK    3  A    between atoms: C_3  and  C_5
REMARK    4  A    between atoms: C_3  and  C_6
REMARK    5  A    between atoms: C_9  and  N_12
REMARK    6  A    between atoms: N_12  and  C_13
REMARK    7  A    between atoms: C_13  and  N_15
REMARK    8  A    between atoms: C_16  and  C_18
REMARK                            x       y       z     vdW  Elec       q    Type
REMARK                         _______ _______ _______ _____ _____    ______ ____
ROOT
ATOM      1  C   UNL     1      -1.815  -6.955   0.526  0.00  0.00    +0.141 C 
ATOM      2  S   UNL     1      -2.522  -6.231   1.907  0.00  0.00    -0.018 S 
ENDROOT
BRANCH   1   3
ATOM      3  N   UNL     1      -1.707  -8.296   0.450  0.00  0.00    -0.264 N 
ATOM      4  C   UNL     1      -2.155  -9.067   1.461  0.00  0.00    +0.250 C 
ATOM      5  O   UNL     1      -2.656  -8.553   2.441  0.00  0.00    -0.270 OA
ATOM      6  H   UNL     1      -1.306  -8.707  -0.332  0.00  0.00    +0.157 HD
BRANCH   4   7
ATOM      7  C   UNL     1      -2.035 -10.537   1.377  0.00  0.00    +0.037 A 
ATOM      8  C   UNL     1      -1.454 -11.131   0.255  0.00  0.00    +0.014 A 
ATOM      9  C   UNL     1      -1.346 -12.504   0.183  0.00  0.00    +0.015 A 
ATOM     10  C   UNL     1      -1.813 -13.293   1.220  0.00  0.00    +0.013 A 
ATOM     11  C   UNL     1      -2.390 -12.711   2.335  0.00  0.00    +0.015 A 
ATOM     12  C   UNL     1      -2.498 -11.339   2.422  0.00  0.00    +0.014 A 
ATOM     13  I   UNL     1      -1.645 -15.378   1.101  0.00  0.00    -0.044 I 
ENDBRANCH   4   7
ENDBRANCH   1   3
BRANCH   1  14
ATOM     14  N   UNL     1      -1.367  -6.184  -0.484  0.00  0.00    -0.297 N 
ATOM     15  H   UNL     1      -1.041  -6.595  -1.300  0.00  0.00    +0.154 HD
BRANCH  14  19
ATOM     16  C   UNL     1      -1.385  -2.036  -0.106  0.00  0.00    -0.044 A 
ATOM     17  C   UNL     1      -0.989  -2.824   0.959  0.00  0.00    +0.006 A 
ATOM     18  C   UNL     1      -0.982  -4.200   0.837  0.00  0.00    +0.023 A 
ATOM     19  C   UNL     1      -1.373  -4.791  -0.357  0.00  0.00    +0.033 A 
ATOM     20  C   UNL     1      -1.771  -3.997  -1.425  0.00  0.00    +0.023 A 
ATOM     21  C   UNL     1      -1.781  -2.622  -1.294  0.00  0.00    +0.006 A 
BRANCH  16  22
ATOM     22  C   UNL     1      -1.391  -0.535   0.031  0.00  0.00    +0.016 C 
ATOM     23  C   UNL     1      -2.331  -0.130   1.168  0.00  0.00    +0.012 C 
BRANCH  22  25
ATOM     24  C   UNL     1       0.044   1.484   0.357  0.00  0.00    +0.004 C 
ATOM     25  C   UNL     1       0.025  -0.045   0.341  0.00  0.00    +0.004 C 
ENDBRANCH  22  25
ENDBRANCH  16  22
ENDBRANCH  14  19
ENDBRANCH   1  14
TORSDOF 6
