REMARK  Name = ZINC67061664
REMARK  5 active torsions:
REMARK  status: ('A' for Active; 'I' for Inactive)
REMARK    1  A    between atoms: C_1  and  C_2
REMARK    2  A    between atoms: C_5  and  C_7
REMARK    3  A    between atoms: C_7  and  C_9
REMARK    4  A    between atoms: C_7  and  N_10
REMARK    5  A    between atoms: C_17  and  C_20
REMARK                            x       y       z     vdW  Elec       q    Type
REMARK                         _______ _______ _______ _____ _____    ______ ____
ROOT
ATOM      1  N   UNL     1       2.819  -2.969   0.861  0.00  0.00    -0.290 N 
ATOM      2  C   UNL     1       3.507  -3.989   1.413  0.00  0.00    +0.303 C 
ATOM      3  O   UNL     1       3.131  -5.134   1.251  0.00  0.00    -0.253 OA
ATOM      4  N   UNL     1       4.611  -3.739   2.144  0.00  0.00    -0.281 N 
ATOM      5  C   UNL     1       5.021  -2.360   2.450  0.00  0.00    +0.137 C 
ATOM      6  C   UNL     1       6.501  -2.201   2.082  0.00  0.00    +0.179 C 
ATOM      7  O   UNL     1       7.255  -3.242   2.708  0.00  0.00    -0.369 OA
ATOM      8  C   UNL     1       6.902  -4.559   2.281  0.00  0.00    +0.166 C 
ATOM      9  C   UNL     1       5.440  -4.838   2.664  0.00  0.00    +0.145 C 
ATOM     10  H   UNL     1       3.075  -2.053   1.051  0.00  0.00    +0.151 HD
ENDROOT
BRANCH   8  11
ATOM     11  C   UNL     1       7.799  -5.565   2.956  0.00  0.00    -0.015 A 
ATOM     12  C   UNL     1       8.140  -5.403   4.286  0.00  0.00    +0.009 A 
ATOM     13  C   UNL     1       8.963  -6.324   4.907  0.00  0.00    +0.041 A 
ATOM     14  C   UNL     1       9.446  -7.410   4.198  0.00  0.00    +0.158 A 
ATOM     15  C   UNL     1       9.104  -7.572   2.864  0.00  0.00    +0.159 A 
ATOM     16  C   UNL     1       8.276  -6.651   2.246  0.00  0.00    +0.047 A 
ATOM     17  F   UNL     1       9.575  -8.631   2.169  0.00  0.00    -0.202 F 
ATOM     18  F   UNL     1      10.250  -8.310   4.804  0.00  0.00    -0.202 F 
ENDBRANCH   8  11
BRANCH   1  19
ATOM     19  C   UNL     1       1.685  -3.245  -0.024  0.00  0.00    +0.137 C 
ATOM     20  C   UNL     1       2.195  -3.478  -1.448  0.00  0.00    +0.036 C 
BRANCH  19  25
ATOM     21  C   UNL     1      -0.020   1.502   0.011  0.00  0.00    +0.086 C 
ATOM     22  C   UNL     1       0.001  -0.005   0.001  0.00  0.00    +0.102 A 
ATOM     23  C   UNL     1      -1.079  -0.807   0.000  0.00  0.00    +0.045 A 
ATOM     24  C   UNL     1      -0.601  -2.138  -0.010  0.00  0.00    +0.047 A 
ATOM     25  C   UNL     1       0.743  -2.069  -0.014  0.00  0.00    +0.125 A 
ATOM     26  O   UNL     1       1.102  -0.775  -0.013  0.00  0.00    -0.463 OA
ENDBRANCH  19  25
ENDBRANCH   1  19
TORSDOF 3
