REMARK  Name = ZINC47146951
REMARK  6 active torsions:
REMARK  status: ('A' for Active; 'I' for Inactive)
REMARK    1  A    between atoms: C_1  and  C_2
REMARK    2  A    between atoms: C_7  and  C_8
REMARK    3  A    between atoms: C_8  and  O_9
REMARK    4  A    between atoms: O_9  and  C_10
REMARK    5  A    between atoms: C_15  and  C_16
REMARK    6  A    between atoms: N_32  and  C_35
REMARK                            x       y       z     vdW  Elec       q    Type
REMARK                         _______ _______ _______ _____ _____    ______ ____
ROOT
ATOM      1  C   UNL     1       0.094  -2.720   5.737  0.00  0.00    +0.075 C 
ATOM      2  C   UNL     1       1.385  -3.284   6.258  0.00  0.00    +0.033 A 
ATOM      3  C   UNL     1       1.642  -3.896   7.435  0.00  0.00    +0.088 A 
ATOM      4  N   UNL     1       2.938  -4.317   7.599  0.00  0.00    -0.311 N 
ATOM      5  H   UNL     1       3.200  -4.776   8.413  0.00  0.00    +0.170 HD
ATOM      6  C   UNL     1       3.847  -4.095   6.631  0.00  0.00    +0.289 A 
ATOM      7  O   UNL     1       5.027  -4.396   6.618  0.00  0.00    -0.260 OA
ATOM      8  S   UNL     1       2.960  -3.300   5.442  0.00  0.00    -0.030 S 
ATOM      9  S   UNL     1       0.362  -4.106   8.664  0.00  0.00    -0.093 S 
ATOM     10  C   UNL     1      -0.899  -2.984   8.006  0.00  0.00    +0.152 C 
ATOM     11  C   UNL     1      -1.048  -3.349   6.494  0.00  0.00    +0.110 C 
ATOM     12  C   UNL     1      -2.445  -2.882   6.230  0.00  0.00    +0.232 C 
ATOM     13  O   UNL     1      -2.888  -2.464   5.182  0.00  0.00    -0.274 OA
ATOM     14  N   UNL     1      -3.117  -3.023   7.403  0.00  0.00    -0.209 N 
ATOM     15  C   UNL     1      -2.296  -3.251   8.496  0.00  0.00    +0.240 C 
ATOM     16  O   UNL     1      -2.621  -3.604   9.609  0.00  0.00    -0.274 OA
ENDROOT
BRANCH   1  22
ATOM     17  C   UNL     1      -0.487  -0.402   4.977  0.00  0.00    +0.125 A 
ATOM     18  C   UNL     1      -0.507   0.972   5.169  0.00  0.00    +0.046 A 
ATOM     19  C   UNL     1       0.036   1.516   6.317  0.00  0.00    +0.004 A 
ATOM     20  C   UNL     1       0.600   0.692   7.274  0.00  0.00    +0.001 A 
ATOM     21  C   UNL     1       0.623  -0.678   7.084  0.00  0.00    +0.008 A 
ATOM     22  C   UNL     1       0.075  -1.226   5.940  0.00  0.00    +0.003 A 
BRANCH  17  23
ATOM     23  O   UNL     1      -1.021  -0.939   3.848  0.00  0.00    -0.487 OA
BRANCH  23  24
ATOM     24  C   UNL     1      -1.582  -0.029   2.900  0.00  0.00    +0.264 C 
BRANCH  24  31
ATOM     25  C   UNL     1      -2.825   1.373   0.701  0.00  0.00    +0.044 C 
ATOM     26  C   UNL     1      -2.717  -0.130   0.671  0.00  0.00    -0.044 A 
ATOM     27  C   UNL     1      -3.207  -0.837  -0.411  0.00  0.00    +0.004 A 
ATOM     28  C   UNL     1      -3.108  -2.215  -0.438  0.00  0.00    +0.000 A 
ATOM     29  C   UNL     1      -2.518  -2.886   0.616  0.00  0.00    +0.000 A 
ATOM     30  C   UNL     1      -2.027  -2.179   1.698  0.00  0.00    +0.007 A 
ATOM     31  C   UNL     1      -2.122  -0.800   1.723  0.00  0.00    -0.007 A 
ENDBRANCH  24  31
ENDBRANCH  23  24
ENDBRANCH  17  23
ENDBRANCH   1  22
BRANCH  14  32
ATOM     32  C   UNL     1      -4.512  -2.926   7.505  0.00  0.00    +0.044 A 
ATOM     33  C   UNL     1      -5.277  -2.680   6.372  0.00  0.00    +0.024 A 
ATOM     34  C   UNL     1      -6.651  -2.585   6.476  0.00  0.00    +0.002 A 
ATOM     35  C   UNL     1      -7.265  -2.734   7.705  0.00  0.00    +0.000 A 
ATOM     36  C   UNL     1      -6.506  -2.979   8.835  0.00  0.00    +0.002 A 
ATOM     37  C   UNL     1      -5.132  -3.080   8.737  0.00  0.00    +0.024 A 
ENDBRANCH  14  32
TORSDOF 5
