REMARK  Name = ZINC08430239
REMARK  3 active torsions:
REMARK  status: ('A' for Active; 'I' for Inactive)
REMARK    1  A    between atoms: C_1  and  C_2
REMARK    2  A    between atoms: C_5  and  C_8
REMARK    3  A    between atoms: C_13  and  C_23
REMARK                            x       y       z     vdW  Elec       q    Type
REMARK                         _______ _______ _______ _____ _____    ______ ____
ROOT
ATOM      1  C   UNL     1      -4.825  -0.110   2.877  0.00  0.00    +0.032 C 
ATOM      2  C   UNL     1      -4.382  -0.166   1.416  0.00  0.00    +0.059 C 
ATOM      3  C   UNL     1      -3.628   1.102   1.055  0.00  0.00    +0.017 C 
ATOM      4  C   UNL     1      -3.949   2.275   1.630  0.00  0.00    +0.037 C 
ATOM      5  C   UNL     1      -3.294   3.606   1.353  0.00  0.00    +0.143 C 
ATOM      6  N   UNL     1      -2.422   3.622   0.209  0.00  0.00    -0.331 N 
ATOM      7  C   UNL     1      -1.255   2.859   0.172  0.00  0.00    +0.049 A 
ATOM      8  C   UNL     1      -0.003   3.450   0.144  0.00  0.00    +0.025 A 
ATOM      9  C   UNL     1       1.126   2.651   0.198  0.00  0.00    +0.002 A 
ATOM     10  C   UNL     1       1.006   1.275   0.280  0.00  0.00    +0.002 A 
ATOM     11  C   UNL     1      -0.244   0.682   0.291  0.00  0.00    +0.025 A 
ATOM     12  C   UNL     1      -1.374   1.478   0.214  0.00  0.00    +0.052 A 
ATOM     13  N   UNL     1      -2.654   0.944   0.124  0.00  0.00    -0.316 N 
ATOM     14  C   UNL     1      -4.979   2.332   2.598  0.00  0.00    +0.163 C 
ATOM     15  O   UNL     1      -5.264   3.408   3.087  0.00  0.00    -0.292 OA
ATOM     16  C   UNL     1      -5.732   1.115   3.043  0.00  0.00    +0.088 C 
ATOM     17  H   UNL     1      -2.657   4.173  -0.554  0.00  0.00    +0.147 HD
ATOM     18  H   UNL     1      -2.866   0.419  -0.663  0.00  0.00    +0.152 HD
ENDROOT
BRANCH   5  19
ATOM     19  C   UNL     1      -2.487   4.001   2.564  0.00  0.00    +0.059 A 
ATOM     20  C   UNL     1      -2.163   3.081   3.491  0.00  0.00    +0.205 A 
ATOM     21  O   UNL     1      -1.445   3.372   4.580  0.00  0.00    -0.461 OA
ATOM     22  C   UNL     1      -0.999   4.618   4.841  0.00  0.00    +0.157 A 
ATOM     23  C   UNL     1      -1.283   5.660   3.944  0.00  0.00    +0.067 A 
ATOM     24  C   UNL     1      -2.070   5.347   2.735  0.00  0.00    +0.198 A 
ATOM     25  O   UNL     1      -2.349   6.208   1.918  0.00  0.00    -0.287 OA
ATOM     26  C   UNL     1      -0.828   6.952   4.202  0.00  0.00    +0.035 A 
ATOM     27  C   UNL     1      -0.097   7.200   5.344  0.00  0.00    +0.043 A 
ATOM     28  C   UNL     1       0.185   6.171   6.232  0.00  0.00    +0.043 A 
ATOM     29  C   UNL     1      -0.260   4.888   5.988  0.00  0.00    +0.085 A 
ATOM     30 CL   UNL     1       0.102   3.614   7.110  0.00  0.00    -0.080 Cl
ATOM     31 CL   UNL     1       0.474   8.806   5.673  0.00  0.00    -0.083 Cl
ENDBRANCH   5  19
BRANCH   1  36
ATOM     32  C   UNL     1      -7.744  -4.912   4.223  0.00  0.00    +0.044 C 
ATOM     33  C   UNL     1      -6.983  -3.660   3.873  0.00  0.00    -0.050 A 
ATOM     34  C   UNL     1      -5.824  -3.341   4.556  0.00  0.00    +0.003 A 
ATOM     35  C   UNL     1      -5.126  -2.192   4.233  0.00  0.00    +0.004 A 
ATOM     36  C   UNL     1      -5.587  -1.362   3.228  0.00  0.00    -0.043 A 
ATOM     37  C   UNL     1      -6.748  -1.678   2.549  0.00  0.00    +0.004 A 
ATOM     38  C   UNL     1      -7.444  -2.829   2.868  0.00  0.00    +0.003 A 
ENDBRANCH   1  36
TORSDOF 2
