REMARK  Name = ZINC17195749
REMARK  2 active torsions:
REMARK  status: ('A' for Active; 'I' for Inactive)
REMARK    1  A    between atoms: C_7  and  C_11
REMARK    2  A    between atoms: N_17  and  C_18
REMARK                            x       y       z     vdW  Elec       q    Type
REMARK                         _______ _______ _______ _____ _____    ______ ____
ROOT
ATOM      1  C   UNL     1       0.699  -3.252  -0.021  0.00  0.00    +0.030 C 
ATOM      2  C   UNL     1       1.200  -4.512  -0.135  0.00  0.00    +0.078 C 
ATOM      3  C   UNL     1       0.507  -5.753  -0.257  0.00  0.00    +0.256 C 
ATOM      4  O   UNL     1      -0.711  -5.788  -0.270  0.00  0.00    -0.269 OA
ATOM      5  N   UNL     1       1.218  -6.862  -0.355  0.00  0.00    -0.260 N 
ATOM      6  C   UNL     1       2.597  -6.806  -0.338  0.00  0.00    +0.166 C 
ATOM      7  N   UNL     1       3.464  -7.790  -0.423  0.00  0.00    -0.226 NA
ATOM      8  S   UNL     1       2.903  -5.053  -0.180  0.00  0.00    -0.049 S 
ATOM      9  H   UNL     1       0.769  -7.719  -0.438  0.00  0.00    +0.157 HD
ENDROOT
BRANCH   1  16
ATOM     10  C   UNL     1       0.064   1.185   1.327  0.00  0.00    +0.001 A 
ATOM     11  C   UNL     1       1.244   1.913   1.312  0.00  0.00    +0.002 A 
ATOM     12  C   UNL     1       2.429   1.323   0.931  0.00  0.00    +0.026 A 
ATOM     13  C   UNL     1       2.447  -0.017   0.556  0.00  0.00    +0.047 A 
ATOM     14  C   UNL     1       1.252  -0.753   0.571  0.00  0.00    +0.007 A 
ATOM     15  C   UNL     1       0.061  -0.142   0.958  0.00  0.00    +0.010 A 
ATOM     16  C   UNL     1       1.607  -2.114   0.128  0.00  0.00    +0.001 A 
ATOM     17  C   UNL     1       2.952  -2.103  -0.115  0.00  0.00    +0.091 A 
ATOM     18  N   UNL     1       3.452  -0.865   0.137  0.00  0.00    -0.360 N 
ATOM     19  H   UNL     1       4.383  -0.614   0.036  0.00  0.00    +0.165 HD
ENDBRANCH   1  16
BRANCH   7  20
ATOM     20  C   UNL     1       3.025  -9.080  -0.547  0.00  0.00    +0.067 A 
ATOM     21  C   UNL     1       1.980  -9.546   0.254  0.00  0.00    +0.029 A 
ATOM     22  C   UNL     1       1.541 -10.847   0.123  0.00  0.00    +0.017 A 
ATOM     23  C   UNL     1       2.135 -11.691  -0.799  0.00  0.00    +0.018 A 
ATOM     24  C   UNL     1       3.171 -11.236  -1.597  0.00  0.00    +0.017 A 
ATOM     25  C   UNL     1       3.615  -9.936  -1.480  0.00  0.00    +0.029 A 
ATOM     26 BR   UNL     1       1.528 -13.474  -0.971  0.00  0.00    -0.050 Br
ENDBRANCH   7  20
TORSDOF 2
