REMARK  Name = ZINC09003872
REMARK  5 active torsions:
REMARK  status: ('A' for Active; 'I' for Inactive)
REMARK    1  A    between atoms: C_1  and  C_2
REMARK    2  A    between atoms: C_5  and  N_9
REMARK    3  A    between atoms: N_9  and  C_10
REMARK    4  A    between atoms: C_10  and  C_11
REMARK    5  A    between atoms: C_16  and  C_22
REMARK                            x       y       z     vdW  Elec       q    Type
REMARK                         _______ _______ _______ _____ _____    ______ ____
ROOT
ATOM      1  N   UNL     1       2.727   1.461  -0.245  0.00  0.00    -0.274 N 
ATOM      2  C   UNL     1       2.827   0.088  -0.259  0.00  0.00    +0.157 C 
ATOM      3  N   UNL     1       3.913  -0.616  -0.196  0.00  0.00    -0.257 NA
ATOM      4  C   UNL     1       3.893  -2.066  -0.238  0.00  0.00    +0.143 C 
ATOM      5  C   UNL     1       4.795  -2.543  -1.402  0.00  0.00    +0.193 C 
ATOM      6  S   UNL     1       3.889  -4.035  -1.998  0.00  0.00    -0.028 S 
ATOM      7  O   UNL     1       4.012  -4.128  -3.410  0.00  0.00    -0.174 OA
ATOM      8  O   UNL     1       4.234  -5.150  -1.186  0.00  0.00    -0.174 OA
ATOM      9  C   UNL     1       2.187  -3.466  -1.568  0.00  0.00    +0.182 C 
ATOM     10  C   UNL     1       2.468  -2.633  -0.303  0.00  0.00    +0.101 C 
ATOM     11  S   UNL     1       1.490  -1.085  -0.375  0.00  0.00    -0.083 S 
ENDROOT
BRANCH   1  16
ATOM     12  C   UNL     1      -2.380   3.932  -0.156  0.00  0.00    +0.045 C 
ATOM     13  C   UNL     1      -1.023   3.275  -0.180  0.00  0.00    -0.032 A 
ATOM     14  C   UNL     1      -0.586   2.555   0.916  0.00  0.00    +0.006 A 
ATOM     15  C   UNL     1       0.657   1.953   0.898  0.00  0.00    +0.024 A 
ATOM     16  C   UNL     1       1.468   2.071  -0.224  0.00  0.00    +0.037 A 
ATOM     17  C   UNL     1       1.027   2.794  -1.323  0.00  0.00    +0.043 A 
ATOM     18  C   UNL     1      -0.216   3.399  -1.297  0.00  0.00    +0.046 A 
ATOM     19 CL   UNL     1      -0.766   4.310  -2.669  0.00  0.00    -0.083 Cl
ENDBRANCH   1  16
BRANCH   1  20
ATOM     20  C   UNL     1       3.939   2.284  -0.253  0.00  0.00    +0.168 C 
BRANCH  20  21
ATOM     21  C   UNL     1       4.373   2.553   1.165  0.00  0.00    +0.066 A 
ATOM     22  C   UNL     1       5.572   2.049   1.628  0.00  0.00    +0.095 A 
ATOM     23  C   UNL     1       5.954   2.312   2.949  0.00  0.00    +0.259 A 
ATOM     24  O   UNL     1       7.008   1.881   3.387  0.00  0.00    -0.267 OA
ATOM     25  N   UNL     1       5.137   3.051   3.730  0.00  0.00    -0.265 N 
ATOM     26  C   UNL     1       5.494   3.316   5.017  0.00  0.00    +0.025 A 
ATOM     27  C   UNL     1       4.692   4.054   5.818  0.00  0.00    +0.021 A 
ATOM     28  C   UNL     1       3.478   4.557   5.330  0.00  0.00    +0.005 A 
ATOM     29  C   UNL     1       3.112   4.297   4.043  0.00  0.00    +0.047 A 
ATOM     30  C   UNL     1       3.960   3.528   3.224  0.00  0.00    +0.141 A 
ATOM     31  N   UNL     1       3.606   3.278   1.965  0.00  0.00    -0.232 NA
ATOM     32  C   UNL     1       6.796   2.781   5.555  0.00  0.00    +0.064 C 
ENDBRANCH  20  21
ENDBRANCH   1  20
TORSDOF 3
