REMARK  Name = ZINC03280162
REMARK  4 active torsions:
REMARK  status: ('A' for Active; 'I' for Inactive)
REMARK    1  A    between atoms: C_5  and  C_7
REMARK    2  A    between atoms: C_11  and  S_13
REMARK    3  A    between atoms: S_13  and  C_14
REMARK    4  A    between atoms: C_14  and  N_15
REMARK                            x       y       z     vdW  Elec       q    Type
REMARK                         _______ _______ _______ _____ _____    ______ ____
ROOT
ATOM      1  C   UNL     1       1.304  -0.368  -0.012  0.00  0.00    +0.183 A 
ATOM      2  N   UNL     1       0.002  -0.004  -0.011  0.00  0.00    -0.152 NA
ATOM      3  H   UNL     1      -0.977   1.937   0.005  0.00  0.00    +0.191 HD
ATOM      4  N   UNL     1      -0.017   1.400   0.003  0.00  0.00    -0.253 N 
ATOM      5  C   UNL     1       1.234   1.800   0.009  0.00  0.00    +0.186 A 
ATOM      6  N   UNL     1       2.033   0.731   0.001  0.00  0.00    -0.201 NA
ENDROOT
BRANCH   1  11
ATOM      7  C   UNL     1       1.427  -4.121   0.067  0.00  0.00    +0.001 A 
ATOM      8  C   UNL     1       2.786  -4.350  -0.053  0.00  0.00    +0.001 A 
ATOM      9  C   UNL     1       3.665  -3.288  -0.159  0.00  0.00    +0.016 A 
ATOM     10  C   UNL     1       3.190  -1.991  -0.152  0.00  0.00    +0.029 A 
ATOM     11  C   UNL     1       1.820  -1.754  -0.026  0.00  0.00    +0.035 A 
ATOM     12  C   UNL     1       0.939  -2.831   0.081  0.00  0.00    +0.013 A 
ATOM     13 BR   UNL     1       4.393  -0.540  -0.305  0.00  0.00    -0.050 Br
ENDBRANCH   1  11
BRANCH   5  14
ATOM     14  S   UNL     1       1.772   3.478   0.026  0.00  0.00    -0.067 S 
BRANCH  14  15
ATOM     15  C   UNL     1       0.229   4.433   0.031  0.00  0.00    +0.194 C 
BRANCH  15  16
ATOM     16  N   UNL     1      -0.377   4.373   1.364  0.00  0.00    -0.224 N 
ATOM     17  C   UNL     1      -1.260   3.438   1.757  0.00  0.00    +0.255 C 
ATOM     18  O   UNL     1      -1.674   2.522   1.074  0.00  0.00    -0.270 OA
ATOM     19  C   UNL     1      -1.640   3.708   3.159  0.00  0.00    +0.049 A 
ATOM     20  C   UNL     1      -2.489   3.096   4.068  0.00  0.00    +0.014 A 
ATOM     21  C   UNL     1      -2.627   3.623   5.342  0.00  0.00    +0.001 A 
ATOM     22  C   UNL     1      -1.925   4.754   5.713  0.00  0.00    +0.001 A 
ATOM     23  C   UNL     1      -1.073   5.378   4.815  0.00  0.00    +0.014 A 
ATOM     24  C   UNL     1      -0.924   4.862   3.537  0.00  0.00    +0.049 A 
ATOM     25  C   UNL     1      -0.129   5.250   2.353  0.00  0.00    +0.255 C 
ATOM     26  O   UNL     1       0.622   6.202   2.284  0.00  0.00    -0.270 OA
ENDBRANCH  15  16
ENDBRANCH  14  15
ENDBRANCH   5  14
TORSDOF 4
