REMARK  Name = ZINC24817302
REMARK  10 active torsions:
REMARK  status: ('A' for Active; 'I' for Inactive)
REMARK    1  A    between atoms: C_1  and  C_2
REMARK    2  A    between atoms: C_2  and  C_3
REMARK    3  A    between atoms: C_2  and  C_4
REMARK    4  A    between atoms: C_4  and  C_5
REMARK    5  A    between atoms: C_5  and  C_7
REMARK    6  A    between atoms: C_5  and  N_23
REMARK    7  A    between atoms: N_9  and  C_10
REMARK    8  A    between atoms: C_10  and  C_11
REMARK    9  A    between atoms: N_15  and  C_17
REMARK   10  A    between atoms: C_24  and  C_26
REMARK                            x       y       z     vdW  Elec       q    Type
REMARK                         _______ _______ _______ _____ _____    ______ ____
ROOT
ATOM      1  C   UNL     1      -1.835  -1.367  -0.910  0.00  0.00    +0.159 C 
ENDROOT
BRANCH   1   2
ATOM      2  C   UNL     1      -3.290  -1.555  -1.258  0.00  0.00    +0.233 C 
ATOM      3  O   UNL     1      -3.859  -2.580  -0.948  0.00  0.00    -0.274 OA
ATOM      4  N   UNL     1      -3.957  -0.585  -1.913  0.00  0.00    -0.313 N 
ATOM      5  H   UNL     1      -3.502   0.235  -2.160  0.00  0.00    +0.149 HD
BRANCH   4   6
ATOM      6  C   UNL     1      -5.371  -0.768  -2.251  0.00  0.00    +0.109 C 
BRANCH   6   7
ATOM      7  C   UNL     1      -5.884   0.472  -2.986  0.00  0.00    +0.025 C 
ATOM      8  C   UNL     1      -5.240   0.582  -4.393  0.00  0.00    +0.025 C 
ATOM      9  C   UNL     1      -6.315   1.387  -5.165  0.00  0.00    +0.105 C 
ATOM     10  N   UNL     1      -7.603   0.891  -4.648  0.00  0.00    -0.330 N 
ATOM     11  C   UNL     1      -7.389   0.336  -3.300  0.00  0.00    +0.110 C 
BRANCH  10  12
ATOM     12  C   UNL     1      -8.825   0.941  -5.322  0.00  0.00    +0.030 A 
ATOM     13  C   UNL     1      -9.973   0.442  -4.721  0.00  0.00    +0.023 A 
ATOM     14  C   UNL     1     -11.180   0.494  -5.390  0.00  0.00    +0.002 A 
ATOM     15  C   UNL     1     -11.245   1.041  -6.659  0.00  0.00    +0.000 A 
ATOM     16  C   UNL     1     -10.104   1.539  -7.261  0.00  0.00    +0.002 A 
ATOM     17  C   UNL     1      -8.895   1.495  -6.594  0.00  0.00    +0.023 A 
ENDBRANCH  10  12
ENDBRANCH   6   7
ENDBRANCH   4   6
ENDBRANCH   1   2
BRANCH   1  18
ATOM     18  N   UNL     1      -1.339  -2.562  -0.224  0.00  0.00    -0.300 N 
ATOM     19  C   UNL     1      -0.021  -2.848  -0.237  0.00  0.00    +0.246 C 
ATOM     20  O   UNL     1       0.765  -2.065  -0.733  0.00  0.00    -0.270 OA
ATOM     21  H   UNL     1      -1.957  -3.148   0.239  0.00  0.00    +0.150 HD
BRANCH  19  22
ATOM     22  C   UNL     1       0.466  -4.111   0.352  0.00  0.00    +0.055 A 
ATOM     23  C   UNL     1      -0.436  -5.015   0.918  0.00  0.00    +0.016 A 
ATOM     24  C   UNL     1       0.025  -6.193   1.466  0.00  0.00    +0.021 A 
ATOM     25  C   UNL     1       1.380  -6.482   1.458  0.00  0.00    +0.042 A 
ATOM     26  C   UNL     1       2.280  -5.590   0.899  0.00  0.00    +0.040 A 
ATOM     27  C   UNL     1       1.831  -4.410   0.341  0.00  0.00    +0.054 A 
ATOM     28 CL   UNL     1       2.960  -3.297  -0.366  0.00  0.00    -0.083 Cl
ATOM     29 CL   UNL     1       1.952  -7.967   2.151  0.00  0.00    -0.083 Cl
ENDBRANCH  19  22
ENDBRANCH   1  18
BRANCH   1  30
ATOM     30  C   UNL     1      -1.684  -0.152   0.008  0.00  0.00    +0.034 C 
BRANCH  30  32
ATOM     31  C   UNL     1      -2.048   0.684   2.334  0.00  0.00    +0.007 C 
ATOM     32  C   UNL     1      -2.386  -0.428   1.339  0.00  0.00    -0.015 C 
ATOM     33  C   UNL     1      -3.899  -0.472   1.118  0.00  0.00    +0.007 C 
ENDBRANCH  30  32
ENDBRANCH   1  30
TORSDOF 8
