REMARK  Name = ZINC08858364
REMARK  11 active torsions:
REMARK  status: ('A' for Active; 'I' for Inactive)
REMARK    1  A    between atoms: C_1  and  C_2
REMARK    2  A    between atoms: C_7  and  N_27
REMARK    3  A    between atoms: C_8  and  C_13
REMARK    4  A    between atoms: N_17  and  C_21
REMARK    5  A    between atoms: C_21  and  C_22
REMARK    6  A    between atoms: N_27  and  C_28
REMARK    7  A    between atoms: C_28  and  C_29
REMARK    8  A    between atoms: C_29  and  O_30
REMARK    9  A    between atoms: O_30  and  C_31
REMARK   10  A    between atoms: C_31  and  C_32
REMARK   11  A    between atoms: C_32  and  O_33
REMARK                            x       y       z     vdW  Elec       q    Type
REMARK                         _______ _______ _______ _____ _____    ______ ____
ROOT
ATOM      1  C   UNL     1       7.256  -2.425   8.859  0.00  0.00    +0.045 C 
ATOM      2  C   UNL     1       7.061  -0.973   8.508  0.00  0.00    -0.034 A 
ATOM      3  C   UNL     1       7.400   0.022   9.436  0.00  0.00    +0.008 A 
ATOM      4  C   UNL     1       7.220   1.334   9.111  0.00  0.00    +0.047 A 
ATOM      5  C   UNL     1       6.699   1.670   7.848  0.00  0.00    +0.142 A 
ATOM      6  N   UNL     1       6.528   2.956   7.539  0.00  0.00    -0.214 NA
ATOM      7  C   UNL     1       6.043   3.330   6.363  0.00  0.00    +0.134 A 
ATOM      8  C   UNL     1       5.688   2.346   5.411  0.00  0.00    +0.081 A 
ATOM      9  C   UNL     1       5.874   0.984   5.750  0.00  0.00    +0.267 A 
ATOM     10  O   UNL     1       5.585   0.103   4.959  0.00  0.00    -0.267 OA
ATOM     11  N   UNL     1       6.377   0.677   6.965  0.00  0.00    -0.267 N 
ATOM     12  C   UNL     1       6.559  -0.631   7.300  0.00  0.00    +0.099 A 
ENDROOT
BRANCH   8  13
ATOM     13  C   UNL     1       5.165   2.714   4.149  0.00  0.00    +0.037 C 
ATOM     14  C   UNL     1       5.871   3.552   3.336  0.00  0.00    +0.077 C 
ATOM     15  C   UNL     1       5.495   4.136   2.093  0.00  0.00    +0.259 C 
ATOM     16  O   UNL     1       4.402   3.916   1.601  0.00  0.00    -0.269 OA
ATOM     17  N   UNL     1       6.367   4.922   1.485  0.00  0.00    -0.248 N 
ATOM     18  C   UNL     1       7.578   5.171   2.034  0.00  0.00    +0.121 C 
ATOM     19  S   UNL     1       8.847   6.151   1.434  0.00  0.00    -0.027 S 
ATOM     20  S   UNL     1       7.516   4.219   3.544  0.00  0.00    -0.061 S 
BRANCH  17  21
ATOM     21  C   UNL     1       6.015   5.536   0.203  0.00  0.00    +0.189 C 
BRANCH  21  22
ATOM     22  C   UNL     1       6.435   4.626  -0.922  0.00  0.00    +0.122 A 
ATOM     23  C   UNL     1       5.680   3.660  -1.476  0.00  0.00    +0.046 A 
ATOM     24  C   UNL     1       6.463   3.058  -2.488  0.00  0.00    +0.041 A 
ATOM     25  C   UNL     1       7.650   3.692  -2.492  0.00  0.00    +0.195 A 
ATOM     26  O   UNL     1       7.627   4.640  -1.541  0.00  0.00    -0.466 OA
ENDBRANCH  21  22
ENDBRANCH  17  21
ENDBRANCH   8  13
BRANCH   7  27
ATOM     27  N   UNL     1       5.884   4.667   6.072  0.00  0.00    -0.326 N 
ATOM     28  H   UNL     1       5.526   4.936   5.212  0.00  0.00    +0.148 HD
BRANCH  27  29
ATOM     29  C   UNL     1       6.254   5.681   7.062  0.00  0.00    +0.131 C 
BRANCH  29  30
ATOM     30  C   UNL     1       5.979   7.074   6.492  0.00  0.00    +0.178 C 
BRANCH  30  31
ATOM     31  O   UNL     1       4.574   7.238   6.290  0.00  0.00    -0.376 OA
BRANCH  31  32
ATOM     32  C   UNL     1       4.208   8.512   5.758  0.00  0.00    +0.187 C 
BRANCH  32  33
ATOM     33  C   UNL     1       2.689   8.575   5.584  0.00  0.00    +0.184 C 
BRANCH  33  34
ATOM     34  O   UNL     1       2.060   8.506   6.865  0.00  0.00    -0.393 OA
ATOM     35  H   UNL     1       1.094   8.541   6.831  0.00  0.00    +0.209 HD
ENDBRANCH  33  34
ENDBRANCH  32  33
ENDBRANCH  31  32
ENDBRANCH  30  31
ENDBRANCH  29  30
ENDBRANCH  27  29
ENDBRANCH   7  27
TORSDOF 10
