REMARK  Name = ZINC12524705
REMARK  9 active torsions:
REMARK  status: ('A' for Active; 'I' for Inactive)
REMARK    1  A    between atoms: C_1  and  C_2
REMARK    2  A    between atoms: C_2  and  N_3
REMARK    3  A    between atoms: C_14  and  P_16
REMARK    4  A    between atoms: P_16  and  C_25
REMARK    5  A    between atoms: P_16  and  N_29
REMARK    6  A    between atoms: N_17  and  C_18
REMARK    7  A    between atoms: C_25  and  C_26
REMARK    8  A    between atoms: C_25  and  C_27
REMARK    9  A    between atoms: C_25  and  C_28
REMARK                            x       y       z     vdW  Elec       q    Type
REMARK                         _______ _______ _______ _____ _____    ______ ____
ROOT
ATOM      1  P   UNL     1       0.018  -0.133   0.563  0.00  0.00    +0.074 P 
ATOM      2  N   UNL     1       0.183   1.238  -0.150  0.00  0.00    -0.246 NA
ENDROOT
BRANCH   1  14
ATOM      3  N   UNL     1      -5.744  -0.787   1.915  0.00  0.00    -0.340 N 
ATOM      4  C   UNL     1      -6.344  -0.361   0.743  0.00  0.00    +0.050 A 
ATOM      5  C   UNL     1      -7.677  -0.250   0.359  0.00  0.00    +0.026 A 
ATOM      6  C   UNL     1      -7.997   0.215  -0.898  0.00  0.00    +0.002 A 
ATOM      7  C   UNL     1      -6.999   0.577  -1.791  0.00  0.00    +0.001 A 
ATOM      8  C   UNL     1      -5.674   0.475  -1.429  0.00  0.00    +0.010 A 
ATOM      9  C   UNL     1      -5.336   0.005  -0.162  0.00  0.00    +0.008 A 
ATOM     10  C   UNL     1      -4.053  -0.222   0.527  0.00  0.00    +0.008 A 
ATOM     11  C   UNL     1      -4.367  -0.711   1.804  0.00  0.00    +0.050 A 
ATOM     12  C   UNL     1      -3.338  -1.018   2.688  0.00  0.00    +0.027 A 
ATOM     13  C   UNL     1      -2.025  -0.842   2.307  0.00  0.00    +0.013 A 
ATOM     14  C   UNL     1      -1.716  -0.358   1.045  0.00  0.00    +0.008 A 
ATOM     15  C   UNL     1      -2.722  -0.043   0.157  0.00  0.00    +0.021 A 
BRANCH   3  17
ATOM     16  C   UNL     1      -6.749  -0.066   4.024  0.00  0.00    +0.027 C 
ATOM     17  C   UNL     1      -6.464  -1.253   3.102  0.00  0.00    +0.119 C 
ENDBRANCH   3  17
ENDBRANCH   1  14
BRANCH   2  18
ATOM     18  C   UNL     1       1.348   1.568  -0.689  0.00  0.00    +0.064 A 
ATOM     19  C   UNL     1       2.326   0.574  -0.945  0.00  0.00    +0.029 A 
ATOM     20  C   UNL     1       3.517   0.928  -1.505  0.00  0.00    +0.017 A 
ATOM     21  C   UNL     1       3.780   2.258  -1.815  0.00  0.00    +0.018 A 
ATOM     22  C   UNL     1       2.833   3.245  -1.564  0.00  0.00    +0.017 A 
ATOM     23  C   UNL     1       1.631   2.921  -1.010  0.00  0.00    +0.029 A 
ATOM     24 BR   UNL     1       5.441   2.729  -2.585  0.00  0.00    -0.050 Br
ENDBRANCH   2  18
BRANCH   1  25
ATOM     25  N   UNL     1       0.475  -1.368  -0.484  0.00  0.00    -0.265 NA
ATOM     26  C   UNL     1      -0.007  -2.685   0.004  0.00  0.00    +0.090 C 
ATOM     27  C   UNL     1       0.021  -3.568  -1.269  0.00  0.00    +0.017 C 
ATOM     28  C   UNL     1      -0.430  -2.589  -2.378  0.00  0.00    +0.017 C 
ATOM     29  C   UNL     1      -0.136  -1.185  -1.819  0.00  0.00    +0.090 C 
ENDBRANCH   1  25
BRANCH   1  30
ATOM     30  C   UNL     1       1.073  -0.175   2.050  0.00  0.00    +0.014 C 
ATOM     31  C   UNL     1       1.125  -1.603   2.596  0.00  0.00    +0.018 C 
ATOM     32  C   UNL     1       2.486   0.284   1.686  0.00  0.00    +0.018 C 
ATOM     33  C   UNL     1       0.491   0.757   3.114  0.00  0.00    +0.018 C 
ENDBRANCH   1  30
TORSDOF 5
