REMARK  Name = ZINC15391016
REMARK  5 active torsions:
REMARK  status: ('A' for Active; 'I' for Inactive)
REMARK    1  A    between atoms: C_3  and  N_8
REMARK    2  A    between atoms: C_9  and  C_11
REMARK    3  A    between atoms: C_11  and  C_12
REMARK    4  A    between atoms: N_18  and  S_19
REMARK    5  A    between atoms: S_19  and  C_22
REMARK                            x       y       z     vdW  Elec       q    Type
REMARK                         _______ _______ _______ _____ _____    ______ ____
ROOT
ATOM      1  C   UNL     1      -1.222   3.411  -1.401  0.00  0.00    +0.089 C 
ATOM      2  C   UNL     1      -2.128   3.942  -0.285  0.00  0.00    +0.021 C 
ATOM      3  C   UNL     1      -1.690   3.341   1.052  0.00  0.00    +0.003 C 
ATOM      4  C   UNL     1      -1.829   1.817   1.001  0.00  0.00    +0.017 C 
ATOM      5  C   UNL     1      -0.922   1.263  -0.102  0.00  0.00    +0.110 C 
ATOM      6  N   UNL     1      -1.240   1.943  -1.365  0.00  0.00    -0.173 NA
ENDROOT
BRANCH   6   7
ATOM      7  S   UNL     1      -1.610   1.070  -2.723  0.00  0.00    +0.061 S 
ATOM      8  O   UNL     1      -2.255   1.966  -3.618  0.00  0.00    -0.153 OA
ATOM      9  O   UNL     1      -0.436   0.353  -3.078  0.00  0.00    -0.153 OA
BRANCH   7  10
ATOM     10  C   UNL     1      -2.813  -0.131  -2.259  0.00  0.00    +0.106 A 
ATOM     11  C   UNL     1      -2.411  -1.342  -1.729  0.00  0.00    +0.030 A 
ATOM     12  C   UNL     1      -3.354  -2.283  -1.359  0.00  0.00    +0.022 A 
ATOM     13  C   UNL     1      -4.700  -2.016  -1.531  0.00  0.00    +0.041 A 
ATOM     14  C   UNL     1      -5.102  -0.805  -2.067  0.00  0.00    +0.022 A 
ATOM     15  C   UNL     1      -4.158   0.137  -2.431  0.00  0.00    +0.030 A 
ATOM     16 CL   UNL     1      -5.886  -3.199  -1.073  0.00  0.00    -0.084 Cl
ENDBRANCH   7  10
ENDBRANCH   6   7
BRANCH   1  17
ATOM     17  C   UNL     1      -1.735   3.898  -2.757  0.00  0.00    +0.116 C 
BRANCH  17  19
ATOM     18  N   UNL     1      -0.957   3.912  -5.105  0.00  0.00    -0.285 N 
ATOM     19  C   UNL     1      -0.747   3.523  -3.832  0.00  0.00    +0.219 C 
ATOM     20  O   UNL     1       0.236   2.871  -3.551  0.00  0.00    -0.275 OA
ATOM     21  H   UNL     1      -1.785   4.355  -5.347  0.00  0.00    +0.155 HD
BRANCH  18  24
ATOM     22  C   UNL     1       0.624   3.313  -8.371  0.00  0.00    +0.005 A 
ATOM     23  C   UNL     1      -0.343   3.545  -7.412  0.00  0.00    +0.023 A 
ATOM     24  C   UNL     1       0.021   3.677  -6.078  0.00  0.00    +0.036 A 
ATOM     25  C   UNL     1       1.357   3.582  -5.713  0.00  0.00    +0.061 A 
ATOM     26  C   UNL     1       2.321   3.346  -6.676  0.00  0.00    +0.125 A 
ATOM     27  C   UNL     1       1.953   3.214  -8.006  0.00  0.00    +0.038 A 
ATOM     28  F   UNL     1       3.621   3.248  -6.322  0.00  0.00    -0.205 F 
ENDBRANCH  18  24
ENDBRANCH  17  19
ENDBRANCH   1  17
TORSDOF 5
