REMARK  Name = ZINC08558447
REMARK  8 active torsions:
REMARK  status: ('A' for Active; 'I' for Inactive)
REMARK    1  A    between atoms: C_1  and  C_2
REMARK    2  A    between atoms: C_2  and  C_3
REMARK    3  A    between atoms: C_2  and  C_4
REMARK    4  A    between atoms: N_6  and  C_7
REMARK    5  A    between atoms: C_10  and  C_13
REMARK    6  A    between atoms: N_15  and  N_16
REMARK    7  A    between atoms: C_17  and  C_18
REMARK    8  A    between atoms: C_23  and  O_24
REMARK                            x       y       z     vdW  Elec       q    Type
REMARK                         _______ _______ _______ _____ _____    ______ ____
ROOT
ATOM      1  C   UNL     1       2.644  -2.253   7.140  0.00  0.00    +0.263 C 
ATOM      2  O   UNL     1       3.651  -2.932   7.065  0.00  0.00    -0.268 OA
ATOM      3  N   UNL     1       2.095  -1.993   8.343  0.00  0.00    -0.203 N 
ATOM      4  H   UNL     1       1.292  -1.452   8.403  0.00  0.00    +0.178 HD
ENDROOT
BRANCH   1   8
ATOM      5  C   UNL     1       0.863  -0.700   3.612  0.00  0.00    +0.033 A 
ATOM      6  C   UNL     1       2.014  -1.477   3.524  0.00  0.00    +0.024 A 
ATOM      7  C   UNL     1       2.594  -1.982   4.666  0.00  0.00    +0.015 A 
ATOM      8  C   UNL     1       2.026  -1.713   5.914  0.00  0.00    +0.038 A 
ATOM      9  C   UNL     1       0.869  -0.933   5.998  0.00  0.00    +0.015 A 
ATOM     10  C   UNL     1       0.297  -0.426   4.853  0.00  0.00    +0.024 A 
BRANCH   5  13
ATOM     11  C   UNL     1       0.294  -0.913   1.316  0.00  0.00    +0.220 C 
ATOM     12  O   UNL     1       0.889  -1.970   1.277  0.00  0.00    -0.275 OA
ATOM     13  N   UNL     1       0.278  -0.191   2.453  0.00  0.00    -0.285 N 
ATOM     14  H   UNL     1      -0.141   0.684   2.466  0.00  0.00    +0.155 HD
BRANCH  11  16
ATOM     15  C   UNL     1       0.154   0.944  -0.322  0.00  0.00    +0.017 C 
ATOM     16  C   UNL     1      -0.427  -0.410   0.092  0.00  0.00    +0.069 C 
ATOM     17  C   UNL     1      -0.253  -1.411  -1.051  0.00  0.00    +0.017 C 
ENDBRANCH  11  16
ENDBRANCH   5  13
ENDBRANCH   1   8
BRANCH   3  18
ATOM     18  N   UNL     1       2.683  -2.506   9.507  0.00  0.00    -0.187 NA
ATOM     19  C   UNL     1       2.153  -2.256  10.666  0.00  0.00    +0.142 C 
BRANCH  19  20
ATOM     20  C   UNL     1       2.771  -2.795  11.890  0.00  0.00    +0.039 A 
ATOM     21  C   UNL     1       2.201  -2.533  13.138  0.00  0.00    +0.033 A 
ATOM     22  C   UNL     1       2.784  -3.041  14.281  0.00  0.00    +0.043 A 
ATOM     23  C   UNL     1       3.933  -3.810  14.196  0.00  0.00    +0.043 A 
ATOM     24  C   UNL     1       4.507  -4.076  12.966  0.00  0.00    +0.084 A 
ATOM     25  C   UNL     1       3.930  -3.578  11.808  0.00  0.00    +0.144 A 
ATOM     26 CL   UNL     1       5.947  -5.041  12.871  0.00  0.00    -0.080 Cl
ATOM     27 CL   UNL     1       2.076  -2.714  15.832  0.00  0.00    -0.083 Cl
BRANCH  25  28
ATOM     28  O   UNL     1       4.489  -3.843  10.599  0.00  0.00    -0.505 OA
ATOM     29  H   UNL     1       5.148  -3.193  10.318  0.00  0.00    +0.292 HD
ENDBRANCH  25  28
ENDBRANCH  19  20
ENDBRANCH   3  18
TORSDOF 6
