REMARK  Name = ZINC22589472
REMARK  10 active torsions:
REMARK  status: ('A' for Active; 'I' for Inactive)
REMARK    1  A    between atoms: C_4  and  C_7
REMARK    2  A    between atoms: C_7  and  O_8
REMARK    3  A    between atoms: O_8  and  C_9
REMARK    4  A    between atoms: C_12  and  C_18
REMARK    5  A    between atoms: C_14  and  C_15
REMARK    6  A    between atoms: C_18  and  C_20
REMARK    7  A    between atoms: C_18  and  O_34
REMARK    8  A    between atoms: C_20  and  N_21
REMARK    9  A    between atoms: N_21  and  C_22
REMARK   10  A    between atoms: C_22  and  C_23
REMARK                            x       y       z     vdW  Elec       q    Type
REMARK                         _______ _______ _______ _____ _____    ______ ____
ROOT
ATOM      1  C   UNL     1      -2.088   2.523  -3.453  0.00  0.00    +0.133 A 
ATOM      2  C   UNL     1      -1.923   3.341  -2.345  0.00  0.00    +0.047 A 
ATOM      3  C   UNL     1      -1.257   2.871  -1.230  0.00  0.00    +0.010 A 
ATOM      4  C   UNL     1      -0.742   1.585  -1.213  0.00  0.00    -0.020 A 
ATOM      5  C   UNL     1      -0.897   0.759  -2.304  0.00  0.00    +0.022 A 
ATOM      6  C   UNL     1      -1.573   1.220  -3.437  0.00  0.00    +0.078 A 
ENDROOT
BRANCH   6   7
ATOM      7  C   UNL     1      -1.744   0.340  -4.609  0.00  0.00    +0.245 C 
ATOM      8  O   UNL     1      -2.333   0.746  -5.592  0.00  0.00    -0.270 OA
ATOM      9  N   UNL     1      -1.247  -0.912  -4.589  0.00  0.00    -0.325 N 
ATOM     10  H   UNL     1      -1.374  -1.568  -5.463  0.00  0.00    +0.145 HD
ATOM     11  H   UNL     1      -0.714  -1.279  -3.699  0.00  0.00    +0.145 HD
ENDBRANCH   6   7
BRANCH   1  12
ATOM     12  O   UNL     1      -2.746   2.982  -4.546  0.00  0.00    -0.487 OA
BRANCH  12  13
ATOM     13  C   UNL     1      -3.244   4.321  -4.490  0.00  0.00    +0.264 C 
BRANCH  13  17
ATOM     14  C   UNL     1      -5.217   5.263  -8.160  0.00  0.00    +0.000 A 
ATOM     15  C   UNL     1      -5.930   4.708  -7.114  0.00  0.00    +0.000 A 
ATOM     16  C   UNL     1      -5.292   4.403  -5.927  0.00  0.00    +0.007 A 
ATOM     17  C   UNL     1      -3.940   4.653  -5.785  0.00  0.00    -0.010 A 
ATOM     18  C   UNL     1      -3.227   5.214  -6.828  0.00  0.00    +0.007 A 
ATOM     19  C   UNL     1      -3.865   5.514  -8.018  0.00  0.00    +0.000 A 
ENDBRANCH  13  17
ENDBRANCH  12  13
ENDBRANCH   1  12
BRANCH   4  20
ATOM     20  C   UNL     1      -0.013   1.086   0.008  0.00  0.00    +0.128 C 
BRANCH  20  21
ATOM     21  O   UNL     1      -0.682   1.547   1.184  0.00  0.00    -0.389 OA
ATOM     22  H   UNL     1      -0.293   1.281   2.178  0.00  0.00    +0.210 HD
ENDBRANCH  20  21
BRANCH  20  23
ATOM     23  C   UNL     1       1.423   1.615  -0.003  0.00  0.00    -0.046 C 
BRANCH  23  24
ATOM     24  N   UNL     1       2.168   1.034   1.121  0.00  0.00    +0.383 N 
ATOM     25  H   UNL     1       1.681   1.313   2.068  0.00  0.00    -0.086 HD
ATOM     26  H   UNL     1       2.180  -0.062   1.025  0.00  0.00    -0.086 HD
BRANCH  24  27
ATOM     27  C   UNL     1       3.554   1.520   1.143  0.00  0.00    -0.034 C 
BRANCH  27  28
ATOM     28  C   UNL     1       4.296   0.894   2.325  0.00  0.00    +0.194 C 
ATOM     29  C   UNL     1       5.736   1.422   2.370  0.00  0.00    +0.271 C 
ATOM     30  O   UNL     1       6.397   0.828   3.493  0.00  0.00    -0.485 OA
ATOM     31  C   UNL     1       5.715   0.822   4.671  0.00  0.00    +0.162 A 
ATOM     32  C   UNL     1       6.403   0.601   5.854  0.00  0.00    +0.049 A 
ATOM     33  C   UNL     1       5.724   0.588   7.058  0.00  0.00    +0.004 A 
ATOM     34  C   UNL     1       4.357   0.796   7.085  0.00  0.00    +0.004 A 
ATOM     35  C   UNL     1       3.666   1.018   5.910  0.00  0.00    +0.049 A 
ATOM     36  C   UNL     1       4.341   1.032   4.698  0.00  0.00    +0.162 A 
ATOM     37  O   UNL     1       3.647   1.255   3.549  0.00  0.00    -0.484 OA
ENDBRANCH  27  28
ENDBRANCH  24  27
ENDBRANCH  23  24
ENDBRANCH  20  23
ENDBRANCH   4  20
TORSDOF 10
