REMARK  Name = ZINC09497180
REMARK  4 active torsions:
REMARK  status: ('A' for Active; 'I' for Inactive)
REMARK    1  A    between atoms: C_8  and  C_10
REMARK    2  A    between atoms: C_15  and  C_16
REMARK    3  A    between atoms: C_15  and  N_65
REMARK    4  A    between atoms: C_22  and  C_24
REMARK                            x       y       z     vdW  Elec       q    Type
REMARK                         _______ _______ _______ _____ _____    ______ ____
ROOT
ATOM      1  C   UNL     1      -1.157  -0.285  -2.204  0.00  0.00    +0.199 C 
ATOM      2  O   UNL     1      -0.323   0.394  -2.765  0.00  0.00    -0.278 OA
ATOM      3  N   UNL     1      -1.059  -0.514  -0.879  0.00  0.00    -0.296 N 
ATOM      4  C   UNL     1      -1.998  -1.315  -0.074  0.00  0.00    +0.108 C 
ATOM      5  C   UNL     1      -1.171  -1.784   1.149  0.00  0.00    +0.021 C 
ATOM      6  C   UNL     1      -0.284  -0.541   1.421  0.00  0.00    +0.029 C 
ATOM      7  C   UNL     1       0.002  -0.004   0.002  0.00  0.00    +0.106 C 
ENDROOT
BRANCH   7   8
ATOM      8  C   UNL     1      -0.018   1.503   0.010  0.00  0.00    -0.023 A 
ATOM      9  C   UNL     1      -1.226   2.175   0.020  0.00  0.00    +0.009 A 
ATOM     10  C   UNL     1      -1.253   3.558   0.033  0.00  0.00    +0.050 A 
ATOM     11  C   UNL     1      -0.064   4.268   0.025  0.00  0.00    +0.162 A 
ATOM     12  C   UNL     1       1.149   3.593   0.010  0.00  0.00    +0.162 A 
ATOM     13  C   UNL     1       1.171   2.208   0.003  0.00  0.00    +0.055 A 
ATOM     14  O   UNL     1       2.315   4.301   0.001  0.00  0.00    -0.488 OA
ATOM     15  C   UNL     1       2.615   5.026   1.196  0.00  0.00    +0.232 C 
ATOM     16  C   UNL     1       1.922   6.380   1.193  0.00  0.00    +0.082 C 
ATOM     17  C   UNL     1       0.407   6.255   1.225  0.00  0.00    +0.232 C 
ATOM     18  O   UNL     1      -0.075   5.633   0.032  0.00  0.00    -0.488 OA
ENDBRANCH   7   8
BRANCH   1  19
ATOM     19  C   UNL     1      -2.302  -0.873  -2.987  0.00  0.00    +0.019 C 
BRANCH  19  25
ATOM     20  C   UNL     1      -3.049   0.610  -6.928  0.00  0.00    +0.041 C 
ATOM     21  C   UNL     1      -2.887  -0.896  -6.707  0.00  0.00    -0.009 C 
ATOM     22  C   UNL     1      -3.137  -1.221  -5.233  0.00  0.00    -0.078 C 
ATOM     23  C   UNL     1      -2.351   0.970  -4.557  0.00  0.00    -0.078 C 
ATOM     24  C   UNL     1      -2.077   1.360  -6.011  0.00  0.00    -0.009 C 
ATOM     25  N   UNL     1      -2.155  -0.488  -4.406  0.00  0.00    +0.385 N 
ATOM     26  H   UNL     1      -1.208  -0.731  -4.721  0.00  0.00    -0.081 HD
BRANCH  20  34
ATOM     27  C   UNL     1      -3.277   2.500 -12.799  0.00  0.00    +0.002 A 
ATOM     28  C   UNL     1      -1.968   2.111 -13.048  0.00  0.00    +0.001 A 
ATOM     29  C   UNL     1      -1.226   1.535 -12.034  0.00  0.00    +0.017 A 
ATOM     30  C   UNL     1      -1.798   1.358 -10.797  0.00  0.00    +0.039 A 
ATOM     31  C   UNL     1      -3.129   1.744 -10.515  0.00  0.00    +0.078 A 
ATOM     32  C   UNL     1      -3.853   2.328 -11.578  0.00  0.00    +0.029 A 
ATOM     33  N   UNL     1      -3.527   1.495  -9.250  0.00  0.00    -0.244 NA
ATOM     34  C   UNL     1      -2.745   0.945  -8.365  0.00  0.00    +0.082 A 
ATOM     35  S   UNL     1      -1.265   0.696  -9.239  0.00  0.00    -0.072 S 
ENDBRANCH  20  34
ENDBRANCH  19  25
ENDBRANCH   1  19
TORSDOF 4
