REMARK  Name = ZINC45849471
REMARK  13 active torsions:
REMARK  status: ('A' for Active; 'I' for Inactive)
REMARK    1  A    between atoms: C_1  and  C_2
REMARK    2  A    between atoms: C_2  and  C_3
REMARK    3  A    between atoms: C_7  and  C_14
REMARK    4  A    between atoms: C_14  and  N_15
REMARK    5  A    between atoms: N_15  and  C_16
REMARK    6  A    between atoms: N_15  and  C_21
REMARK    7  A    between atoms: C_16  and  C_17
REMARK    8  A    between atoms: C_17  and  C_18
REMARK    9  A    between atoms: C_18  and  C_19
REMARK   10  A    between atoms: C_18  and  C_20
REMARK   11  A    between atoms: C_22  and  N_37
REMARK   12  A    between atoms: N_23  and  C_30
REMARK   13  A    between atoms: C_30  and  C_31
REMARK                            x       y       z     vdW  Elec       q    Type
REMARK                         _______ _______ _______ _____ _____    ______ ____
ROOT
ATOM      1  N   UNL     1      -5.876  -3.615   1.733  0.00  0.00    -0.319 N 
ENDROOT
BRANCH   1   2
ATOM      2  C   UNL     1      -6.684  -4.640   1.188  0.00  0.00    +0.134 A 
ATOM      3  C   UNL     1      -8.038  -4.636   1.387  0.00  0.00    +0.127 A 
ATOM      4  N   UNL     1      -8.802  -5.645   0.845  0.00  0.00    -0.276 N 
ATOM      5  C   UNL     1      -8.224  -6.626   0.127  0.00  0.00    +0.331 A 
ATOM      6  O   UNL     1      -8.915  -7.509  -0.345  0.00  0.00    -0.246 OA
ATOM      7  N   UNL     1      -6.895  -6.644  -0.078  0.00  0.00    -0.273 N 
ATOM      8  H   UNL     1      -6.499  -7.360  -0.600  0.00  0.00    +0.173 HD
ATOM      9  C   UNL     1      -6.109  -5.674   0.428  0.00  0.00    +0.277 A 
ATOM     10  O   UNL     1      -4.905  -5.695   0.233  0.00  0.00    -0.266 OA
BRANCH   3  11
ATOM     11  N   UNL     1      -8.630  -3.635   2.121  0.00  0.00    -0.343 N 
ATOM     12  H   UNL     1      -8.097  -2.894   2.450  0.00  0.00    +0.144 HD
ATOM     13  H   UNL     1      -9.581  -3.669   2.310  0.00  0.00    +0.144 HD
ENDBRANCH   3  11
BRANCH   4  14
ATOM     14  C   UNL     1     -10.252  -5.652   1.052  0.00  0.00    +0.163 C 
BRANCH  14  15
ATOM     15  C   UNL     1     -10.922  -4.888  -0.061  0.00  0.00    -0.028 A 
ATOM     16  C   UNL     1     -11.138  -3.528   0.066  0.00  0.00    +0.005 A 
ATOM     17  C   UNL     1     -11.752  -2.827  -0.955  0.00  0.00    +0.000 A 
ATOM     18  C   UNL     1     -12.151  -3.486  -2.103  0.00  0.00    +0.000 A 
ATOM     19  C   UNL     1     -11.934  -4.845  -2.230  0.00  0.00    +0.000 A 
ATOM     20  C   UNL     1     -11.316  -5.545  -1.211  0.00  0.00    +0.005 A 
ENDBRANCH  14  15
ENDBRANCH   4  14
ENDBRANCH   1   2
BRANCH   1  21
ATOM     21  C   UNL     1      -6.020  -2.237   1.257  0.00  0.00    +0.141 C 
BRANCH  21  26
ATOM     22  C   UNL     1      -1.097  -1.010   0.211  0.00  0.00    -0.044 A 
ATOM     23  C   UNL     1      -1.824  -1.175   1.381  0.00  0.00    +0.004 A 
ATOM     24  C   UNL     1      -3.148  -1.510   1.334  0.00  0.00    +0.012 A 
ATOM     25  C   UNL     1      -3.774  -1.689   0.096  0.00  0.00    +0.022 A 
ATOM     26  C   UNL     1      -5.193  -2.048   0.011  0.00  0.00    -0.013 A 
ATOM     27  C   UNL     1      -5.741  -2.206  -1.220  0.00  0.00    +0.097 A 
ATOM     28  C   UNL     1      -4.944  -2.024  -2.372  0.00  0.00    +0.338 A 
ATOM     29  O   UNL     1      -5.448  -2.168  -3.471  0.00  0.00    -0.245 OA
ATOM     30  O   UNL     1      -3.646  -1.694  -2.285  0.00  0.00    -0.422 OA
ATOM     31  C   UNL     1      -3.040  -1.523  -1.091  0.00  0.00    +0.140 A 
ATOM     32  C   UNL     1      -1.697  -1.177  -1.019  0.00  0.00    +0.050 A 
BRANCH  22  34
ATOM     33  C   UNL     1       0.502   0.884   0.295  0.00  0.00    +0.009 C 
ATOM     34  C   UNL     1       0.362  -0.640   0.286  0.00  0.00    +0.032 C 
ENDBRANCH  22  34
ENDBRANCH  21  26
ENDBRANCH   1  21
BRANCH   1  35
ATOM     35  C   UNL     1      -4.896  -3.932   2.775  0.00  0.00    +0.106 C 
BRANCH  35  36
ATOM     36  C   UNL     1      -5.579  -3.899   4.144  0.00  0.00    +0.022 C 
BRANCH  36  37
ATOM     37  C   UNL     1      -4.555  -4.230   5.232  0.00  0.00    -0.016 C 
ATOM     38  C   UNL     1      -3.492  -3.130   5.284  0.00  0.00    +0.007 C 
ATOM     39  C   UNL     1      -5.261  -4.320   6.586  0.00  0.00    +0.007 C 
ENDBRANCH  36  37
ENDBRANCH  35  36
ENDBRANCH   1  35
TORSDOF 10
