REMARK  Name = ZINC44990206
REMARK  2 active torsions:
REMARK  status: ('A' for Active; 'I' for Inactive)
REMARK    1  A    between atoms: C_6  and  C_7
REMARK    2  A    between atoms: C_7  and  O_24
REMARK                            x       y       z     vdW  Elec       q    Type
REMARK                         _______ _______ _______ _____ _____    ______ ____
ROOT
ATOM      1  C   UNL     1      -1.288  -0.783   0.027  0.00  0.00    +0.094 C 
ATOM      2  C   UNL     1      -1.720  -1.038  -1.419  0.00  0.00    +0.058 C 
ATOM      3  C   UNL     1      -3.059  -1.782  -1.424  0.00  0.00    +0.109 C 
ATOM      4  N   UNL     1      -2.927  -2.999  -0.610  0.00  0.00    -0.313 N 
ATOM      5  C   UNL     1      -2.431  -2.877   0.768  0.00  0.00    +0.109 C 
ATOM      6  C   UNL     1      -1.100  -2.120   0.748  0.00  0.00    +0.058 C 
ATOM      7  C   UNL     1      -3.262  -4.236  -1.132  0.00  0.00    +0.154 A 
ATOM      8  C   UNL     1      -3.853  -4.343  -2.403  0.00  0.00    +0.148 A 
ATOM      9  C   UNL     1      -4.173  -5.623  -2.883  0.00  0.00    +0.165 A 
ATOM     10  N   UNL     1      -4.728  -5.435  -4.123  0.00  0.00    -0.329 N 
ATOM     11  H   UNL     1      -5.054  -6.129  -4.717  0.00  0.00    +0.168 HD
ATOM     12  C   UNL     1      -4.736  -4.093  -4.368  0.00  0.00    +0.198 A 
ATOM     13  N   UNL     1      -4.223  -3.454  -3.358  0.00  0.00    -0.231 NA
ATOM     14  N   UNL     1      -3.908  -6.684  -2.126  0.00  0.00    -0.195 NA
ATOM     15  C   UNL     1      -3.350  -6.538  -0.935  0.00  0.00    +0.216 A 
ATOM     16  N   UNL     1      -3.028  -5.348  -0.445  0.00  0.00    -0.197 NA
ATOM     17  N   UNL     1      -3.090  -7.667  -0.176  0.00  0.00    -0.327 N 
ATOM     18  H   UNL     1      -3.316  -8.545  -0.520  0.00  0.00    +0.145 HD
ATOM     19  H   UNL     1      -2.681  -7.579   0.700  0.00  0.00    +0.145 HD
ENDROOT
BRANCH   1  25
ATOM     20  C   UNL     1       0.002   1.362   0.037  0.00  0.00    +0.008 A 
ATOM     21  C   UNL     1       1.194   2.062   0.044  0.00  0.00    +0.020 A 
ATOM     22  C   UNL     1       2.397   1.378   0.051  0.00  0.00    +0.041 A 
ATOM     23  C   UNL     1       2.406  -0.005   0.050  0.00  0.00    +0.020 A 
ATOM     24  C   UNL     1       1.214  -0.704   0.042  0.00  0.00    +0.008 A 
ATOM     25  C   UNL     1       0.012  -0.021   0.035  0.00  0.00    -0.016 A 
ATOM     26 CL   UNL     1       3.894   2.256   0.060  0.00  0.00    -0.084 Cl
ENDBRANCH   1  25
BRANCH   1  27
ATOM     27  O   UNL     1      -2.293  -0.018   0.696  0.00  0.00    -0.384 OA
ATOM     28  H   UNL     1      -2.465   0.844   0.293  0.00  0.00    +0.211 HD
ENDBRANCH   1  27
TORSDOF 2
