REMARK  Name = ZINC21082996
REMARK  12 active torsions:
REMARK  status: ('A' for Active; 'I' for Inactive)
REMARK    1  A    between atoms: C_1  and  C_2
REMARK    2  A    between atoms: C_2  and  C_3
REMARK    3  A    between atoms: C_2  and  C_4
REMARK    4  A    between atoms: C_4  and  N_5
REMARK    5  A    between atoms: C_6  and  N_33
REMARK    6  A    between atoms: C_7  and  N_14
REMARK    7  A    between atoms: N_14  and  C_15
REMARK    8  A    between atoms: C_15  and  C_16
REMARK    9  A    between atoms: C_16  and  C_17
REMARK   10  A    between atoms: C_16  and  C_18
REMARK   11  A    between atoms: C_19  and  C_21
REMARK   12  A    between atoms: C_21  and  N_22
REMARK                            x       y       z     vdW  Elec       q    Type
REMARK                         _______ _______ _______ _____ _____    ______ ____
ROOT
ATOM      1  N   UNL     1      -1.218   1.906   0.056  0.00  0.00    -0.263 N 
ATOM      2  C   UNL     1      -1.144   3.253   0.023  0.00  0.00    +0.240 C 
ATOM      3  O   UNL     1      -0.110   3.812   0.326  0.00  0.00    -0.273 OA
ENDROOT
BRANCH   1   6
ATOM      4  N   UNL     1       1.156  -0.356   1.714  0.00  0.00    -0.280 N 
ATOM      5  C   UNL     1       0.015   0.373   1.472  0.00  0.00    +0.127 A 
ATOM      6  C   UNL     1      -0.063   1.143   0.329  0.00  0.00    +0.140 A 
ATOM      7  C   UNL     1       1.031   1.158  -0.556  0.00  0.00    +0.277 A 
ATOM      8  O   UNL     1       0.988   1.829  -1.573  0.00  0.00    -0.266 OA
ATOM      9  N   UNL     1       2.126   0.425  -0.272  0.00  0.00    -0.273 N 
ATOM     10  H   UNL     1       2.985   0.431  -0.959  0.00  0.00    +0.173 HD
ATOM     11  C   UNL     1       2.184  -0.319   0.847  0.00  0.00    +0.331 A 
ATOM     12  O   UNL     1       3.185  -0.970   1.079  0.00  0.00    -0.246 OA
BRANCH   5  13
ATOM     13  N   UNL     1      -1.034   0.336   2.358  0.00  0.00    -0.343 N 
ATOM     14  H   UNL     1      -1.944   0.921   2.159  0.00  0.00    +0.144 HD
ATOM     15  H   UNL     1      -0.965  -0.279   3.268  0.00  0.00    +0.144 HD
ENDBRANCH   5  13
BRANCH   4  16
ATOM     16  C   UNL     1       1.253  -1.177   2.924  0.00  0.00    +0.131 C 
BRANCH  16  18
ATOM     17  C   UNL     1       0.889   0.793   4.417  0.00  0.00    +0.009 C 
ATOM     18  C   UNL     1       1.850  -0.343   4.059  0.00  0.00    +0.003 C 
ATOM     19  C   UNL     1       2.067  -1.232   5.285  0.00  0.00    +0.009 C 
ENDBRANCH  16  18
ENDBRANCH   4  16
ENDBRANCH   1   6
BRANCH   1  20
ATOM     20  C   UNL     1      -2.497   1.236  -0.192  0.00  0.00    +0.117 C 
BRANCH  20  21
ATOM     21  C   UNL     1      -2.681   1.030  -1.697  0.00  0.00    +0.001 C 
ATOM     22  C   UNL     1      -1.635   0.037  -2.207  0.00  0.00    +0.009 C 
ATOM     23  C   UNL     1      -4.083   0.479  -1.968  0.00  0.00    +0.009 C 
ENDBRANCH  20  21
ENDBRANCH   1  20
BRANCH   2  24
ATOM     24  C   UNL     1      -2.345   4.064  -0.391  0.00  0.00    +0.222 C 
BRANCH  24  25
ATOM     25  N   UNL     1      -1.976   5.479  -0.466  0.00  0.00    -0.290 N 
ATOM     26  C   UNL     1      -2.110   6.269   0.631  0.00  0.00    +0.203 A 
ATOM     27  N   UNL     1      -1.800   7.530   0.646  0.00  0.00    -0.237 NA
ATOM     28  C   UNL     1      -1.324   8.158  -0.458  0.00  0.00    +0.078 A 
ATOM     29  C   UNL     1      -0.996   9.515  -0.445  0.00  0.00    +0.028 A 
ATOM     30  C   UNL     1      -0.516  10.112  -1.589  0.00  0.00    +0.002 A 
ATOM     31  C   UNL     1      -0.352   9.381  -2.758  0.00  0.00    +0.001 A 
ATOM     32  C   UNL     1      -0.669   8.040  -2.796  0.00  0.00    +0.015 A 
ATOM     33  C   UNL     1      -1.156   7.417  -1.649  0.00  0.00    +0.065 A 
ATOM     34  C   UNL     1      -1.511   5.990  -1.630  0.00  0.00    +0.262 A 
ATOM     35  O   UNL     1      -1.391   5.295  -2.623  0.00  0.00    -0.267 OA
ENDBRANCH  24  25
ENDBRANCH   2  24
TORSDOF 8
