REMARK  Name = ZINC20722410
REMARK  3 active torsions:
REMARK  status: ('A' for Active; 'I' for Inactive)
REMARK    1  A    between atoms: C_7  and  C_12
REMARK    2  A    between atoms: C_12  and  C_13
REMARK    3  A    between atoms: C_13  and  C_14
REMARK                            x       y       z     vdW  Elec       q    Type
REMARK                         _______ _______ _______ _____ _____    ______ ____
ROOT
ATOM      1  C   UNL     1       0.775  -5.018   2.378  0.00  0.00    +0.216 C 
ATOM      2  O   UNL     1       0.242  -4.365   3.250  0.00  0.00    -0.276 OA
ATOM      3  N   UNL     1       0.899  -6.353   2.517  0.00  0.00    -0.297 N 
ATOM      4  C   UNL     1       1.547  -7.164   1.475  0.00  0.00    +0.114 C 
ATOM      5  C   UNL     1       2.824  -7.788   2.048  0.00  0.00    +0.072 C 
ATOM      6  C   UNL     1       2.521  -8.365   3.411  0.00  0.00    +0.023 A 
ATOM      7  C   UNL     1       1.444  -8.030   4.153  0.00  0.00    -0.002 A 
ATOM      8  C   UNL     1       1.516  -8.789   5.383  0.00  0.00    +0.006 A 
ATOM      9  C   UNL     1       0.691  -8.851   6.510  0.00  0.00    +0.030 A 
ATOM     10  C   UNL     1       1.077  -9.705   7.515  0.00  0.00    +0.042 A 
ATOM     11  C   UNL     1       2.228 -10.473   7.427  0.00  0.00    +0.022 A 
ATOM     12  C   UNL     1       3.061 -10.431   6.323  0.00  0.00    +0.027 A 
ATOM     13  C   UNL     1       2.694  -9.573   5.288  0.00  0.00    +0.047 A 
ATOM     14  N   UNL     1       3.274  -9.292   4.085  0.00  0.00    -0.358 N 
ATOM     15  H   UNL     1       4.096  -9.688   3.755  0.00  0.00    +0.166 HD
ATOM     16 CL   UNL     1       0.093  -9.825   8.941  0.00  0.00    -0.084 Cl
ATOM     17  C   UNL     1       0.395  -7.040   3.719  0.00  0.00    +0.145 C 
ENDROOT
BRANCH   1  18
ATOM     18  C   UNL     1       1.298  -4.338   1.139  0.00  0.00    +0.097 C 
BRANCH  18  19
ATOM     19  C   UNL     1       1.032  -2.834   1.233  0.00  0.00    +0.027 C 
BRANCH  19  26
ATOM     20  C   UNL     1      -0.017   1.380   0.010  0.00  0.00    +0.000 A 
ATOM     21  C   UNL     1       1.174   2.084   0.002  0.00  0.00    +0.002 A 
ATOM     22  C   UNL     1       2.380   1.415  -0.013  0.00  0.00    +0.023 A 
ATOM     23  C   UNL     1       2.407   0.021  -0.021  0.00  0.00    +0.037 A 
ATOM     24  C   UNL     1       1.205  -0.674  -0.013  0.00  0.00    -0.014 A 
ATOM     25  C   UNL     1       0.002  -0.004   0.002  0.00  0.00    +0.006 A 
ATOM     26  C   UNL     1       1.563  -2.143  -0.025  0.00  0.00    +0.107 C 
ATOM     27  C   UNL     1       3.077  -2.152  -0.040  0.00  0.00    +0.225 C 
ATOM     28  O   UNL     1       3.791  -3.132  -0.052  0.00  0.00    -0.275 OA
ATOM     29  N   UNL     1       3.480  -0.870  -0.037  0.00  0.00    -0.285 N 
ATOM     30  H   UNL     1       4.410  -0.596  -0.044  0.00  0.00    +0.155 HD
ENDBRANCH  19  26
ENDBRANCH  18  19
ENDBRANCH   1  18
TORSDOF 3
