REMARK  Name = ZINC07988487
REMARK  9 active torsions:
REMARK  status: ('A' for Active; 'I' for Inactive)
REMARK    1  A    between atoms: C_1  and  C_2
REMARK    2  A    between atoms: C_6  and  C_7
REMARK    3  A    between atoms: C_7  and  N_44
REMARK    4  A    between atoms: C_8  and  N_44
REMARK    5  A    between atoms: C_9  and  C_10
REMARK    6  A    between atoms: C_9  and  N_44
REMARK    7  A    between atoms: N_12  and  C_13
REMARK    8  A    between atoms: C_13  and  C_14
REMARK    9  A    between atoms: N_16  and  C_17
REMARK                            x       y       z     vdW  Elec       q    Type
REMARK                         _______ _______ _______ _____ _____    ______ ____
ROOT
ATOM      1  C   UNL     1      -0.876   3.296   1.421  0.00  0.00    +0.197 C 
ATOM      2  O   UNL     1      -0.438   4.095   0.620  0.00  0.00    -0.278 OA
ATOM      3  N   UNL     1      -0.727   1.974   1.204  0.00  0.00    -0.308 N 
ATOM      4  H   UNL     1      -1.077   1.335   1.844  0.00  0.00    +0.149 HD
ENDROOT
BRANCH   1   5
ATOM      5  C   UNL     1      -1.587   3.781   2.658  0.00  0.00    +0.019 C 
BRANCH   5   7
ATOM      6  C   UNL     1      -0.264   5.804   2.795  0.00  0.00    -0.095 C 
ATOM      7  N   UNL     1      -1.629   5.258   2.635  0.00  0.00    +0.387 N 
ATOM      8  H   UNL     1      -2.008   5.567   1.732  0.00  0.00    -0.081 HD
BRANCH   7   9
ATOM      9  C   UNL     1      -2.502   5.756   3.719  0.00  0.00    -0.035 C 
BRANCH   9  15
ATOM     10  C   UNL     1      -4.699   7.121   2.062  0.00  0.00    +0.044 C 
ATOM     11  C   UNL     1      -3.651   7.891   2.823  0.00  0.00    -0.042 A 
ATOM     12  C   UNL     1      -3.643   9.273   2.805  0.00  0.00    +0.011 A 
ATOM     13  C   UNL     1      -2.682   9.935   3.494  0.00  0.00    +0.045 A 
ATOM     14  S   UNL     1      -1.749   8.591   4.209  0.00  0.00    -0.103 S 
ATOM     15  C   UNL     1      -2.703   7.238   3.539  0.00  0.00    -0.024 A 
ENDBRANCH   9  15
ENDBRANCH   7   9
ENDBRANCH   5   7
ENDBRANCH   1   5
BRANCH   3  16
ATOM     16  C   UNL     1      -0.036   1.502   0.002  0.00  0.00    +0.200 C 
BRANCH  16  17
ATOM     17  C   UNL     1      -0.004  -0.005  -0.001  0.00  0.00    +0.234 C 
ATOM     18  O   UNL     1      -0.509  -0.624   0.911  0.00  0.00    -0.274 OA
ATOM     19  N   UNL     1       0.585  -0.664  -1.018  0.00  0.00    -0.282 N 
ATOM     20  H   UNL     1       0.932  -0.173  -1.779  0.00  0.00    +0.155 HD
BRANCH  19  21
ATOM     21  C   UNL     1       0.697  -2.061  -0.976  0.00  0.00    +0.072 A 
ATOM     22  C   UNL     1      -0.305  -2.821  -0.389  0.00  0.00    +0.029 A 
ATOM     23  C   UNL     1      -0.196  -4.198  -0.351  0.00  0.00    +0.043 A 
ATOM     24  C   UNL     1       0.917  -4.821  -0.890  0.00  0.00    +0.161 A 
ATOM     25  C   UNL     1       1.923  -4.066  -1.472  0.00  0.00    +0.195 A 
ATOM     26  C   UNL     1       1.815  -2.686  -1.516  0.00  0.00    +0.182 A 
ATOM     27  F   UNL     1       2.795  -1.948  -2.083  0.00  0.00    -0.200 F 
ATOM     28  F   UNL     1       3.009  -4.676  -1.996  0.00  0.00    -0.199 F 
ATOM     29  F   UNL     1       1.023  -6.167  -0.847  0.00  0.00    -0.202 F 
ENDBRANCH  19  21
ENDBRANCH  16  17
ENDBRANCH   3  16
TORSDOF 7
