REMARK  Name = ZINC25244362
REMARK  7 active torsions:
REMARK  status: ('A' for Active; 'I' for Inactive)
REMARK    1  A    between atoms: C_1  and  C_2
REMARK    2  A    between atoms: C_5  and  C_25
REMARK    3  A    between atoms: C_6  and  O_8
REMARK    4  A    between atoms: O_8  and  C_9
REMARK    5  A    between atoms: C_9  and  C_10
REMARK    6  A    between atoms: C_13  and  C_15
REMARK    7  A    between atoms: C_18  and  C_21
REMARK                            x       y       z     vdW  Elec       q    Type
REMARK                         _______ _______ _______ _____ _____    ______ ____
ROOT
ATOM      1  C   UNL     1       3.586   5.932  -0.000  0.00  0.00    +0.086 A 
ATOM      2  C   UNL     1       4.684   5.131  -0.009  0.00  0.00    +0.074 A 
ATOM      3  S   UNL     1       5.987   6.357  -0.020  0.00  0.00    -0.075 S 
ATOM      4  C   UNL     1       4.929   7.798  -0.003  0.00  0.00    +0.109 A 
ATOM      5  N   UNL     1       3.728   7.237   0.005  0.00  0.00    -0.241 NA
ENDROOT
BRANCH   4   6
ATOM      6  C   UNL     1       5.295   9.231   0.002  0.00  0.00    +0.007 A 
ATOM      7  C   UNL     1       4.300  10.209   0.011  0.00  0.00    +0.011 A 
ATOM      8  C   UNL     1       4.648  11.544   0.019  0.00  0.00    +0.013 A 
ATOM      9  C   UNL     1       5.981  11.914   0.009  0.00  0.00    +0.055 A 
ATOM     10  C   UNL     1       6.973  10.949  -0.005  0.00  0.00    +0.013 A 
ATOM     11  C   UNL     1       6.638   9.611  -0.008  0.00  0.00    +0.011 A 
BRANCH   9  12
ATOM     12  C   UNL     1       6.355  13.374   0.013  0.00  0.00    +0.417 C 
ATOM     13  F   UNL     1       6.458  13.832  -1.304  0.00  0.00    -0.166 F 
ATOM     14  F   UNL     1       5.369  14.105   0.685  0.00  0.00    -0.166 F 
ATOM     15  F   UNL     1       7.583  13.539   0.662  0.00  0.00    -0.166 F 
ENDBRANCH   9  12
ENDBRANCH   4   6
BRANCH   1  16
ATOM     16  C   UNL     1       2.208   5.324   0.009  0.00  0.00    +0.285 C 
BRANCH  16  17
ATOM     17  O   UNL     1       2.316   3.899   0.001  0.00  0.00    -0.485 OA
BRANCH  17  23
ATOM     18  C   UNL     1      -2.560   3.860   0.046  0.00  0.00    +0.044 C 
ATOM     19  C   UNL     1      -1.239   3.135   0.030  0.00  0.00    -0.047 A 
ATOM     20  C   UNL     1      -1.214   1.749   0.017  0.00  0.00    +0.004 A 
ATOM     21  C   UNL     1      -0.013   1.076   0.008  0.00  0.00    +0.017 A 
ATOM     22  C   UNL     1       1.187   1.792   0.000  0.00  0.00    +0.078 A 
ATOM     23  C   UNL     1       1.158   3.193   0.008  0.00  0.00    +0.133 A 
ATOM     24  C   UNL     1      -0.061   3.854   0.022  0.00  0.00    +0.049 A 
BRANCH  22  25
ATOM     25  C   UNL     1       2.478   1.077  -0.015  0.00  0.00    +0.245 C 
ATOM     26  O   UNL     1       3.520   1.703  -0.021  0.00  0.00    -0.270 OA
ATOM     27  N   UNL     1       2.502  -0.271  -0.021  0.00  0.00    -0.325 N 
ATOM     28  H   UNL     1       3.464  -0.804  -0.033  0.00  0.00    +0.145 HD
ATOM     29  H   UNL     1       1.559  -0.838  -0.015  0.00  0.00    +0.145 HD
ENDBRANCH  22  25
ENDBRANCH  17  23
ENDBRANCH  16  17
ENDBRANCH   1  16
TORSDOF 6
