REMARK  Name = ZINC48061349
REMARK  4 active torsions:
REMARK  status: ('A' for Active; 'I' for Inactive)
REMARK    1  A    between atoms: C_3  and  C_11
REMARK    2  A    between atoms: C_11  and  N_12
REMARK    3  A    between atoms: N_12  and  C_13
REMARK    4  A    between atoms: C_13  and  C_14
REMARK                            x       y       z     vdW  Elec       q    Type
REMARK                         _______ _______ _______ _____ _____    ______ ____
ROOT
ATOM      1  C   UNL     1       3.670   2.195  -0.023  0.00  0.00    -0.043 C 
ENDROOT
BRANCH   1   4
ATOM      2  C   UNL     1      -0.017   1.378   0.010  0.00  0.00    +0.004 A 
ATOM      3  C   UNL     1       1.170   2.088   0.002  0.00  0.00    +0.005 A 
ATOM      4  C   UNL     1       2.378   1.418  -0.014  0.00  0.00    -0.019 A 
ATOM      5  C   UNL     1       2.404   0.031  -0.023  0.00  0.00    +0.163 A 
ATOM      6  C   UNL     1       1.212  -0.683  -0.013  0.00  0.00    +0.162 A 
ATOM      7  C   UNL     1       0.002  -0.004   0.002  0.00  0.00    +0.049 A 
ATOM      8  O   UNL     1       1.214  -2.044  -0.013  0.00  0.00    -0.485 OA
ATOM      9  C   UNL     1       2.434  -2.685  -0.404  0.00  0.00    +0.270 C 
ATOM     10  C   UNL     1       3.594  -1.997   0.328  0.00  0.00    +0.270 C 
ATOM     11  O   UNL     1       3.602  -0.615  -0.043  0.00  0.00    -0.485 OA
ENDBRANCH   1   4
BRANCH   1  12
ATOM     12  N   UNL     1       4.199   2.249  -1.393  0.00  0.00    +0.384 N 
ATOM     13  H   UNL     1       4.368   1.312  -1.725  0.00  0.00    -0.085 HD
ATOM     14  H   UNL     1       3.529   2.704  -1.994  0.00  0.00    -0.085 HD
BRANCH  12  15
ATOM     15  C   UNL     1       5.457   3.006  -1.401  0.00  0.00    -0.046 C 
BRANCH  15  16
ATOM     16  C   UNL     1       6.000   3.062  -2.806  0.00  0.00    -0.064 A 
ATOM     17  C   UNL     1       6.855   2.073  -3.256  0.00  0.00    +0.003 A 
ATOM     18  C   UNL     1       7.353   2.123  -4.545  0.00  0.00    +0.015 A 
ATOM     19  C   UNL     1       6.996   3.164  -5.384  0.00  0.00    +0.018 A 
ATOM     20  C   UNL     1       6.141   4.153  -4.933  0.00  0.00    +0.015 A 
ATOM     21  C   UNL     1       5.639   4.099  -3.646  0.00  0.00    +0.003 A 
ATOM     22 BR   UNL     1       7.677   3.233  -7.146  0.00  0.00    -0.050 Br
ENDBRANCH  15  16
ENDBRANCH  12  15
ENDBRANCH   1  12
TORSDOF 4
