REMARK  Name = ZINC35553789
REMARK  6 active torsions:
REMARK  status: ('A' for Active; 'I' for Inactive)
REMARK    1  A    between atoms: C_8  and  C_10
REMARK    2  A    between atoms: C_13  and  C_15
REMARK    3  A    between atoms: N_17  and  N_18
REMARK    4  A    between atoms: N_18  and  C_19
REMARK    5  A    between atoms: C_22  and  N_28
REMARK    6  A    between atoms: C_24  and  N_25
REMARK                            x       y       z     vdW  Elec       q    Type
REMARK                         _______ _______ _______ _____ _____    ______ ____
ROOT
ATOM      1  C   UNL     1       3.010  -8.317   0.905  0.00  0.00    +0.267 C 
ATOM      2  O   UNL     1       3.981  -9.051   0.907  0.00  0.00    -0.268 OA
ATOM      3  N   UNL     1       1.784  -8.822   0.665  0.00  0.00    -0.232 N 
ATOM      4  H   UNL     1       1.010  -8.237   0.663  0.00  0.00    +0.173 HD
ENDROOT
BRANCH   1   8
ATOM      5  C   UNL     1       3.003  -4.221   1.583  0.00  0.00    +0.045 A 
ATOM      6  C   UNL     1       4.250  -4.826   1.643  0.00  0.00    +0.019 A 
ATOM      7  C   UNL     1       4.337  -6.173   1.431  0.00  0.00    +0.021 A 
ATOM      8  C   UNL     1       3.175  -6.883   1.165  0.00  0.00    +0.076 A 
ATOM      9  S   UNL     1       1.931  -5.604   1.225  0.00  0.00    -0.082 S 
BRANCH   5  17
ATOM     10  C   UNL     1       0.071   1.157   2.107  0.00  0.00    +0.002 A 
ATOM     11  C   UNL     1       1.240   1.861   2.366  0.00  0.00    +0.001 A 
ATOM     12  C   UNL     1       2.444   1.184   2.403  0.00  0.00    +0.017 A 
ATOM     13  C   UNL     1       2.464  -0.171   2.183  0.00  0.00    +0.040 A 
ATOM     14  C   UNL     1       1.290  -0.917   1.916  0.00  0.00    +0.079 A 
ATOM     15  C   UNL     1       0.079  -0.184   1.888  0.00  0.00    +0.029 A 
ATOM     16  N   UNL     1       1.467  -2.232   1.722  0.00  0.00    -0.239 NA
ATOM     17  C   UNL     1       2.652  -2.805   1.773  0.00  0.00    +0.116 A 
ATOM     18  S   UNL     1       3.725  -1.421   2.132  0.00  0.00    -0.067 S 
ENDBRANCH   5  17
ENDBRANCH   1   8
BRANCH   3  19
ATOM     19  N   UNL     1       1.627 -10.192   0.417  0.00  0.00    -0.262 N 
ATOM     20  H   UNL     1       2.400 -10.777   0.419  0.00  0.00    +0.170 HD
BRANCH  19  21
ATOM     21  C   UNL     1       0.356 -10.715   0.168  0.00  0.00    +0.075 A 
ATOM     22  C   UNL     1      -0.765  -9.902   0.277  0.00  0.00    +0.029 A 
ATOM     23  C   UNL     1      -2.020 -10.422   0.029  0.00  0.00    +0.035 A 
ATOM     24  C   UNL     1      -2.162 -11.752  -0.326  0.00  0.00    +0.128 A 
ATOM     25  C   UNL     1      -1.048 -12.563  -0.435  0.00  0.00    +0.067 A 
ATOM     26  C   UNL     1       0.211 -12.048  -0.195  0.00  0.00    +0.150 A 
BRANCH  26  27
ATOM     27  N   UNL     1       1.403 -12.916  -0.318  0.00  0.00    +0.058 N 
ATOM     28  O   UNL     1       2.432 -12.470  -0.770  0.00  0.00    -0.126 OA
ATOM     29  O   UNL     1       1.348 -14.072   0.033  0.00  0.00    -0.126 OA
ENDBRANCH  26  27
BRANCH  24  30
ATOM     30  N   UNL     1      -3.508 -12.306  -0.591  0.00  0.00    +0.056 N 
ATOM     31  O   UNL     1      -4.483 -11.597  -0.495  0.00  0.00    -0.126 OA
ATOM     32  O   UNL     1      -3.634 -13.467  -0.902  0.00  0.00    -0.126 OA
ENDBRANCH  24  30
ENDBRANCH  19  21
ENDBRANCH   3  19
TORSDOF 6
