REMARK  Name = ZINC04855123
REMARK  5 active torsions:
REMARK  status: ('A' for Active; 'I' for Inactive)
REMARK    1  A    between atoms: C_1  and  C_2
REMARK    2  A    between atoms: C_2  and  C_3
REMARK    3  A    between atoms: C_3  and  O_4
REMARK    4  A    between atoms: O_4  and  C_5
REMARK    5  A    between atoms: C_7  and  C_22
REMARK                            x       y       z     vdW  Elec       q    Type
REMARK                         _______ _______ _______ _____ _____    ______ ____
ROOT
ATOM      1  C   UNL     1      -4.734   1.762  -4.682  0.00  0.00    +0.183 C 
ATOM      2  C   UNL     1      -4.729   0.579  -3.671  0.00  0.00    +0.184 C 
ATOM      3  O   UNL     1      -5.153  -0.605  -4.411  0.00  0.00    -0.340 OA
ATOM      4  C   UNL     1      -4.770  -0.343  -5.724  0.00  0.00    +0.285 C 
ATOM      5  C   UNL     1      -5.304   1.125  -5.942  0.00  0.00    +0.209 C 
ATOM      6  O   UNL     1      -4.703   1.354  -7.211  0.00  0.00    -0.338 OA
ATOM      7  C   UNL     1      -4.991   0.113  -7.911  0.00  0.00    +0.174 C 
ATOM      8  O   UNL     1      -5.132  -0.945  -6.926  0.00  0.00    -0.317 OA
ATOM      9  C   UNL     1      -3.836  -0.217  -8.851  0.00  0.00    +0.065 C 
ATOM     10  C   UNL     1      -3.692   0.895  -9.893  0.00  0.00    +0.005 C 
ATOM     11  C   UNL     1      -4.996   1.022 -10.685  0.00  0.00    +0.000 C 
ATOM     12  C   UNL     1      -6.141   1.372  -9.733  0.00  0.00    +0.005 C 
ATOM     13  C   UNL     1      -6.294   0.262  -8.690  0.00  0.00    +0.065 C 
ENDROOT
BRANCH   2  14
ATOM     14  C   UNL     1      -3.319   0.372  -3.114  0.00  0.00    +0.179 C 
ATOM     15  C   UNL     1      -3.314  -0.745  -2.040  0.00  0.00    +0.197 C 
ATOM     16  O   UNL     1      -2.172  -0.370  -1.232  0.00  0.00    -0.346 OA
ATOM     17  C   UNL     1      -2.189   1.067  -1.217  0.00  0.00    +0.171 C 
ATOM     18  O   UNL     1      -2.886   1.534  -2.379  0.00  0.00    -0.340 OA
ATOM     19  C   UNL     1      -0.753   1.593  -1.232  0.00  0.00    +0.065 C 
ATOM     20  C   UNL     1      -0.013   1.086   0.008  0.00  0.00    +0.005 C 
ATOM     21  C   UNL     1      -0.729   1.579   1.267  0.00  0.00    +0.000 C 
ATOM     22  C   UNL     1      -2.163   1.047   1.280  0.00  0.00    +0.005 C 
ATOM     23  C   UNL     1      -2.907   1.554   0.043  0.00  0.00    +0.065 C 
ENDBRANCH   2  14
BRANCH   1  24
ATOM     24  O   UNL     1      -5.579   2.818  -4.222  0.00  0.00    -0.371 OA
BRANCH  24  25
ATOM     25  C   UNL     1      -5.167   4.119  -4.646  0.00  0.00    +0.160 C 
BRANCH  25  27
ATOM     26  C   UNL     1      -5.698   6.559  -4.552  0.00  0.00    +0.006 C 
ATOM     27  C   UNL     1      -6.139   5.166  -4.098  0.00  0.00    +0.025 C 
ENDBRANCH  25  27
ENDBRANCH  24  25
ENDBRANCH   1  24
TORSDOF 4
