REMARK  Name = ZINC37936871
REMARK  5 active torsions:
REMARK  status: ('A' for Active; 'I' for Inactive)
REMARK    1  A    between atoms: C_1  and  C_2
REMARK    2  A    between atoms: C_6  and  N_8
REMARK    3  A    between atoms: N_8  and  C_9
REMARK    4  A    between atoms: C_9  and  C_11
REMARK    5  A    between atoms: C_9  and  C_13
REMARK                            x       y       z     vdW  Elec       q    Type
REMARK                         _______ _______ _______ _____ _____    ______ ____
ROOT
ATOM      1  C   UNL     1       0.071  -4.261   2.379  0.00  0.00    +0.207 C 
ENDROOT
BRANCH   1   2
ATOM      2  C   UNL     1      -0.402  -4.780   3.713  0.00  0.00    +0.022 A 
ATOM      3  C   UNL     1      -0.471  -3.929   4.800  0.00  0.00    +0.010 A 
ATOM      4  C   UNL     1      -0.905  -4.404   6.024  0.00  0.00    +0.016 A 
ATOM      5  C   UNL     1      -1.270  -5.731   6.162  0.00  0.00    +0.021 A 
ATOM      6  C   UNL     1      -1.201  -6.584   5.075  0.00  0.00    +0.054 A 
ATOM      7  C   UNL     1      -0.772  -6.107   3.848  0.00  0.00    +0.130 A 
ATOM      8  F   UNL     1      -0.709  -6.938   2.785  0.00  0.00    -0.205 F 
ATOM      9 BR   UNL     1      -1.863  -6.380   7.836  0.00  0.00    -0.050 Br
ENDBRANCH   1   2
BRANCH   1  10
ATOM     10  N   UNL     1      -0.217  -2.828   2.283  0.00  0.00    -0.325 N 
ATOM     11  H   UNL     1      -0.318  -2.298   3.089  0.00  0.00    +0.148 HD
BRANCH  10  17
ATOM     12  C   UNL     1      -1.045   1.201  -0.406  0.00  0.00    +0.044 C 
ATOM     13  C   UNL     1      -0.748  -0.273  -0.304  0.00  0.00    -0.049 A 
ATOM     14  C   UNL     1      -0.604  -1.030  -1.453  0.00  0.00    +0.003 A 
ATOM     15  C   UNL     1      -0.332  -2.382  -1.363  0.00  0.00    +0.002 A 
ATOM     16  C   UNL     1      -0.203  -2.982  -0.126  0.00  0.00    +0.023 A 
ATOM     17  C   UNL     1      -0.347  -2.225   1.030  0.00  0.00    +0.029 A 
ATOM     18  C   UNL     1      -0.615  -0.865   0.936  0.00  0.00    +0.026 A 
ENDBRANCH  10  17
ENDBRANCH   1  10
BRANCH   1  19
ATOM     19  C   UNL     1       1.521  -4.480   2.254  0.00  0.00    +0.090 C 
ATOM     20  N   UNL     1       2.640  -4.648   2.157  0.00  0.00    -0.194 NA
ENDBRANCH   1  19
TORSDOF 4
