REMARK  Name = ZINC40340444
REMARK  11 active torsions:
REMARK  status: ('A' for Active; 'I' for Inactive)
REMARK    1  A    between atoms: C_1  and  C_2
REMARK    2  A    between atoms: C_5  and  C_8
REMARK    3  A    between atoms: C_8  and  N_9
REMARK    4  A    between atoms: C_10  and  C_27
REMARK    5  A    between atoms: C_13  and  C_20
REMARK    6  A    between atoms: C_23  and  C_26
REMARK    7  A    between atoms: C_29  and  O_36
REMARK    8  A    between atoms: C_30  and  O_35
REMARK    9  A    between atoms: C_31  and  O_33
REMARK   10  A    between atoms: O_33  and  C_34
REMARK   11  A    between atoms: O_36  and  C_37
REMARK                            x       y       z     vdW  Elec       q    Type
REMARK                         _______ _______ _______ _____ _____    ______ ____
ROOT
ATOM      1  N   UNL     1       1.447  -4.746  -0.032  0.00  0.00    -0.281 N 
ATOM      2  C   UNL     1       2.257  -5.010  -1.228  0.00  0.00    +0.142 C 
ATOM      3  C   UNL     1       3.599  -5.469  -0.729  0.00  0.00    +0.035 A 
ATOM      4  C   UNL     1       4.890  -5.904  -1.047  0.00  0.00    +0.099 A 
ATOM      5  N   UNL     1       5.522  -6.128   0.088  0.00  0.00    -0.173 NA
ATOM      6  N   UNL     1       4.759  -5.878   1.091  0.00  0.00    -0.272 N 
ATOM      7  H   UNL     1       5.013  -5.972   2.023  0.00  0.00    +0.189 HD
ATOM      8  C   UNL     1       3.535  -5.459   0.651  0.00  0.00    +0.126 A 
ATOM      9  C   UNL     1       2.199  -5.004   1.053  0.00  0.00    +0.266 C 
ATOM     10  O   UNL     1       1.825  -4.881   2.203  0.00  0.00    -0.268 OA
ENDROOT
BRANCH   4  11
ATOM     11  C   UNL     1       5.446  -6.081  -2.412  0.00  0.00    +0.002 A 
ATOM     12  C   UNL     1       4.626  -6.519  -3.450  0.00  0.00    +0.010 A 
ATOM     13  C   UNL     1       5.148  -6.682  -4.717  0.00  0.00    +0.004 A 
ATOM     14  C   UNL     1       6.483  -6.411  -4.958  0.00  0.00    -0.050 A 
ATOM     15  C   UNL     1       7.302  -5.976  -3.931  0.00  0.00    +0.004 A 
ATOM     16  C   UNL     1       6.789  -5.804  -2.662  0.00  0.00    +0.010 A 
ATOM     17  C   UNL     1       7.048  -6.591  -6.343  0.00  0.00    +0.044 C 
ENDBRANCH   4  11
BRANCH   2  18
ATOM     18  C   UNL     1       2.408  -3.750  -2.041  0.00  0.00    -0.015 A 
ATOM     19  C   UNL     1       2.584  -2.536  -1.405  0.00  0.00    +0.055 A 
ATOM     20  C   UNL     1       2.723  -1.374  -2.149  0.00  0.00    +0.165 A 
ATOM     21  C   UNL     1       2.684  -1.432  -3.537  0.00  0.00    +0.201 A 
ATOM     22  C   UNL     1       2.506  -2.655  -4.173  0.00  0.00    +0.165 A 
ATOM     23  C   UNL     1       2.374  -3.813  -3.422  0.00  0.00    +0.055 A 
BRANCH  22  24
ATOM     24  O   UNL     1       2.468  -2.717  -5.531  0.00  0.00    -0.491 OA
ATOM     25  C   UNL     1       2.282  -4.007  -6.117  0.00  0.00    +0.277 C 
ENDBRANCH  22  24
BRANCH  21  26
ATOM     26  O   UNL     1       2.819  -0.294  -4.271  0.00  0.00    -0.501 OA
ATOM     27  H   UNL     1       3.734  -0.082  -4.503  0.00  0.00    +0.292 HD
ENDBRANCH  21  26
BRANCH  20  28
ATOM     28  O   UNL     1       2.896  -0.180  -1.522  0.00  0.00    -0.491 OA
ATOM     29  C   UNL     1       2.926  -0.196  -0.093  0.00  0.00    +0.277 C 
ENDBRANCH  20  28
ENDBRANCH   2  18
BRANCH   1  30
ATOM     30  C   UNL     1       0.059  -4.275  -0.021  0.00  0.00    +0.144 C 
BRANCH  30  35
ATOM     31  C   UNL     1      -0.018   1.503   0.010  0.00  0.00    +0.044 C 
ATOM     32  C   UNL     1       0.002  -0.004   0.002  0.00  0.00    -0.050 A 
ATOM     33  C   UNL     1       0.006  -0.689  -1.199  0.00  0.00    +0.003 A 
ATOM     34  C   UNL     1       0.025  -2.071  -1.206  0.00  0.00    +0.005 A 
ATOM     35  C   UNL     1       0.040  -2.768  -0.013  0.00  0.00    -0.030 A 
ATOM     36  C   UNL     1       0.037  -2.084   1.188  0.00  0.00    +0.005 A 
ATOM     37  C   UNL     1       0.023  -0.702   1.195  0.00  0.00    +0.003 A 
ENDBRANCH  30  35
ENDBRANCH   1  30
TORSDOF 7
