REMARK  Name = ZINC36692827
REMARK  11 active torsions:
REMARK  status: ('A' for Active; 'I' for Inactive)
REMARK    1  A    between atoms: C_1  and  C_2
REMARK    2  A    between atoms: C_2  and  N_3
REMARK    3  A    between atoms: N_3  and  C_4
REMARK    4  A    between atoms: N_3  and  C_6
REMARK    5  A    between atoms: C_4  and  C_5
REMARK    6  A    between atoms: C_6  and  C_8
REMARK    7  A    between atoms: C_6  and  C_26
REMARK    8  A    between atoms: C_8  and  N_9
REMARK    9  A    between atoms: C_10  and  C_12
REMARK   10  A    between atoms: C_12  and  N_13
REMARK   11  A    between atoms: C_19  and  C_22
REMARK                            x       y       z     vdW  Elec       q    Type
REMARK                         _______ _______ _______ _____ _____    ______ ____
ROOT
ATOM      1  N   UNL     1       0.199   0.898   1.820  0.00  0.00    -0.315 N 
ATOM      2  C   UNL     1      -0.269   1.823   2.681  0.00  0.00    +0.231 C 
ATOM      3  O   UNL     1       0.182   1.888   3.805  0.00  0.00    -0.274 OA
ATOM      4  H   UNL     1      -0.109   0.891   0.900  0.00  0.00    +0.149 HD
ENDROOT
BRANCH   1   5
ATOM      5  C   UNL     1       1.173  -0.099   2.273  0.00  0.00    +0.093 C 
BRANCH   5   6
ATOM      6  C   UNL     1       1.631  -0.943   1.082  0.00  0.00    -0.020 C 
BRANCH   6   7
ATOM      7  C   UNL     1       2.508  -2.067   1.570  0.00  0.00    -0.059 A 
ATOM      8  C   UNL     1       2.378  -2.533   2.865  0.00  0.00    +0.002 A 
ATOM      9  C   UNL     1       3.183  -3.563   3.313  0.00  0.00    +0.000 A 
ATOM     10  C   UNL     1       4.118  -4.128   2.466  0.00  0.00    +0.000 A 
ATOM     11  C   UNL     1       4.247  -3.663   1.171  0.00  0.00    +0.000 A 
ATOM     12  C   UNL     1       3.439  -2.635   0.721  0.00  0.00    +0.002 A 
ENDBRANCH   6   7
BRANCH   6  13
ATOM     13  N   UNL     1       0.457  -1.501   0.397  0.00  0.00    +0.385 N 
ATOM     14  H   UNL     1      -0.171  -0.753   0.141  0.00  0.00    -0.081 HD
BRANCH  13  16
ATOM     15  C   UNL     1       1.482  -1.213  -1.809  0.00  0.00    -0.017 C 
ATOM     16  C   UNL     1       0.888  -2.212  -0.814  0.00  0.00    -0.081 C 
ENDBRANCH  13  16
BRANCH  13  17
ATOM     17  C   UNL     1      -0.235  -2.436   1.294  0.00  0.00    -0.081 C 
ATOM     18  C   UNL     1      -1.265  -1.673   2.130  0.00  0.00    -0.017 C 
ENDBRANCH  13  17
ENDBRANCH   6  13
ENDBRANCH   5   6
ENDBRANCH   1   5
BRANCH   2  19
ATOM     19  C   UNL     1      -1.352   2.776   2.247  0.00  0.00    +0.213 C 
BRANCH  19  20
ATOM     20  N   UNL     1      -1.599   3.752   3.312  0.00  0.00    -0.215 N 
ATOM     21  C   UNL     1      -2.494   3.578   4.306  0.00  0.00    +0.247 C 
ATOM     22  O   UNL     1      -3.220   2.623   4.482  0.00  0.00    -0.273 OA
ATOM     23  C   UNL     1      -2.402   4.826   5.154  0.00  0.00    +0.113 C 
ATOM     24  C   UNL     1      -1.967   4.474   6.572  0.00  0.00    +0.035 C 
ATOM     25  C   UNL     1      -1.850   5.753   7.405  0.00  0.00    +0.006 C 
ATOM     26  C   UNL     1      -3.203   6.468   7.432  0.00  0.00    -0.014 C 
ATOM     27  C   UNL     1      -3.615   6.835   6.005  0.00  0.00    +0.006 C 
ATOM     28  C   UNL     1      -3.738   5.561   5.167  0.00  0.00    +0.035 C 
ATOM     29  C   UNL     1      -3.090   7.741   8.274  0.00  0.00    +0.007 C 
ATOM     30  N   UNL     1      -1.376   5.636   4.486  0.00  0.00    -0.285 N 
ATOM     31  C   UNL     1      -0.961   4.923   3.422  0.00  0.00    +0.310 C 
ATOM     32  O   UNL     1      -0.105   5.302   2.646  0.00  0.00    -0.252 OA
ATOM     33  H   UNL     1      -1.057   6.510   4.760  0.00  0.00    +0.151 HD
ENDBRANCH  19  20
ENDBRANCH   2  19
TORSDOF 8
