REMARK  Name = ZINC38705118
REMARK  12 active torsions:
REMARK  status: ('A' for Active; 'I' for Inactive)
REMARK    1  A    between atoms: C_1  and  C_2
REMARK    2  A    between atoms: C_2  and  C_3
REMARK    3  A    between atoms: C_3  and  C_4
REMARK    4  A    between atoms: C_4  and  C_5
REMARK    5  A    between atoms: C_5  and  N_6
REMARK    6  A    between atoms: C_7  and  C_26
REMARK    7  A    between atoms: C_10  and  C_17
REMARK    8  A    between atoms: C_18  and  C_25
REMARK    9  A    between atoms: C_20  and  C_24
REMARK   10  A    between atoms: C_22  and  O_23
REMARK   11  A    between atoms: C_30  and  O_32
REMARK   12  A    between atoms: O_32  and  C_33
REMARK                            x       y       z     vdW  Elec       q    Type
REMARK                         _______ _______ _______ _____ _____    ______ ____
ROOT
ATOM      1  N   UNL     1      -2.858  -4.121  -0.055  0.00  0.00    -0.285 N 
ATOM      2  C   UNL     1      -2.778  -5.013  -1.220  0.00  0.00    +0.141 C 
ATOM      3  C   UNL     1      -2.782  -6.414  -0.672  0.00  0.00    +0.035 A 
ATOM      4  C   UNL     1      -2.743  -7.786  -0.943  0.00  0.00    +0.102 A 
ATOM      5  N   UNL     1      -2.795  -8.418   0.213  0.00  0.00    -0.173 NA
ATOM      6  N   UNL     1      -2.863  -7.581   1.186  0.00  0.00    -0.272 N 
ATOM      7  H   UNL     1      -2.910  -7.821   2.125  0.00  0.00    +0.189 HD
ATOM      8  C   UNL     1      -2.860  -6.304   0.703  0.00  0.00    +0.126 A 
ATOM      9  C   UNL     1      -2.900  -4.880   1.055  0.00  0.00    +0.265 C 
ATOM     10  O   UNL     1      -2.965  -4.447   2.190  0.00  0.00    -0.268 OA
ENDROOT
BRANCH   4  11
ATOM     11  C   UNL     1      -2.658  -8.415  -2.285  0.00  0.00    +0.047 A 
ATOM     12  C   UNL     1      -3.538  -9.436  -2.635  0.00  0.00    -0.037 A 
ATOM     13  C   UNL     1      -3.456 -10.017  -3.884  0.00  0.00    +0.007 A 
ATOM     14  C   UNL     1      -2.502  -9.589  -4.791  0.00  0.00    -0.047 A 
ATOM     15  C   UNL     1      -1.625  -8.576  -4.453  0.00  0.00    +0.049 A 
ATOM     16  C   UNL     1      -1.700  -7.980  -3.204  0.00  0.00    +0.127 A 
ATOM     17  C   UNL     1      -2.420 -10.230  -6.152  0.00  0.00    +0.044 C 
ATOM     18  C   UNL     1      -4.578  -9.906  -1.651  0.00  0.00    +0.044 C 
BRANCH  16  19
ATOM     19  O   UNL     1      -0.841  -6.981  -2.873  0.00  0.00    -0.506 OA
ATOM     20  H   UNL     1       0.010  -7.290  -2.534  0.00  0.00    +0.292 HD
ENDBRANCH  16  19
ENDBRANCH   4  11
BRANCH   2  21
ATOM     21  C   UNL     1      -3.969  -4.801  -2.118  0.00  0.00    -0.019 A 
ATOM     22  C   UNL     1      -5.238  -4.715  -1.574  0.00  0.00    +0.006 A 
ATOM     23  C   UNL     1      -6.333  -4.521  -2.395  0.00  0.00    +0.004 A 
ATOM     24  C   UNL     1      -6.162  -4.414  -3.762  0.00  0.00    +0.045 A 
ATOM     25  C   UNL     1      -4.891  -4.500  -4.310  0.00  0.00    +0.120 A 
ATOM     26  C   UNL     1      -3.793  -4.689  -3.483  0.00  0.00    +0.051 A 
BRANCH  25  27
ATOM     27  O   UNL     1      -4.721  -4.395  -5.654  0.00  0.00    -0.495 OA
ATOM     28  C   UNL     1      -5.895  -4.196  -6.443  0.00  0.00    +0.277 C 
ENDBRANCH  25  27
ENDBRANCH   2  21
BRANCH   1  29
ATOM     29  C   UNL     1      -2.882  -2.657  -0.095  0.00  0.00    +0.109 C 
BRANCH  29  30
ATOM     30  C   UNL     1      -1.450  -2.122  -0.037  0.00  0.00    +0.019 C 
BRANCH  30  31
ATOM     31  C   UNL     1      -1.474  -0.593  -0.079  0.00  0.00    +0.001 C 
BRANCH  31  33
ATOM     32  C   UNL     1      -0.067   1.472  -0.062  0.00  0.00    +0.004 C 
ATOM     33  C   UNL     1      -0.042  -0.058  -0.020  0.00  0.00    -0.003 C 
ENDBRANCH  31  33
ENDBRANCH  30  31
ENDBRANCH  29  30
ENDBRANCH   1  29
TORSDOF 8
