REMARK  Name = ZINC01214262
REMARK  6 active torsions:
REMARK  status: ('A' for Active; 'I' for Inactive)
REMARK    1  A    between atoms: C_4  and  O_27
REMARK    2  A    between atoms: C_5  and  C_7
REMARK    3  A    between atoms: N_8  and  N_9
REMARK    4  A    between atoms: C_10  and  C_12
REMARK    5  A    between atoms: C_12  and  C_13
REMARK    6  A    between atoms: C_13  and  N_14
REMARK                            x       y       z     vdW  Elec       q    Type
REMARK                         _______ _______ _______ _____ _____    ______ ____
ROOT
ATOM      1  C   UNL     1       4.095   3.690  -1.461  0.00  0.00    +0.119 C 
ENDROOT
BRANCH   1   3
ATOM      2  N   UNL     1       6.214   3.228  -2.651  0.00  0.00    -0.207 N 
ATOM      3  C   UNL     1       5.567   3.367  -1.476  0.00  0.00    +0.234 C 
ATOM      4  O   UNL     1       6.170   3.232  -0.432  0.00  0.00    -0.274 OA
ATOM      5  H   UNL     1       5.668   3.350  -3.598  0.00  0.00    +0.177 HD
BRANCH   2   7
ATOM      6  C   UNL     1       8.205   2.794  -3.796  0.00  0.00    +0.142 C 
ATOM      7  N   UNL     1       7.582   2.928  -2.665  0.00  0.00    -0.188 NA
BRANCH   6  12
ATOM      8  C   UNL     1      11.666   2.037  -5.033  0.00  0.00    +0.001 A 
ATOM      9  C   UNL     1      12.354   1.884  -3.841  0.00  0.00    +0.004 A 
ATOM     10  C   UNL     1      11.698   2.025  -2.633  0.00  0.00    +0.046 A 
ATOM     11  C   UNL     1      10.345   2.322  -2.607  0.00  0.00    +0.125 A 
ATOM     12  C   UNL     1       9.645   2.478  -3.811  0.00  0.00    +0.036 A 
ATOM     13  C   UNL     1      10.318   2.328  -5.026  0.00  0.00    +0.013 A 
BRANCH  11  14
ATOM     14  O   UNL     1       9.700   2.462  -1.420  0.00  0.00    -0.506 OA
ATOM     15  H   UNL     1       8.625   2.697  -1.403  0.00  0.00    +0.292 HD
ENDBRANCH  11  14
ENDBRANCH   6  12
ENDBRANCH   2   7
ENDBRANCH   1   3
BRANCH   1  16
ATOM     16  C   UNL     1       3.611   3.792  -0.013  0.00  0.00    +0.131 C 
BRANCH  16  17
ATOM     17  N   UNL     1       2.180   4.106   0.002  0.00  0.00    -0.339 N 
ATOM     18  C   UNL     1       1.164   3.167   0.007  0.00  0.00    +0.050 A 
ATOM     19  C   UNL     1       1.175   1.775   0.000  0.00  0.00    +0.026 A 
ATOM     20  C   UNL     1      -0.013   1.076   0.008  0.00  0.00    +0.002 A 
ATOM     21  C   UNL     1      -1.226   1.746   0.017  0.00  0.00    +0.001 A 
ATOM     22  C   UNL     1      -1.257   3.124   0.030  0.00  0.00    +0.010 A 
ATOM     23  C   UNL     1      -0.064   3.844   0.022  0.00  0.00    +0.008 A 
ATOM     24  C   UNL     1       0.252   5.284   0.026  0.00  0.00    +0.008 A 
ATOM     25  C   UNL     1       1.651   5.384   0.013  0.00  0.00    +0.050 A 
ATOM     26  C   UNL     1       2.243   6.644   0.012  0.00  0.00    +0.026 A 
ATOM     27  C   UNL     1       1.457   7.776   0.025  0.00  0.00    +0.002 A 
ATOM     28  C   UNL     1       0.074   7.674   0.037  0.00  0.00    +0.001 A 
ATOM     29  C   UNL     1      -0.531   6.436   0.038  0.00  0.00    +0.010 A 
ENDBRANCH  16  17
ENDBRANCH   1  16
TORSDOF 6
