REMARK  Name = ZINC20695600
REMARK  7 active torsions:
REMARK  status: ('A' for Active; 'I' for Inactive)
REMARK    1  A    between atoms: C_1  and  O_2
REMARK    2  A    between atoms: O_2  and  C_3
REMARK    3  A    between atoms: C_3  and  C_4
REMARK    4  A    between atoms: C_4  and  C_5
REMARK    5  A    between atoms: C_5  and  N_6
REMARK    6  A    between atoms: C_7  and  C_9
REMARK    7  A    between atoms: C_22  and  C_25
REMARK                            x       y       z     vdW  Elec       q    Type
REMARK                         _______ _______ _______ _____ _____    ______ ____
ROOT
ATOM      1  C   UNL     1      -0.748   0.341   0.159  0.00  0.00    +0.037 A 
ATOM      2  C   UNL     1       0.236   1.334   0.181  0.00  0.00    +0.015 A 
ATOM      3  C   UNL     1       1.563   0.976   0.136  0.00  0.00    +0.024 A 
ATOM      4  C   UNL     1       1.924  -0.368   0.069  0.00  0.00    +0.031 A 
ATOM      5  C   UNL     1       0.955  -1.363   0.045  0.00  0.00    -0.019 A 
ATOM      6  C   UNL     1      -0.381  -1.003   0.091  0.00  0.00    +0.019 A 
ATOM      7  C   UNL     1       1.301  -2.817  -0.029  0.00  0.00    +0.049 C 
ATOM      8  C   UNL     1       1.044  -3.373  -1.409  0.00  0.00    -0.023 C 
ATOM      9  C   UNL     1       1.960  -4.257  -1.720  0.00  0.00    -0.030 C 
ATOM     10  C   UNL     1       2.952  -4.416  -0.584  0.00  0.00    +0.033 C 
ATOM     11  C   UNL     1       2.797  -3.091   0.218  0.00  0.00    +0.029 C 
ATOM     12  C   UNL     1       3.645  -2.018  -0.471  0.00  0.00    +0.105 C 
ATOM     13  N   UNL     1       3.270  -0.703   0.058  0.00  0.00    -0.336 N 
ATOM     14  H   UNL     1       4.046  -0.018   0.430  0.00  0.00    +0.147 HD
ENDROOT
BRANCH  12  15
ATOM     15  C   UNL     1       3.395  -2.055  -1.957  0.00  0.00    -0.026 A 
ATOM     16  C   UNL     1       4.179  -2.852  -2.771  0.00  0.00    +0.005 A 
ATOM     17  C   UNL     1       3.947  -2.889  -4.133  0.00  0.00    +0.002 A 
ATOM     18  C   UNL     1       2.937  -2.122  -4.683  0.00  0.00    +0.020 A 
ATOM     19  C   UNL     1       2.156  -1.321  -3.871  0.00  0.00    +0.041 A 
ATOM     20  C   UNL     1       2.385  -1.288  -2.506  0.00  0.00    +0.025 A 
ATOM     21 CL   UNL     1       0.888  -0.357  -4.562  0.00  0.00    -0.084 Cl
ENDBRANCH  12  15
BRANCH   1  23
ATOM     22  N   UNL     1      -2.529   2.013   0.266  0.00  0.00    -0.311 N 
ATOM     23  C   UNL     1      -2.174   0.715   0.201  0.00  0.00    +0.244 C 
ATOM     24  O   UNL     1      -3.030  -0.149   0.176  0.00  0.00    -0.270 OA
ATOM     25  H   UNL     1      -1.755   2.794   0.288  0.00  0.00    +0.149 HD
BRANCH  22  26
ATOM     26  C   UNL     1      -3.946   2.384   0.308  0.00  0.00    +0.107 C 
BRANCH  26  27
ATOM     27  C   UNL     1      -4.072   3.907   0.379  0.00  0.00    +0.047 C 
BRANCH  27  28
ATOM     28  C   UNL     1      -5.552   4.295   0.423  0.00  0.00    +0.161 C 
BRANCH  28  30
ATOM     29  C   UNL     1      -7.019   6.187   0.535  0.00  0.00    +0.193 C 
ATOM     30  O   UNL     1      -5.670   5.717   0.490  0.00  0.00    -0.383 OA
ENDBRANCH  28  30
ENDBRANCH  27  28
ENDBRANCH  26  27
ENDBRANCH  22  26
ENDBRANCH   1  23
TORSDOF 6
