REMARK  Name = ZINC13102843
REMARK  8 active torsions:
REMARK  status: ('A' for Active; 'I' for Inactive)
REMARK    1  A    between atoms: C_1  and  C_2
REMARK    2  A    between atoms: C_6  and  S_8
REMARK    3  A    between atoms: S_8  and  N_11
REMARK    4  A    between atoms: N_11  and  C_12
REMARK    5  A    between atoms: C_12  and  C_14
REMARK    6  A    between atoms: C_12  and  C_25
REMARK    7  A    between atoms: C_14  and  C_15
REMARK    8  A    between atoms: C_30  and  C_33
REMARK                            x       y       z     vdW  Elec       q    Type
REMARK                         _______ _______ _______ _____ _____    ______ ____
ROOT
ATOM      1  C   UNL     1      -1.143   5.778  -2.274  0.00  0.00    +0.167 C 
ENDROOT
BRANCH   1   2
ATOM      2  C   UNL     1      -0.683   5.186  -3.582  0.00  0.00    +0.235 C 
ATOM      3  O   UNL     1       0.360   5.554  -4.081  0.00  0.00    -0.274 OA
ATOM      4  N   UNL     1      -1.431   4.248  -4.197  0.00  0.00    -0.296 N 
ATOM      5  C   UNL     1      -1.012   3.655  -5.479  0.00  0.00    +0.113 C 
ATOM      6  C   UNL     1      -0.801   2.151  -5.249  0.00  0.00    +0.054 C 
ATOM      7  C   UNL     1      -1.944   1.576  -4.465  0.00  0.00    -0.041 C 
ATOM      8  C   UNL     1      -2.776   2.285  -3.742  0.00  0.00    -0.004 C 
ATOM      9  C   UNL     1      -2.699   3.781  -3.619  0.00  0.00    +0.135 C 
BRANCH   7  10
ATOM     10  C   UNL     1      -2.145   0.113  -4.512  0.00  0.00    -0.022 A 
ATOM     11  C   UNL     1      -1.181  -0.745  -3.981  0.00  0.00    +0.008 A 
ATOM     12  C   UNL     1      -1.378  -2.110  -4.022  0.00  0.00    +0.001 A 
ATOM     13  C   UNL     1      -2.523  -2.629  -4.600  0.00  0.00    +0.000 A 
ATOM     14  C   UNL     1      -3.480  -1.785  -5.134  0.00  0.00    +0.001 A 
ATOM     15  C   UNL     1      -3.298  -0.418  -5.093  0.00  0.00    +0.008 A 
ENDBRANCH   7  10
ENDBRANCH   1   2
BRANCH   1  16
ATOM     16  N   UNL     1      -0.000   6.380  -1.582  0.00  0.00    -0.178 NA
ATOM     17  H   UNL     1       0.695   6.826  -2.091  0.00  0.00    +0.149 HD
BRANCH  16  18
ATOM     18  S   UNL     1       0.105   6.298   0.068  0.00  0.00    +0.059 S 
ATOM     19  O   UNL     1      -1.157   6.710   0.576  0.00  0.00    -0.153 OA
ATOM     20  O   UNL     1       1.319   6.942   0.430  0.00  0.00    -0.153 OA
BRANCH  18  26
ATOM     21  C   UNL     1      -1.903   1.636   1.316  0.00  0.00    +0.044 C 
ATOM     22  C   UNL     1      -0.684   2.486   1.063  0.00  0.00    -0.049 A 
ATOM     23  C   UNL     1       0.579   1.932   1.166  0.00  0.00    +0.003 A 
ATOM     24  C   UNL     1       1.696   2.710   0.928  0.00  0.00    +0.002 A 
ATOM     25  C   UNL     1       1.551   4.044   0.593  0.00  0.00    +0.028 A 
ATOM     26  C   UNL     1       0.289   4.599   0.495  0.00  0.00    +0.106 A 
ATOM     27  C   UNL     1      -0.829   3.820   0.733  0.00  0.00    +0.032 A 
ENDBRANCH  18  26
ENDBRANCH  16  18
ENDBRANCH   1  16
BRANCH   1  28
ATOM     28  C   UNL     1      -2.199   6.851  -2.544  0.00  0.00    +0.067 C 
BRANCH  28  29
ATOM     29  C   UNL     1      -1.583   7.973  -3.340  0.00  0.00    -0.020 A 
ATOM     30  C   UNL     1      -1.036   9.095  -2.848  0.00  0.00    +0.087 A 
ATOM     31  N   UNL     1      -0.579   9.879  -3.872  0.00  0.00    -0.360 N 
ATOM     32  H   UNL     1      -0.143  10.739  -3.763  0.00  0.00    +0.165 HD
ATOM     33  C   UNL     1      -0.834   9.269  -5.079  0.00  0.00    +0.047 A 
ATOM     34  C   UNL     1      -1.475   8.048  -4.799  0.00  0.00    +0.003 A 
ATOM     35  C   UNL     1      -1.856   7.206  -5.845  0.00  0.00    +0.010 A 
ATOM     36  C   UNL     1      -1.605   7.572  -7.137  0.00  0.00    +0.001 A 
ATOM     37  C   UNL     1      -0.973   8.776  -7.419  0.00  0.00    +0.002 A 
ATOM     38  C   UNL     1      -0.588   9.622  -6.402  0.00  0.00    +0.026 A 
ENDBRANCH  28  29
ENDBRANCH   1  28
TORSDOF 7
