REMARK  Name = ZINC04732531
REMARK  9 active torsions:
REMARK  status: ('A' for Active; 'I' for Inactive)
REMARK    1  A    between atoms: C_1  and  C_2
REMARK    2  A    between atoms: C_2  and  C_3
REMARK    3  A    between atoms: C_2  and  N_4
REMARK    4  A    between atoms: N_7  and  C_8
REMARK    5  A    between atoms: N_7  and  O_25
REMARK    6  A    between atoms: C_10  and  C_23
REMARK    7  A    between atoms: C_10  and  C_24
REMARK    8  A    between atoms: N_14  and  C_15
REMARK    9  A    between atoms: C_15  and  C_16
REMARK                            x       y       z     vdW  Elec       q    Type
REMARK                         _______ _______ _______ _____ _____    ______ ____
ROOT
ATOM      1  C   UNL     1      -1.576   3.641   2.476  0.00  0.00    +0.210 C 
ATOM      2  C   UNL     1      -2.327   3.898   3.798  0.00  0.00    +0.054 C 
ATOM      3  S   UNL     1      -3.026   2.235   4.127  0.00  0.00    -0.093 S 
ATOM      4  C   UNL     1      -2.396   1.372   2.701  0.00  0.00    +0.112 C 
ATOM      5  S   UNL     1      -2.641  -0.273   2.297  0.00  0.00    -0.028 S 
ATOM      6  N   UNL     1      -1.689   2.278   2.010  0.00  0.00    -0.293 N 
ATOM      7  C   UNL     1      -1.362   4.320   4.908  0.00  0.00    +0.026 C 
ATOM      8  C   UNL     1      -3.436   4.935   3.611  0.00  0.00    +0.026 C 
ENDROOT
BRANCH   1  12
ATOM      9  N   UNL     1       1.723   5.223   2.129  0.00  0.00    -0.295 N 
ATOM     10  C   UNL     1       0.398   4.998   2.029  0.00  0.00    +0.327 C 
ATOM     11  O   UNL     1      -0.295   5.737   1.357  0.00  0.00    -0.250 OA
ATOM     12  N   UNL     1      -0.159   3.954   2.675  0.00  0.00    -0.145 N 
ATOM     13  H   UNL     1       2.288   4.594   2.604  0.00  0.00    +0.151 HD
BRANCH   9  15
ATOM     14  C   UNL     1       2.249   7.581   2.511  0.00  0.00    +0.027 C 
ATOM     15  C   UNL     1       2.311   6.418   1.518  0.00  0.00    +0.068 C 
ATOM     16  C   UNL     1       3.770   6.138   1.151  0.00  0.00    +0.027 C 
ENDBRANCH   9  15
BRANCH  12  17
ATOM     17  O   UNL     1       0.626   3.160   3.545  0.00  0.00    -0.290 OA
ATOM     18  H   UNL     1       1.564   3.397   3.556  0.00  0.00    +0.242 HD
ENDBRANCH  12  17
ENDBRANCH   1  12
BRANCH   6  19
ATOM     19  C   UNL     1      -1.028   1.883   0.764  0.00  0.00    +0.143 C 
BRANCH  19  20
ATOM     20  C   UNL     1       0.348   1.350   1.073  0.00  0.00    -0.030 A 
ATOM     21  C   UNL     1       1.449   2.180   0.969  0.00  0.00    +0.008 A 
ATOM     22  C   UNL     1       2.711   1.692   1.246  0.00  0.00    +0.038 A 
ATOM     23  C   UNL     1       2.874   0.371   1.628  0.00  0.00    +0.123 A 
ATOM     24  C   UNL     1       1.770  -0.460   1.732  0.00  0.00    +0.038 A 
ATOM     25  C   UNL     1       0.509   0.031   1.454  0.00  0.00    +0.008 A 
ATOM     26  F   UNL     1       4.107  -0.108   1.900  0.00  0.00    -0.205 F 
ENDBRANCH  19  20
ENDBRANCH   6  19
TORSDOF 5
