REMARK  Name = ZINC20650129
REMARK  8 active torsions:
REMARK  status: ('A' for Active; 'I' for Inactive)
REMARK    1  A    between atoms: C_1  and  C_2
REMARK    2  A    between atoms: C_3  and  C_25
REMARK    3  A    between atoms: C_11  and  O_24
REMARK    4  A    between atoms: C_12  and  C_13
REMARK    5  A    between atoms: C_13  and  N_14
REMARK    6  A    between atoms: N_14  and  C_15
REMARK    7  A    between atoms: C_15  and  C_16
REMARK    8  A    between atoms: C_16  and  C_17
REMARK                            x       y       z     vdW  Elec       q    Type
REMARK                         _______ _______ _______ _____ _____    ______ ____
ROOT
ATOM      1  C   UNL     1      -2.864   1.544  -0.023  0.00  0.00    +0.045 C 
ATOM      2  C   UNL     1      -2.059   1.786   1.228  0.00  0.00    -0.030 A 
ATOM      3  C   UNL     1      -0.718   1.572   1.248  0.00  0.00    +0.037 A 
ATOM      4  C   UNL     1       0.013   1.811   2.429  0.00  0.00    +0.340 A 
ATOM      5  O   UNL     1       1.216   1.619   2.432  0.00  0.00    -0.245 OA
ATOM      6  O   UNL     1      -0.582   2.244   3.552  0.00  0.00    -0.422 OA
ATOM      7  C   UNL     1      -1.912   2.472   3.601  0.00  0.00    +0.147 A 
ATOM      8  C   UNL     1      -2.703   2.254   2.458  0.00  0.00    +0.021 A 
ATOM      9  C   UNL     1      -4.082   2.490   2.505  0.00  0.00    +0.015 A 
ATOM     10  C   UNL     1      -4.655   2.930   3.662  0.00  0.00    +0.046 A 
ATOM     11  C   UNL     1      -3.877   3.147   4.798  0.00  0.00    +0.125 A 
ATOM     12  C   UNL     1      -2.511   2.920   4.769  0.00  0.00    +0.051 A 
ATOM     13  C   UNL     1      -0.013   1.086   0.008  0.00  0.00    +0.051 C 
ENDROOT
BRANCH  11  14
ATOM     14  O   UNL     1      -4.463   3.585   5.941  0.00  0.00    -0.506 OA
ATOM     15  H   UNL     1      -3.853   3.758   6.840  0.00  0.00    +0.292 HD
ENDBRANCH  11  14
BRANCH  12  16
ATOM     16  C   UNL     1      -1.679   3.157   6.002  0.00  0.00    +0.123 C 
BRANCH  16  17
ATOM     17  N   UNL     1      -1.198   4.545   6.009  0.00  0.00    -0.311 NA
ATOM     18  H   UNL     1      -0.585   4.725   5.113  0.00  0.00    +0.122 HD
BRANCH  17  19
ATOM     19  C   UNL     1      -0.381   4.814   7.200  0.00  0.00    +0.086 C 
BRANCH  19  20
ATOM     20  C   UNL     1       0.101   6.266   7.171  0.00  0.00    +0.050 C 
BRANCH  20  21
ATOM     21  C   UNL     1       0.939   6.542   8.393  0.00  0.00    -0.046 A 
ATOM     22  C   UNL     1       0.342   7.011   9.548  0.00  0.00    +0.005 A 
ATOM     23  C   UNL     1       1.109   7.258  10.671  0.00  0.00    +0.020 A 
ATOM     24  C   UNL     1       2.476   7.047  10.634  0.00  0.00    +0.041 A 
ATOM     25  C   UNL     1       3.074   6.583   9.476  0.00  0.00    +0.020 A 
ATOM     26  C   UNL     1       2.304   6.330   8.356  0.00  0.00    +0.005 A 
ATOM     27 CL   UNL     1       3.442   7.364  12.042  0.00  0.00    -0.084 Cl
ENDBRANCH  20  21
ENDBRANCH  19  20
ENDBRANCH  17  19
ENDBRANCH  16  17
ENDBRANCH  12  16
TORSDOF 6
