REMARK  Name = ZINC01952003
REMARK  8 active torsions:
REMARK  status: ('A' for Active; 'I' for Inactive)
REMARK    1  A    between atoms: C_1  and  C_2
REMARK    2  A    between atoms: C_10  and  O_18
REMARK    3  A    between atoms: C_11  and  C_13
REMARK    4  A    between atoms: O_18  and  C_19
REMARK    5  A    between atoms: C_19  and  C_20
REMARK    6  A    between atoms: N_22  and  C_23
REMARK    7  A    between atoms: C_27  and  C_30
REMARK    8  A    between atoms: C_28  and  C_29
REMARK                            x       y       z     vdW  Elec       q    Type
REMARK                         _______ _______ _______ _____ _____    ______ ____
ROOT
ATOM      1  C   UNL     1       8.124  -1.695  -0.089  0.00  0.00    +0.044 C 
ATOM      2  C   UNL     1       6.705  -1.187  -0.070  0.00  0.00    -0.050 A 
ATOM      3  C   UNL     1       5.649  -2.087  -0.061  0.00  0.00    +0.007 A 
ATOM      4  C   UNL     1       4.345  -1.641  -0.044  0.00  0.00    +0.047 A 
ATOM      5  C   UNL     1       4.078  -0.277  -0.035  0.00  0.00    +0.140 A 
ATOM      6  C   UNL     1       5.147   0.633  -0.044  0.00  0.00    +0.068 A 
ATOM      7  C   UNL     1       6.462   0.169  -0.061  0.00  0.00    +0.018 A 
ATOM      8  C   UNL     1       4.847   2.078  -0.035  0.00  0.00    +0.235 A 
ATOM      9  O   UNL     1       5.740   2.910  -0.042  0.00  0.00    -0.283 OA
ATOM     10  C   UNL     1       3.486   2.461  -0.017  0.00  0.00    +0.214 A 
ATOM     11  C   UNL     1       2.510   1.487  -0.009  0.00  0.00    +0.216 A 
ATOM     12  O   UNL     1       2.807   0.176  -0.013  0.00  0.00    -0.448 OA
ENDROOT
BRANCH  11  13
ATOM     13  C   UNL     1       1.103   1.895   0.009  0.00  0.00    +0.173 A 
ATOM     14  C   UNL     1       0.024   1.056   0.019  0.00  0.00    +0.053 A 
ATOM     15  C   UNL     1      -1.120   1.870   0.030  0.00  0.00    +0.042 A 
ATOM     16  C   UNL     1      -0.696   3.152   0.036  0.00  0.00    +0.196 A 
ATOM     17  O   UNL     1       0.645   3.163   0.020  0.00  0.00    -0.460 OA
ENDBRANCH  11  13
BRANCH  10  18
ATOM     18  O   UNL     1       3.143   3.778  -0.008  0.00  0.00    -0.476 OA
BRANCH  18  19
ATOM     19  C   UNL     1       2.994   4.401   1.270  0.00  0.00    +0.325 C 
BRANCH  19  20
ATOM     20  C   UNL     1       2.615   5.848   1.082  0.00  0.00    +0.255 C 
ATOM     21  O   UNL     1       2.485   6.301  -0.035  0.00  0.00    -0.272 OA
ATOM     22  N   UNL     1       2.421   6.638   2.156  0.00  0.00    -0.282 N 
ATOM     23  H   UNL     1       2.445   6.258   3.049  0.00  0.00    +0.155 HD
BRANCH  22  24
ATOM     24  C   UNL     1       2.183   8.006   1.984  0.00  0.00    +0.037 A 
ATOM     25  C   UNL     1       2.635   8.653   0.842  0.00  0.00    +0.023 A 
ATOM     26  C   UNL     1       2.399  10.003   0.675  0.00  0.00    +0.002 A 
ATOM     27  C   UNL     1       1.712  10.711   1.645  0.00  0.00    +0.004 A 
ATOM     28  C   UNL     1       1.260  10.070   2.783  0.00  0.00    -0.046 A 
ATOM     29  C   UNL     1       1.488   8.719   2.953  0.00  0.00    -0.026 A 
ATOM     30  C   UNL     1       0.990   8.019   4.191  0.00  0.00    +0.046 C 
ATOM     31  C   UNL     1       0.513  10.846   3.837  0.00  0.00    +0.044 C 
ENDBRANCH  22  24
ENDBRANCH  19  20
ENDBRANCH  18  19
ENDBRANCH  10  18
TORSDOF 5
