REMARK  Name = ZINC67287578
REMARK  8 active torsions:
REMARK  status: ('A' for Active; 'I' for Inactive)
REMARK    1  A    between atoms: C_1  and  C_2
REMARK    2  A    between atoms: C_5  and  C_26
REMARK    3  A    between atoms: N_6  and  C_7
REMARK    4  A    between atoms: C_7  and  C_9
REMARK    5  A    between atoms: C_7  and  C_10
REMARK    6  A    between atoms: N_12  and  N_13
REMARK    7  A    between atoms: C_14  and  C_16
REMARK    8  A    between atoms: C_17  and  C_25
REMARK                            x       y       z     vdW  Elec       q    Type
REMARK                         _______ _______ _______ _____ _____    ______ ____
ROOT
ATOM      1  N   UNL     1      -2.523  -1.093   5.163  0.00  0.00    -0.228 N 
ATOM      2  C   UNL     1      -2.729  -0.800   6.463  0.00  0.00    +0.296 C 
ATOM      3  O   UNL     1      -1.933  -0.103   7.062  0.00  0.00    -0.265 OA
ATOM      4  H   UNL     1      -3.159  -1.649   4.685  0.00  0.00    +0.173 HD
ENDROOT
BRANCH   2   5
ATOM      5  C   UNL     1      -3.916  -1.323   7.155  0.00  0.00    +0.195 A 
ATOM      6  C   UNL     1      -4.227  -1.089   8.456  0.00  0.00    +0.008 A 
ATOM      7  C   UNL     1      -5.481  -1.800   8.706  0.00  0.00    +0.024 A 
ATOM      8  C   UNL     1      -6.306  -1.954   9.822  0.00  0.00    +0.012 A 
ATOM      9  C   UNL     1      -7.443  -2.707   9.725  0.00  0.00    +0.001 A 
ATOM     10  C   UNL     1      -7.781  -3.318   8.525  0.00  0.00    +0.004 A 
ATOM     11  C   UNL     1      -6.979  -3.179   7.413  0.00  0.00    +0.047 A 
ATOM     12  C   UNL     1      -5.818  -2.418   7.488  0.00  0.00    +0.136 A 
ATOM     13  O   UNL     1      -4.863  -2.102   6.592  0.00  0.00    -0.450 OA
ATOM     14  C   UNL     1      -3.441  -0.265   9.442  0.00  0.00    +0.048 C 
ENDBRANCH   2   5
BRANCH   1  17
ATOM     15  C   UNL     1      -1.187  -0.888   3.204  0.00  0.00    +0.252 C 
ATOM     16  O   UNL     1      -1.981  -1.583   2.606  0.00  0.00    -0.272 OA
ATOM     17  N   UNL     1      -1.393  -0.595   4.503  0.00  0.00    -0.232 N 
ATOM     18  H   UNL     1      -0.757  -0.039   4.982  0.00  0.00    +0.173 HD
BRANCH  15  19
ATOM     19  C   UNL     1       0.030  -0.352   2.494  0.00  0.00    +0.171 C 
ATOM     20  C   UNL     1       1.293  -0.861   3.192  0.00  0.00    +0.041 C 
BRANCH  19  26
ATOM     21  C   UNL     1      -0.018   1.503   0.010  0.00  0.00    +0.063 C 
ATOM     22  C   UNL     1       0.002  -0.004   0.002  0.00  0.00    +0.017 A 
ATOM     23  C   UNL     1       0.008  -0.789  -1.095  0.00  0.00    +0.023 A 
ATOM     24  C   UNL     1       0.029  -2.127  -0.656  0.00  0.00    +0.023 A 
ATOM     25  C   UNL     1       0.035  -2.110   0.693  0.00  0.00    +0.017 A 
ATOM     26  N   UNL     1       0.024  -0.809   1.102  0.00  0.00    -0.337 N 
ATOM     27  C   UNL     1       0.055  -3.319   1.592  0.00  0.00    +0.063 C 
ENDBRANCH  19  26
ENDBRANCH  15  19
ENDBRANCH   1  17
TORSDOF 4
