REMARK  Name = ZINC63907401
REMARK  9 active torsions:
REMARK  status: ('A' for Active; 'I' for Inactive)
REMARK    1  A    between atoms: C_1  and  C_2
REMARK    2  A    between atoms: C_2  and  C_4
REMARK    3  A    between atoms: C_2  and  N_12
REMARK    4  A    between atoms: C_4  and  C_5
REMARK    5  A    between atoms: C_5  and  C_6
REMARK    6  A    between atoms: C_13  and  C_15
REMARK    7  A    between atoms: C_15  and  N_16
REMARK    8  A    between atoms: C_19  and  C_24
REMARK    9  A    between atoms: C_24  and  C_25
REMARK                            x       y       z     vdW  Elec       q    Type
REMARK                         _______ _______ _______ _____ _____    ______ ____
ROOT
ATOM      1  N   UNL     1       4.223  -1.127   2.126  0.00  0.00    -0.216 N 
ATOM      2  C   UNL     1       4.875  -2.187   1.609  0.00  0.00    +0.244 C 
ATOM      3  O   UNL     1       4.400  -3.255   1.289  0.00  0.00    -0.273 OA
ATOM      4  C   UNL     1       6.328  -1.764   1.508  0.00  0.00    +0.165 C 
ATOM      5  N   UNL     1       6.324  -0.386   2.029  0.00  0.00    -0.287 N 
ATOM      6  C   UNL     1       5.051  -0.103   2.359  0.00  0.00    +0.310 C 
ATOM      7  O   UNL     1       4.694   0.963   2.821  0.00  0.00    -0.252 OA
ATOM      8  H   UNL     1       7.090   0.203   2.115  0.00  0.00    +0.151 HD
ENDROOT
BRANCH   1   9
ATOM      9  C   UNL     1       2.783  -1.099   2.395  0.00  0.00    +0.213 C 
BRANCH   9  11
ATOM     10  N   UNL     1       0.711  -0.489   1.189  0.00  0.00    -0.311 N 
ATOM     11  C   UNL     1       2.054  -0.600   1.174  0.00  0.00    +0.231 C 
ATOM     12  O   UNL     1       2.676  -0.297   0.177  0.00  0.00    -0.274 OA
ATOM     13  H   UNL     1       0.213  -0.731   1.986  0.00  0.00    +0.149 HD
BRANCH  10  15
ATOM     14  C   UNL     1      -0.019   1.526   0.010  0.00  0.00    +0.028 C 
ATOM     15  C   UNL     1       0.002  -0.004   0.002  0.00  0.00    +0.070 C 
BRANCH  15  16
ATOM     16  C   UNL     1      -1.433  -0.534   0.013  0.00  0.00    +0.026 C 
BRANCH  16  17
ATOM     17  C   UNL     1      -1.416  -2.058  -0.121  0.00  0.00    +0.037 C 
BRANCH  17  18
ATOM     18  C   UNL     1      -2.829  -2.579  -0.111  0.00  0.00    -0.047 A 
ATOM     19  C   UNL     1      -3.432  -2.917   1.087  0.00  0.00    +0.003 A 
ATOM     20  C   UNL     1      -4.729  -3.396   1.096  0.00  0.00    +0.000 A 
ATOM     21  C   UNL     1      -5.423  -3.536  -0.091  0.00  0.00    +0.000 A 
ATOM     22  C   UNL     1      -4.821  -3.197  -1.288  0.00  0.00    +0.000 A 
ATOM     23  C   UNL     1      -3.525  -2.714  -1.297  0.00  0.00    +0.003 A 
ENDBRANCH  17  18
ENDBRANCH  16  17
ENDBRANCH  15  16
ENDBRANCH  10  15
ENDBRANCH   9  11
ENDBRANCH   1   9
BRANCH   4  24
ATOM     24  C   UNL     1       7.212  -2.666   2.369  0.00  0.00    +0.065 C 
BRANCH  24  25
ATOM     25  C   UNL     1       8.659  -2.303   2.156  0.00  0.00    -0.039 C 
ATOM     26  C   UNL     1       9.408  -1.468   2.911  0.00  0.00    -0.001 A 
ATOM     27  C   UNL     1       9.110  -0.675   4.111  0.00  0.00    +0.010 A 
ATOM     28  C   UNL     1      10.088   0.085   4.654  0.00  0.00    +0.001 A 
ATOM     29  C   UNL     1      11.375   0.136   4.101  0.00  0.00    +0.002 A 
ATOM     30  C   UNL     1      11.724  -0.563   3.001  0.00  0.00    +0.026 A 
ATOM     31  C   UNL     1      10.775  -1.397   2.347  0.00  0.00    +0.043 A 
ATOM     32  N   UNL     1      10.868  -2.159   1.285  0.00  0.00    -0.380 N 
ATOM     33  C   UNL     1       9.570  -2.805   1.058  0.00  0.00    +0.144 C 
ATOM     34  H   UNL     1      11.662  -2.279   0.742  0.00  0.00    +0.160 HD
ENDBRANCH  24  25
ENDBRANCH   4  24
TORSDOF 8
