REMARK  Name = ZINC67556185
REMARK  5 active torsions:
REMARK  status: ('A' for Active; 'I' for Inactive)
REMARK    1  A    between atoms: C_1  and  C_2
REMARK    2  A    between atoms: C_7  and  C_10
REMARK    3  A    between atoms: N_18  and  C_19
REMARK    4  A    between atoms: C_22  and  S_25
REMARK    5  A    between atoms: S_25  and  C_26
REMARK                            x       y       z     vdW  Elec       q    Type
REMARK                         _______ _______ _______ _____ _____    ______ ____
ROOT
ATOM      1  C   UNL     1       0.414   2.216   1.384  0.00  0.00    +0.039 C 
ATOM      2  C   UNL     1       0.421   0.856   0.683  0.00  0.00    +0.133 C 
ATOM      3  C   UNL     1      -0.998   0.514   0.215  0.00  0.00    +0.140 C 
ATOM      4  N   UNL     1      -1.836   0.286   1.403  0.00  0.00    -0.280 N 
ATOM      5  C   UNL     1      -1.341  -0.642   2.432  0.00  0.00    +0.145 C 
ATOM      6  C   UNL     1       0.095  -0.244   2.791  0.00  0.00    +0.166 C 
ATOM      7  O   UNL     1       0.873  -0.149   1.594  0.00  0.00    -0.366 OA
ATOM      8  C   UNL     1      -3.022   0.910   1.545  0.00  0.00    +0.307 C 
ATOM      9  O   UNL     1      -3.370   1.747   0.735  0.00  0.00    -0.252 OA
ATOM     10  N   UNL     1      -3.823   0.607   2.586  0.00  0.00    -0.269 N 
ATOM     11  H   UNL     1      -3.505   0.017   3.287  0.00  0.00    +0.156 HD
ENDROOT
BRANCH   6  12
ATOM     12  C   UNL     1       0.694  -1.286   3.700  0.00  0.00    -0.017 A 
ATOM     13  C   UNL     1       1.289  -2.412   3.162  0.00  0.00    +0.006 A 
ATOM     14  C   UNL     1       1.838  -3.369   3.996  0.00  0.00    +0.000 A 
ATOM     15  C   UNL     1       1.794  -3.198   5.367  0.00  0.00    +0.000 A 
ATOM     16  C   UNL     1       1.200  -2.072   5.904  0.00  0.00    +0.000 A 
ATOM     17  C   UNL     1       0.654  -1.113   5.071  0.00  0.00    +0.006 A 
ENDBRANCH   6  12
BRANCH  10  18
ATOM     18  C   UNL     1      -5.116   1.144   2.655  0.00  0.00    +0.035 A 
ATOM     19  C   UNL     1      -5.840   1.364   1.491  0.00  0.00    +0.024 A 
ATOM     20  C   UNL     1      -7.113   1.892   1.558  0.00  0.00    +0.017 A 
ATOM     21  C   UNL     1      -7.671   2.204   2.792  0.00  0.00    +0.013 A 
ATOM     22  C   UNL     1      -6.947   1.983   3.957  0.00  0.00    +0.017 A 
ATOM     23  C   UNL     1      -5.675   1.450   3.889  0.00  0.00    +0.024 A 
BRANCH  21  24
ATOM     24  S   UNL     1      -9.296   2.879   2.880  0.00  0.00    -0.056 S 
BRANCH  24  25
ATOM     25  C   UNL     1      -9.579   3.113   4.656  0.00  0.00    +0.404 C 
ATOM     26  F   UNL     1      -9.485   1.880   5.310  0.00  0.00    -0.197 F 
ATOM     27  F   UNL     1      -8.617   3.988   5.170  0.00  0.00    -0.197 F 
ENDBRANCH  24  25
ENDBRANCH  21  24
ENDBRANCH  10  18
TORSDOF 4
