REMARK  Name = ZINC63653102
REMARK  4 active torsions:
REMARK  status: ('A' for Active; 'I' for Inactive)
REMARK    1  A    between atoms: C_1  and  C_2
REMARK    2  A    between atoms: C_4  and  C_8
REMARK    3  A    between atoms: C_11  and  S_13
REMARK    4  A    between atoms: S_13  and  N_16
REMARK                            x       y       z     vdW  Elec       q    Type
REMARK                         _______ _______ _______ _____ _____    ______ ____
ROOT
ATOM      1  S   UNL     1      -1.405  -4.593   5.328  0.00  0.00    +0.067 S 
ATOM      2  O   UNL     1      -0.803  -3.565   6.103  0.00  0.00    -0.152 OA
ATOM      3  O   UNL     1      -2.724  -5.060   5.575  0.00  0.00    -0.152 OA
ENDROOT
BRANCH   1   4
ATOM      4  N   UNL     1      -0.408  -5.911   5.433  0.00  0.00    -0.171 NA
ATOM      5  C   UNL     1      -0.916  -7.274   5.209  0.00  0.00    +0.114 C 
ATOM      6  C   UNL     1      -0.224  -7.835   3.967  0.00  0.00    +0.052 C 
ATOM      7  C   UNL     1       1.262  -7.600   4.030  0.00  0.00    -0.042 A 
ATOM      8  C   UNL     1       2.075  -8.394   3.229  0.00  0.00    +0.004 A 
ATOM      9  C   UNL     1       3.443  -8.224   3.231  0.00  0.00    +0.000 A 
ATOM     10  C   UNL     1       4.015  -7.255   4.035  0.00  0.00    +0.000 A 
ATOM     11  C   UNL     1       3.211  -6.468   4.834  0.00  0.00    +0.005 A 
ATOM     12  C   UNL     1       1.834  -6.642   4.837  0.00  0.00    -0.028 A 
ATOM     13  C   UNL     1       1.017  -5.766   5.747  0.00  0.00    +0.144 C 
ENDBRANCH   1   4
BRANCH   1  17
ATOM     14  C   UNL     1      -0.958  -2.939   1.229  0.00  0.00    +0.022 A 
ATOM     15  C   UNL     1      -1.955  -3.845   1.376  0.00  0.00    +0.016 A 
ATOM     16  C   UNL     1      -2.167  -4.413   2.619  0.00  0.00    +0.037 A 
ATOM     17  C   UNL     1      -1.371  -4.046   3.653  0.00  0.00    +0.143 A 
ATOM     18  S   UNL     1      -0.275  -2.869   2.877  0.00  0.00    -0.071 S 
BRANCH  14  22
ATOM     19  C   UNL     1      -0.018   1.503   0.010  0.00  0.00    +0.067 C 
ATOM     20  C   UNL     1       0.002  -0.004   0.002  0.00  0.00    +0.059 C 
ATOM     21  C   UNL     1      -1.086  -0.777   0.003  0.00  0.00    +0.031 C 
ATOM     22  C   UNL     1      -0.531  -2.190  -0.007  0.00  0.00    +0.189 C 
ATOM     23  N   UNL     1       0.926  -1.973  -0.013  0.00  0.00    -0.175 NA
ATOM     24  N   UNL     1       1.125  -0.756  -0.013  0.00  0.00    -0.159 NA
ENDBRANCH  14  22
ENDBRANCH   1  17
TORSDOF 3
