REMARK  Name = ZINC67332343
REMARK  8 active torsions:
REMARK  status: ('A' for Active; 'I' for Inactive)
REMARK    1  A    between atoms: C_4  and  C_7
REMARK    2  A    between atoms: C_7  and  C_8
REMARK    3  A    between atoms: C_8  and  C_10
REMARK    4  A    between atoms: C_8  and  N_27
REMARK    5  A    between atoms: N_12  and  C_13
REMARK    6  A    between atoms: C_13  and  C_14
REMARK    7  A    between atoms: N_19  and  C_20
REMARK    8  A    between atoms: C_20  and  C_21
REMARK                            x       y       z     vdW  Elec       q    Type
REMARK                         _______ _______ _______ _____ _____    ______ ____
ROOT
ATOM      1  C   UNL     1       5.194  -1.314   1.226  0.00  0.00    +0.234 C 
ATOM      2  O   UNL     1       5.205  -2.517   1.382  0.00  0.00    -0.274 OA
ATOM      3  N   UNL     1       6.354  -0.639   1.109  0.00  0.00    -0.315 N 
ATOM      4  H   UNL     1       6.346   0.323   0.985  0.00  0.00    +0.149 HD
ENDROOT
BRANCH   1   5
ATOM      5  C   UNL     1       3.882  -0.575   1.164  0.00  0.00    +0.165 C 
BRANCH   5   6
ATOM      6  N   UNL     1       2.831  -1.393   1.774  0.00  0.00    -0.288 N 
ATOM      7  C   UNL     1       2.544  -2.608   1.267  0.00  0.00    +0.298 C 
ATOM      8  O   UNL     1       3.157  -3.026   0.303  0.00  0.00    -0.253 OA
ATOM      9  N   UNL     1       1.577  -3.361   1.828  0.00  0.00    -0.313 N 
ATOM     10  H   UNL     1       2.342  -1.060   2.542  0.00  0.00    +0.151 HD
ATOM     11  H   UNL     1       1.087  -3.028   2.596  0.00  0.00    +0.146 HD
ATOM     12  H   UNL     1       1.370  -4.236   1.463  0.00  0.00    +0.146 HD
ENDBRANCH   5   6
BRANCH   5  13
ATOM     13  C   UNL     1       3.525  -0.291  -0.296  0.00  0.00    +0.067 C 
BRANCH  13  17
ATOM     14  C   UNL     1      -0.008   2.104  -0.462  0.00  0.00    +0.000 A 
ATOM     15  C   UNL     1       1.234   2.708  -0.405  0.00  0.00    +0.000 A 
ATOM     16  C   UNL     1       2.378   1.933  -0.351  0.00  0.00    +0.004 A 
ATOM     17  C   UNL     1       2.279   0.554  -0.354  0.00  0.00    -0.045 A 
ATOM     18  C   UNL     1       1.037  -0.050  -0.409  0.00  0.00    +0.004 A 
ATOM     19  C   UNL     1      -0.107   0.725  -0.464  0.00  0.00    +0.000 A 
ENDBRANCH  13  17
ENDBRANCH   5  13
ENDBRANCH   1   5
BRANCH   3  20
ATOM     20  C   UNL     1       7.630  -1.358   1.169  0.00  0.00    +0.089 C 
BRANCH  20  21
ATOM     21  C   UNL     1       8.783  -0.365   1.011  0.00  0.00    -0.051 C 
ATOM     22  C   UNL     1      10.120  -1.127   0.904  0.00  0.00    -0.016 C 
ATOM     23  C   UNL     1      10.361  -1.196  -0.627  0.00  0.00    -0.020 C 
ATOM     24  C   UNL     1       9.797   0.169  -1.095  0.00  0.00    -0.078 C 
ATOM     25  N   UNL     1       8.614   0.405  -0.235  0.00  0.00    +0.383 N 
ATOM     26  H   UNL     1       7.779   0.100  -0.712  0.00  0.00    -0.081 HD
BRANCH  25  27
ATOM     27  C   UNL     1       8.506   1.836   0.080  0.00  0.00    -0.075 C 
BRANCH  27  28
ATOM     28  C   UNL     1       8.192   2.617  -1.198  0.00  0.00    -0.028 C 
ATOM     29  C   UNL     1       8.218   4.117  -0.898  0.00  0.00    +0.002 C 
ATOM     30  C   UNL     1       7.904   4.898  -2.176  0.00  0.00    +0.000 C 
ATOM     31  C   UNL     1       6.517   4.504  -2.687  0.00  0.00    +0.000 C 
ATOM     32  C   UNL     1       6.492   3.004  -2.987  0.00  0.00    +0.000 C 
ATOM     33  C   UNL     1       6.805   2.223  -1.709  0.00  0.00    +0.002 C 
ENDBRANCH  27  28
ENDBRANCH  25  27
ENDBRANCH  20  21
ENDBRANCH   3  20
TORSDOF 8
