REMARK  Name = ZINC43212262
REMARK  10 active torsions:
REMARK  status: ('A' for Active; 'I' for Inactive)
REMARK    1  A    between atoms: C_1  and  C_2
REMARK    2  A    between atoms: C_3  and  C_15
REMARK    3  A    between atoms: N_6  and  C_9
REMARK    4  A    between atoms: N_7  and  C_8
REMARK    5  A    between atoms: N_23  and  C_26
REMARK    6  A    between atoms: C_32  and  C_34
REMARK    7  A    between atoms: C_32  and  C_38
REMARK    8  A    between atoms: C_34  and  C_35
REMARK    9  A    between atoms: C_35  and  C_36
REMARK   10  A    between atoms: C_35  and  C_37
REMARK                            x       y       z     vdW  Elec       q    Type
REMARK                         _______ _______ _______ _____ _____    ______ ____
ROOT
ATOM      1  C   UNL     1      -1.550  -1.091   0.178  0.00  0.00    -0.020 C 
ATOM      2  C   UNL     1      -2.099  -1.141   1.594  0.00  0.00    +0.077 C 
ATOM      3  C   UNL     1      -3.076  -2.366   1.422  0.00  0.00    +0.086 C 
ATOM      4  C   UNL     1      -3.340  -2.724   2.793  0.00  0.00    +0.225 C 
ATOM      5  O   UNL     1      -4.369  -3.168   3.255  0.00  0.00    -0.275 OA
ATOM      6  N   UNL     1      -2.171  -2.456   3.463  0.00  0.00    -0.239 N 
ATOM      7  C   UNL     1      -1.292  -1.695   2.726  0.00  0.00    +0.225 C 
ATOM      8  O   UNL     1      -0.112  -1.514   2.940  0.00  0.00    -0.275 OA
ATOM      9  C   UNL     1      -3.798  -2.010   0.189  0.00  0.00    +0.048 C 
ATOM     10  N   UNL     1      -2.673  -1.528  -0.705  0.00  0.00    +0.396 N 
ATOM     11  H   UNL     1      -2.993  -0.750  -1.262  0.00  0.00    -0.083 HD
ATOM     12  H   UNL     1      -2.362  -2.276  -1.308  0.00  0.00    -0.083 HD
ENDROOT
BRANCH   1  15
ATOM     13  C   UNL     1       1.455  -0.273   0.121  0.00  0.00    +0.065 C 
ATOM     14  C   UNL     1       0.921  -1.678   0.015  0.00  0.00    +0.040 A 
ATOM     15  C   UNL     1      -0.380  -2.031   0.039  0.00  0.00    +0.026 A 
ATOM     16  C   UNL     1      -0.456  -3.438  -0.088  0.00  0.00    +0.274 A 
ATOM     17  O   UNL     1      -1.476  -4.104  -0.105  0.00  0.00    -0.266 OA
ATOM     18  N   UNL     1       0.804  -3.908  -0.187  0.00  0.00    -0.217 N 
ATOM     19  N   UNL     1       1.673  -2.810  -0.129  0.00  0.00    -0.284 N 
ATOM     20  C   UNL     1       3.135  -2.866  -0.206  0.00  0.00    +0.171 C 
BRANCH  18  21
ATOM     21  C   UNL     1       1.176  -5.248  -0.327  0.00  0.00    +0.067 A 
ATOM     22  C   UNL     1       2.186  -5.777   0.467  0.00  0.00    +0.028 A 
ATOM     23  C   UNL     1       2.551  -7.101   0.326  0.00  0.00    +0.002 A 
ATOM     24  C   UNL     1       1.912  -7.901  -0.604  0.00  0.00    +0.000 A 
ATOM     25  C   UNL     1       0.907  -7.378  -1.396  0.00  0.00    +0.002 A 
ATOM     26  C   UNL     1       0.533  -6.055  -1.257  0.00  0.00    +0.028 A 
ENDBRANCH  18  21
ENDBRANCH   1  15
BRANCH   6  27
ATOM     27  C   UNL     1      -1.892  -2.919   4.825  0.00  0.00    +0.084 C 
ATOM     28  C   UNL     1      -1.653  -1.712   5.735  0.00  0.00    +0.023 C 
ATOM     29  C   UNL     1      -1.362  -2.196   7.157  0.00  0.00    +0.002 C 
ATOM     30  C   UNL     1      -0.115  -3.083   7.148  0.00  0.00    +0.000 C 
ATOM     31  C   UNL     1      -0.354  -4.289   6.239  0.00  0.00    +0.002 C 
ATOM     32  C   UNL     1      -0.646  -3.806   4.816  0.00  0.00    +0.023 C 
ENDBRANCH   6  27
BRANCH   9  33
ATOM     33  C   UNL     1      -4.801  -0.917   0.452  0.00  0.00    +0.346 C 
ATOM     34  O   UNL     1      -4.759   0.117  -0.192  0.00  0.00    -0.248 OA
ATOM     35  O   UNL     1      -5.655  -1.067   1.309  0.00  0.00    -0.248 OA
ENDBRANCH   9  33
BRANCH   9  36
ATOM     36  C   UNL     1      -4.476  -3.239  -0.418  0.00  0.00    +0.002 C 
BRANCH  36  37
ATOM     37  C   UNL     1      -5.315  -2.815  -1.626  0.00  0.00    -0.018 C 
ATOM     38  C   UNL     1      -4.388  -2.368  -2.758  0.00  0.00    +0.007 C 
ATOM     39  C   UNL     1      -6.164  -3.997  -2.098  0.00  0.00    +0.007 C 
ENDBRANCH  36  37
ENDBRANCH   9  36
TORSDOF 6
