REMARK  Name = ZINC21230057
REMARK  3 active torsions:
REMARK  status: ('A' for Active; 'I' for Inactive)
REMARK    1  A    between atoms: C_5  and  C_7
REMARK    2  A    between atoms: C_12  and  C_22
REMARK    3  A    between atoms: C_26  and  N_28
REMARK                            x       y       z     vdW  Elec       q    Type
REMARK                         _______ _______ _______ _____ _____    ______ ____
ROOT
ATOM      1  C   UNL     1       4.006   2.236   0.994  0.00  0.00    +0.033 C 
ATOM      2  C   UNL     1       3.601   2.555  -0.443  0.00  0.00    +0.059 C 
ATOM      3  C   UNL     1       2.107   2.342  -0.623  0.00  0.00    +0.017 C 
ATOM      4  C   UNL     1       1.462   1.402   0.088  0.00  0.00    +0.036 C 
ATOM      5  C   UNL     1      -0.013   1.086   0.008  0.00  0.00    +0.136 C 
ATOM      6  N   UNL     1      -0.697   1.704  -1.107  0.00  0.00    -0.331 N 
ATOM      7  C   UNL     1      -0.813   3.088  -1.198  0.00  0.00    +0.049 A 
ATOM      8  C   UNL     1      -2.044   3.716  -1.087  0.00  0.00    +0.025 A 
ATOM      9  C   UNL     1      -2.106   5.099  -1.101  0.00  0.00    +0.002 A 
ATOM     10  C   UNL     1      -0.953   5.851  -1.226  0.00  0.00    +0.002 A 
ATOM     11  C   UNL     1       0.276   5.227  -1.360  0.00  0.00    +0.025 A 
ATOM     12  C   UNL     1       0.337   3.845  -1.366  0.00  0.00    +0.052 A 
ATOM     13  N   UNL     1       1.528   3.151  -1.548  0.00  0.00    -0.316 N 
ATOM     14  C   UNL     1       2.168   0.600   1.016  0.00  0.00    +0.163 C 
ATOM     15  O   UNL     1       1.564  -0.257   1.630  0.00  0.00    -0.292 OA
ATOM     16  C   UNL     1       3.636   0.773   1.269  0.00  0.00    +0.088 C 
ATOM     17  H   UNL     1      -1.135   1.079  -1.899  0.00  0.00    +0.147 HD
ATOM     18  H   UNL     1       2.007   3.295  -2.528  0.00  0.00    +0.152 HD
ENDROOT
BRANCH   1  23
ATOM     19  C   UNL     1       7.736   1.885   0.523  0.00  0.00    +0.000 A 
ATOM     20  C   UNL     1       8.218   2.776   1.464  0.00  0.00    +0.001 A 
ATOM     21  C   UNL     1       7.338   3.492   2.253  0.00  0.00    +0.020 A 
ATOM     22  C   UNL     1       5.974   3.322   2.098  0.00  0.00    +0.044 A 
ATOM     23  C   UNL     1       5.492   2.426   1.160  0.00  0.00    -0.025 A 
ATOM     24  C   UNL     1       6.373   1.710   0.372  0.00  0.00    +0.005 A 
ATOM     25 CL   UNL     1       4.868   4.227   3.083  0.00  0.00    -0.083 Cl
ENDBRANCH   1  23
BRANCH   5  26
ATOM     26  C   UNL     1      -0.670   1.546   1.283  0.00  0.00    -0.021 A 
ATOM     27  C   UNL     1      -0.675   2.889   1.613  0.00  0.00    +0.007 A 
ATOM     28  C   UNL     1      -1.282   3.313   2.780  0.00  0.00    +0.022 A 
ATOM     29  C   UNL     1      -1.877   2.391   3.624  0.00  0.00    +0.071 A 
ATOM     30  C   UNL     1      -1.867   1.047   3.296  0.00  0.00    +0.145 A 
ATOM     31  C   UNL     1      -1.264   0.625   2.126  0.00  0.00    +0.040 A 
ATOM     32 CL   UNL     1      -2.634   2.922   5.093  0.00  0.00    -0.081 Cl
BRANCH  30  33
ATOM     33  N   UNL     1      -2.503   0.061   4.198  0.00  0.00    +0.058 N 
ATOM     34  O   UNL     1      -2.495  -1.122   3.910  0.00  0.00    -0.126 OA
ATOM     35  O   UNL     1      -3.035   0.433   5.229  0.00  0.00    -0.126 OA
ENDBRANCH  30  33
ENDBRANCH   5  26
TORSDOF 3
