REMARK  Name = ZINC13473723
REMARK  6 active torsions:
REMARK  status: ('A' for Active; 'I' for Inactive)
REMARK    1  A    between atoms: C_4  and  C_7
REMARK    2  A    between atoms: C_12  and  C_13
REMARK    3  A    between atoms: C_12  and  N_59
REMARK    4  A    between atoms: C_13  and  C_14
REMARK    5  A    between atoms: C_14  and  C_15
REMARK    6  A    between atoms: C_15  and  C_16
REMARK                            x       y       z     vdW  Elec       q    Type
REMARK                         _______ _______ _______ _____ _____    ______ ____
ROOT
ATOM      1  C   UNL     1       4.946   4.028   1.169  0.00  0.00    -0.000 C 
ENDROOT
BRANCH   1   2
ATOM      2  C   UNL     1       3.647   3.229   1.299  0.00  0.00    -0.019 C 
BRANCH   2   3
ATOM      3  C   UNL     1       3.637   2.101   0.266  0.00  0.00    -0.078 C 
BRANCH   3   9
ATOM      4  C   UNL     1       0.002  -0.004   0.002  0.00  0.00    -0.048 C 
ATOM      5  C   UNL     1      -0.016   1.311   0.009  0.00  0.00    -0.041 C 
ATOM      6  C   UNL     1       1.232   2.147   0.002  0.00  0.00    -0.051 C 
ATOM      7  C   UNL     1       2.445   0.104  -0.417  0.00  0.00    -0.074 C 
ATOM      8  C   UNL     1       1.278  -0.798  -0.007  0.00  0.00    +0.017 C 
ATOM      9  N   UNL     1       2.385   1.325   0.413  0.00  0.00    +0.382 N 
ATOM     10  H   UNL     1       2.272   1.056   1.397  0.00  0.00    -0.081 HD
BRANCH   4  14
ATOM     11  C   UNL     1      -3.697  -2.091   0.004  0.00  0.00    +0.000 A 
ATOM     12  C   UNL     1      -3.350  -1.305  -1.080  0.00  0.00    +0.001 A 
ATOM     13  C   UNL     1      -2.150  -0.625  -1.087  0.00  0.00    +0.008 A 
ATOM     14  C   UNL     1      -1.285  -0.731   0.003  0.00  0.00    -0.022 A 
ATOM     15  C   UNL     1      -1.638  -1.530   1.091  0.00  0.00    +0.008 A 
ATOM     16  C   UNL     1      -2.844  -2.200   1.088  0.00  0.00    +0.001 A 
ENDBRANCH   4  14
ENDBRANCH   3   9
ENDBRANCH   2   3
ENDBRANCH   1   2
BRANCH   1  17
ATOM     17  C   UNL     1       4.956   5.157   2.203  0.00  0.00    +0.021 C 
BRANCH  17  18
ATOM     18  C   UNL     1       6.254   5.956   2.073  0.00  0.00    +0.074 C 
ATOM     19  C   UNL     1       6.396   6.552   0.681  0.00  0.00    +0.021 C 
ATOM     20  C   UNL     1       5.617   7.836   0.469  0.00  0.00    +0.006 C 
ATOM     21  C   UNL     1       4.767   8.337   1.634  0.00  0.00    +0.036 C 
ATOM     22  C   UNL     1       5.571   8.281   2.898  0.00  0.00    -0.027 A 
ATOM     23  C   UNL     1       6.289   7.110   3.037  0.00  0.00    -0.007 A 
ATOM     24  C   UNL     1       7.238   6.860   4.010  0.00  0.00    +0.038 A 
ATOM     25  C   UNL     1       7.362   7.795   5.038  0.00  0.00    +0.025 A 
ATOM     26  C   UNL     1       6.568   8.934   4.965  0.00  0.00    +0.017 A 
ATOM     27  C   UNL     1       5.695   9.193   3.912  0.00  0.00    +0.021 A 
ATOM     28 BR   UNL     1       4.687  10.793   3.881  0.00  0.00    -0.050 Br
ATOM     29  N   UNL     1       7.898   5.691   3.686  0.00  0.00    -0.284 N 
ATOM     30  C   UNL     1       7.449   5.137   2.509  0.00  0.00    +0.228 C 
ATOM     31  O   UNL     1       7.925   4.192   1.916  0.00  0.00    -0.274 OA
ATOM     32  H   UNL     1       8.597   5.298   4.231  0.00  0.00    +0.155 HD
ENDBRANCH  17  18
ENDBRANCH   1  17
TORSDOF 6
