REMARK  Name = ZINC00729458
REMARK  5 active torsions:
REMARK  status: ('A' for Active; 'I' for Inactive)
REMARK    1  A    between atoms: C_1  and  O_2
REMARK    2  A    between atoms: O_2  and  C_3
REMARK    3  A    between atoms: C_7  and  C_10
REMARK    4  A    between atoms: C_8  and  O_9
REMARK    5  A    between atoms: C_15  and  C_20
REMARK                            x       y       z     vdW  Elec       q    Type
REMARK                         _______ _______ _______ _____ _____    ______ ____
ROOT
ATOM      1  C   UNL     1      -3.359   8.766  -0.004  0.00  0.00    +0.140 C 
ATOM      2  C   UNL     1      -2.714   7.399  -0.031  0.00  0.00    +0.037 C 
ATOM      3  C   UNL     1      -2.370   6.670   1.042  0.00  0.00    +0.017 C 
ATOM      4  C   UNL     1      -1.771   5.283   0.866  0.00  0.00    +0.060 C 
ATOM      5  C   UNL     1      -0.919   5.245  -0.402  0.00  0.00    +0.039 C 
ATOM      6  C   UNL     1      -1.829   5.579  -1.589  0.00  0.00    +0.088 C 
ATOM      7  C   UNL     1      -2.480   6.906  -1.336  0.00  0.00    +0.163 C 
ATOM      8  O   UNL     1      -2.818   7.582  -2.287  0.00  0.00    -0.292 OA
ATOM      9  N   UNL     1      -2.521   7.056   2.335  0.00  0.00    -0.316 N 
ATOM     10  C   UNL     1      -3.681   7.613   2.864  0.00  0.00    +0.052 A 
ATOM     11  C   UNL     1      -4.416   6.989   3.856  0.00  0.00    +0.025 A 
ATOM     12  C   UNL     1      -5.534   7.622   4.372  0.00  0.00    +0.002 A 
ATOM     13  C   UNL     1      -5.909   8.867   3.901  0.00  0.00    +0.002 A 
ATOM     14  C   UNL     1      -5.183   9.485   2.897  0.00  0.00    +0.025 A 
ATOM     15  C   UNL     1      -4.076   8.844   2.362  0.00  0.00    +0.049 A 
ATOM     16  N   UNL     1      -3.364   9.395   1.300  0.00  0.00    -0.331 N 
ATOM     17  H   UNL     1      -1.766   6.935   2.932  0.00  0.00    +0.152 HD
ATOM     18  H   UNL     1      -2.862  10.214   1.437  0.00  0.00    +0.147 HD
ENDROOT
BRANCH   1  23
ATOM     19  C   UNL     1      -6.804   9.628  -1.314  0.00  0.00    +0.162 A 
ATOM     20  C   UNL     1      -7.405   8.380  -1.340  0.00  0.00    +0.049 A 
ATOM     21  C   UNL     1      -6.696   7.263  -0.936  0.00  0.00    +0.004 A 
ATOM     22  C   UNL     1      -5.389   7.389  -0.504  0.00  0.00    +0.009 A 
ATOM     23  C   UNL     1      -4.784   8.632  -0.475  0.00  0.00    +0.022 A 
ATOM     24  C   UNL     1      -5.490   9.756  -0.875  0.00  0.00    +0.164 A 
BRANCH  19  26
ATOM     25  C   UNL     1      -8.846  10.521  -2.145  0.00  0.00    +0.277 C 
ATOM     26  O   UNL     1      -7.500  10.727  -1.712  0.00  0.00    -0.491 OA
ENDBRANCH  19  26
BRANCH  24  27
ATOM     27  O   UNL     1      -4.898  10.980  -0.843  0.00  0.00    -0.503 OA
ATOM     28  H   UNL     1      -4.508  11.250  -1.685  0.00  0.00    +0.292 HD
ENDBRANCH  24  27
ENDBRANCH   1  23
BRANCH   5  29
ATOM     29  C   UNL     1      -0.331   3.869  -0.580  0.00  0.00    -0.006 A 
ATOM     30  C   UNL     1       0.971   3.500  -0.654  0.00  0.00    +0.011 A 
ATOM     31  C   UNL     1       1.281   2.163  -0.822  0.00  0.00    +0.008 A 
ATOM     32  C   UNL     1       0.273   1.261  -0.907  0.00  0.00    +0.045 A 
ATOM     33  S   UNL     1      -1.169   2.302  -0.757  0.00  0.00    -0.101 S 
ENDBRANCH   5  29
TORSDOF 4
