REMARK  Name = ZINC16087071
REMARK  7 active torsions:
REMARK  status: ('A' for Active; 'I' for Inactive)
REMARK    1  A    between atoms: C_1  and  O_2
REMARK    2  A    between atoms: O_2  and  C_3
REMARK    3  A    between atoms: C_5  and  C_21
REMARK    4  A    between atoms: C_8  and  O_9
REMARK    5  A    between atoms: O_9  and  S_10
REMARK    6  A    between atoms: S_10  and  C_13
REMARK    7  A    between atoms: C_21  and  C_22
REMARK                            x       y       z     vdW  Elec       q    Type
REMARK                         _______ _______ _______ _____ _____    ______ ____
ROOT
ATOM      1  O   UNL     1      -0.108  -2.756  -0.012  0.00  0.00    -0.338 OA
ENDROOT
BRANCH   1   7
ATOM      2  C   UNL     1      -1.201  -0.638   0.010  0.00  0.00    +0.165 A 
ATOM      3  C   UNL     1      -2.374   0.099   0.019  0.00  0.00    +0.053 A 
ATOM      4  C   UNL     1      -3.596  -0.546   0.027  0.00  0.00    -0.040 A 
ATOM      5  C   UNL     1      -3.652  -1.928   0.026  0.00  0.00    +0.008 A 
ATOM      6  C   UNL     1      -2.485  -2.669   0.017  0.00  0.00    +0.053 A 
ATOM      7  C   UNL     1      -1.257  -2.028   0.003  0.00  0.00    +0.198 A 
BRANCH   2   9
ATOM      8  C   UNL     1      -0.017   1.425   0.010  0.00  0.00    +0.277 C 
ATOM      9  O   UNL     1       0.002  -0.004   0.002  0.00  0.00    -0.491 OA
ENDBRANCH   2   9
BRANCH   4  10
ATOM     10  C   UNL     1      -4.871   0.257   0.037  0.00  0.00    +0.061 C 
BRANCH  10  11
ATOM     11  C   UNL     1      -5.306   0.527  -1.380  0.00  0.00    -0.030 C 
ATOM     12  C   UNL     1      -6.508   0.185  -1.773  0.00  0.00    +0.004 C 
ENDBRANCH  10  11
ENDBRANCH   4  10
ENDBRANCH   1   7
BRANCH   1  13
ATOM     13  S   UNL     1       0.428  -3.095   1.372  0.00  0.00    +0.154 S 
ATOM     14  O   UNL     1       1.716  -3.663   1.180  0.00  0.00    -0.131 OA
ATOM     15  O   UNL     1       0.214  -1.948   2.183  0.00  0.00    -0.131 OA
BRANCH  13  16
ATOM     16  C   UNL     1      -0.594  -4.372   2.028  0.00  0.00    +0.163 A 
ATOM     17  C   UNL     1      -1.719  -4.049   2.762  0.00  0.00    +0.035 A 
ATOM     18  C   UNL     1      -2.521  -5.050   3.277  0.00  0.00    +0.022 A 
ATOM     19  C   UNL     1      -2.198  -6.377   3.058  0.00  0.00    +0.044 A 
ATOM     20  C   UNL     1      -1.072  -6.703   2.323  0.00  0.00    +0.060 A 
ATOM     21  C   UNL     1      -0.272  -5.700   1.803  0.00  0.00    +0.153 A 
ATOM     22  F   UNL     1       0.825  -6.017   1.081  0.00  0.00    -0.203 F 
ATOM     23 CL   UNL     1      -3.205  -7.634   3.705  0.00  0.00    -0.083 Cl
ENDBRANCH  13  16
ENDBRANCH   1  13
TORSDOF 6
