REMARK  Name = ZINC09448635
REMARK  7 active torsions:
REMARK  status: ('A' for Active; 'I' for Inactive)
REMARK    1  A    between atoms: C_4  and  N_7
REMARK    2  A    between atoms: N_8  and  C_9
REMARK    3  A    between atoms: C_12  and  N_15
REMARK    4  A    between atoms: C_16  and  C_18
REMARK    5  A    between atoms: C_18  and  O_19
REMARK    6  A    between atoms: O_19  and  C_20
REMARK    7  A    between atoms: C_20  and  C_22
REMARK                            x       y       z     vdW  Elec       q    Type
REMARK                         _______ _______ _______ _____ _____    ______ ____
ROOT
ATOM      1  N   UNL     1       8.523  -0.226  -0.108  0.00  0.00    -0.283 N 
ATOM      2  C   UNL     1       7.280   0.260   0.082  0.00  0.00    +0.255 C 
ATOM      3  O   UNL     1       7.113   1.449   0.252  0.00  0.00    -0.272 OA
ATOM      4  H   UNL     1       8.665  -1.184  -0.168  0.00  0.00    +0.155 HD
ENDROOT
BRANCH   1   8
ATOM      5  C   UNL     1      11.753   2.386  -0.442  0.00  0.00    +0.086 A 
ATOM      6  C   UNL     1      11.923   1.133   0.156  0.00  0.00    +0.031 A 
ATOM      7  C   UNL     1      10.854   0.273   0.264  0.00  0.00    +0.025 A 
ATOM      8  C   UNL     1       9.605   0.649  -0.220  0.00  0.00    +0.034 A 
ATOM      9  C   UNL     1       9.432   1.892  -0.821  0.00  0.00    +0.025 A 
ATOM     10  C   UNL     1      10.495   2.760  -0.928  0.00  0.00    +0.031 A 
BRANCH   5  12
ATOM     11  N   UNL     1      12.652   4.397  -1.102  0.00  0.00    -0.149 NA
ATOM     12  N   UNL     1      12.811   3.242  -0.550  0.00  0.00    -0.149 NA
BRANCH  11  16
ATOM     13  C   UNL     1      15.857   6.991  -1.429  0.00  0.00    +0.000 A 
ATOM     14  C   UNL     1      14.616   7.366  -1.913  0.00  0.00    +0.002 A 
ATOM     15  C   UNL     1      13.543   6.507  -1.807  0.00  0.00    +0.029 A 
ATOM     16  C   UNL     1      13.711   5.254  -1.210  0.00  0.00    +0.086 A 
ATOM     17  C   UNL     1      14.966   4.885  -0.720  0.00  0.00    +0.029 A 
ATOM     18  C   UNL     1      16.031   5.753  -0.837  0.00  0.00    +0.002 A 
ENDBRANCH  11  16
ENDBRANCH   5  12
ENDBRANCH   1   8
BRANCH   2  19
ATOM     19  C   UNL     1       6.098  -0.675   0.084  0.00  0.00    +0.328 C 
BRANCH  19  20
ATOM     20  O   UNL     1       4.881   0.085   0.307  0.00  0.00    -0.452 OA
BRANCH  20  21
ATOM     21  C   UNL     1       3.724  -0.607   0.337  0.00  0.00    +0.340 C 
ATOM     22  O   UNL     1       3.733  -1.812   0.181  0.00  0.00    -0.245 OA
BRANCH  21  23
ATOM     23  C   UNL     1       2.450   0.099   0.559  0.00  0.00    +0.061 A 
ATOM     24  C   UNL     1       2.441   1.486   0.738  0.00  0.00    +0.016 A 
ATOM     25  C   UNL     1       1.248   2.142   0.942  0.00  0.00    +0.017 A 
ATOM     26  C   UNL     1       0.057   1.427   0.972  0.00  0.00    +0.030 A 
ATOM     27  C   UNL     1       0.051   0.039   0.798  0.00  0.00    +0.048 A 
ATOM     28  C   UNL     1       1.252  -0.620   0.590  0.00  0.00    +0.039 A 
ATOM     29  N   UNL     1      -1.133  -0.694   0.836  0.00  0.00    -0.284 N 
ATOM     30  C   UNL     1      -2.358  -0.222   0.624  0.00  0.00    +0.227 C 
ATOM     31  O   UNL     1      -3.289  -0.997   0.681  0.00  0.00    -0.275 OA
ATOM     32  C   UNL     1      -2.652   1.221   0.315  0.00  0.00    +0.170 C 
ATOM     33  S   UNL     1      -1.476   2.267   1.222  0.00  0.00    -0.114 S 
ATOM     34  H   UNL     1      -1.056  -1.640   1.036  0.00  0.00    +0.155 HD
ENDBRANCH  21  23
ENDBRANCH  20  21
ENDBRANCH  19  20
ENDBRANCH   2  19
TORSDOF 7
