REMARK  Name = ZINC02744435
REMARK  8 active torsions:
REMARK  status: ('A' for Active; 'I' for Inactive)
REMARK    1  A    between atoms: C_1  and  C_2
REMARK    2  A    between atoms: C_7  and  N_8
REMARK    3  A    between atoms: N_8  and  C_9
REMARK    4  A    between atoms: C_9  and  C_11
REMARK    5  A    between atoms: C_9  and  C_12
REMARK    6  A    between atoms: N_14  and  N_15
REMARK    7  A    between atoms: C_16  and  C_17
REMARK    8  A    between atoms: C_21  and  N_23
REMARK                            x       y       z     vdW  Elec       q    Type
REMARK                         _______ _______ _______ _____ _____    ______ ____
ROOT
ATOM      1  C   UNL     1       3.441   6.305   0.002  0.00  0.00    +0.252 C 
ATOM      2  O   UNL     1       4.497   5.707  -0.011  0.00  0.00    -0.272 OA
ATOM      3  N   UNL     1       2.279   5.621   0.009  0.00  0.00    -0.205 N 
ATOM      4  H   UNL     1       1.435   6.099   0.020  0.00  0.00    +0.177 HD
ENDROOT
BRANCH   1   5
ATOM      5  C   UNL     1       3.428   7.812   0.010  0.00  0.00    +0.155 C 
ATOM      6  C   UNL     1       2.715   8.309   1.268  0.00  0.00    +0.038 C 
BRANCH   5   7
ATOM      7  N   UNL     1       4.805   8.312  -0.001  0.00  0.00    -0.333 N 
ATOM      8  H   UNL     1       5.524   7.760   0.345  0.00  0.00    +0.147 HD
BRANCH   7  15
ATOM      9  C   UNL     1       7.507   9.203   0.018  0.00  0.00    +0.045 C 
ATOM     10  C   UNL     1       6.388  10.059  -0.519  0.00  0.00    -0.029 A 
ATOM     11  C   UNL     1       6.659  11.316  -1.021  0.00  0.00    +0.019 A 
ATOM     12  C   UNL     1       5.633  12.102  -1.513  0.00  0.00    +0.014 A 
ATOM     13  C   UNL     1       4.332  11.631  -1.505  0.00  0.00    +0.016 A 
ATOM     14  C   UNL     1       4.055  10.373  -1.008  0.00  0.00    +0.024 A 
ATOM     15  C   UNL     1       5.083   9.583  -0.508  0.00  0.00    +0.031 A 
ATOM     16  I   UNL     1       6.049  14.009  -2.274  0.00  0.00    -0.044 I 
ENDBRANCH   7  15
ENDBRANCH   5   7
ENDBRANCH   1   5
BRANCH   3  17
ATOM     17  N   UNL     1       2.291   4.220   0.002  0.00  0.00    -0.188 NA
ATOM     18  C   UNL     1       1.173   3.562   0.009  0.00  0.00    +0.142 C 
BRANCH  18  19
ATOM     19  C   UNL     1       1.185   2.088   0.002  0.00  0.00    +0.045 A 
ATOM     20  C   UNL     1      -0.017   1.376   0.010  0.00  0.00    +0.033 A 
ATOM     21  C   UNL     1       0.002  -0.004   0.002  0.00  0.00    +0.044 A 
ATOM     22  C   UNL     1       1.208  -0.686  -0.013  0.00  0.00    +0.056 A 
ATOM     23  C   UNL     1       2.403   0.009  -0.021  0.00  0.00    +0.175 A 
ATOM     24  C   UNL     1       2.402   1.394  -0.014  0.00  0.00    +0.218 A 
ATOM     25 CL   UNL     1      -1.491  -0.889   0.011  0.00  0.00    -0.083 Cl
ATOM     26  O   UNL     1       3.576   2.076  -0.022  0.00  0.00    -0.285 OA
BRANCH  23  27
ATOM     27  N   UNL     1       3.686  -0.729  -0.037  0.00  0.00    +0.060 N 
ATOM     28  O   UNL     1       3.688  -1.947  -0.043  0.00  0.00    -0.126 OA
ATOM     29  O   UNL     1       4.740  -0.118  -0.044  0.00  0.00    -0.126 OA
ENDBRANCH  23  27
ENDBRANCH  18  19
ENDBRANCH   3  17
TORSDOF 6
