REMARK  Name = ZINC17837240
REMARK  5 active torsions:
REMARK  status: ('A' for Active; 'I' for Inactive)
REMARK    1  A    between atoms: C_4  and  C_7
REMARK    2  A    between atoms: C_7  and  N_8
REMARK    3  A    between atoms: C_13  and  C_27
REMARK    4  A    between atoms: N_15  and  C_21
REMARK    5  A    between atoms: C_32  and  O_33
REMARK                            x       y       z     vdW  Elec       q    Type
REMARK                         _______ _______ _______ _____ _____    ______ ____
ROOT
ATOM      1  N   UNL     1       4.152  -0.952   1.338  0.00  0.00    -0.235 N 
ATOM      2  C   UNL     1       4.934  -0.080   2.053  0.00  0.00    +0.231 C 
ATOM      3  O   UNL     1       5.194   1.072   1.781  0.00  0.00    -0.275 OA
ATOM      4  C   UNL     1       5.379  -0.835   3.199  0.00  0.00    +0.145 C 
ATOM      5  C   UNL     1       5.892  -0.618   4.561  0.00  0.00    +0.160 C 
ATOM      6  N   UNL     1       5.547  -1.908   5.241  0.00  0.00    -0.244 N 
ATOM      7  O   UNL     1       4.815  -2.718   4.293  0.00  0.00    -0.257 OA
ATOM      8  C   UNL     1       4.121  -1.748   3.488  0.00  0.00    +0.249 C 
ATOM      9  C   UNL     1       3.824  -2.071   2.049  0.00  0.00    +0.254 C 
ATOM     10  O   UNL     1       3.385  -3.112   1.611  0.00  0.00    -0.272 OA
ENDROOT
BRANCH   6  11
ATOM     11  C   UNL     1       5.874  -2.263   6.551  0.00  0.00    +0.065 A 
ATOM     12  C   UNL     1       6.581  -1.379   7.357  0.00  0.00    +0.028 A 
ATOM     13  C   UNL     1       6.902  -1.733   8.652  0.00  0.00    +0.002 A 
ATOM     14  C   UNL     1       6.520  -2.967   9.148  0.00  0.00    +0.000 A 
ATOM     15  C   UNL     1       5.816  -3.849   8.350  0.00  0.00    +0.002 A 
ATOM     16  C   UNL     1       5.487  -3.499   7.055  0.00  0.00    +0.028 A 
ENDBRANCH   6  11
BRANCH   5  17
ATOM     17  C   UNL     1       5.193   0.543   5.218  0.00  0.00    +0.020 A 
ATOM     18  C   UNL     1       4.172   0.315   6.121  0.00  0.00    +0.009 A 
ATOM     19  C   UNL     1       3.529   1.380   6.724  0.00  0.00    +0.001 A 
ATOM     20  C   UNL     1       3.907   2.677   6.427  0.00  0.00    +0.004 A 
ATOM     21  C   UNL     1       4.928   2.910   5.526  0.00  0.00    +0.046 A 
ATOM     22  C   UNL     1       5.577   1.843   4.923  0.00  0.00    +0.122 A 
BRANCH  22  23
ATOM     23  O   UNL     1       6.585   2.070   4.040  0.00  0.00    -0.506 OA
ATOM     24  H   UNL     1       6.293   2.158   3.123  0.00  0.00    +0.292 HD
ENDBRANCH  22  23
ENDBRANCH   5  17
BRANCH   1  25
ATOM     25  C   UNL     1       3.711  -0.707  -0.038  0.00  0.00    +0.151 C 
BRANCH  25  29
ATOM     26  C   UNL     1      -0.017   1.378   0.010  0.00  0.00    +0.000 A 
ATOM     27  C   UNL     1       1.171   2.086   0.002  0.00  0.00    +0.000 A 
ATOM     28  C   UNL     1       2.377   1.411  -0.013  0.00  0.00    +0.005 A 
ATOM     29  C   UNL     1       2.396   0.029  -0.020  0.00  0.00    -0.030 A 
ATOM     30  C   UNL     1       1.208  -0.679  -0.012  0.00  0.00    +0.005 A 
ATOM     31  C   UNL     1       0.002  -0.004   0.002  0.00  0.00    +0.000 A 
ENDBRANCH  25  29
ENDBRANCH   1  25
TORSDOF 5
