REMARK  Name = ZINC58057247
REMARK  6 active torsions:
REMARK  status: ('A' for Active; 'I' for Inactive)
REMARK    1  A    between atoms: C_1  and  C_2
REMARK    2  A    between atoms: C_2  and  O_3
REMARK    3  A    between atoms: O_3  and  C_4
REMARK    4  A    between atoms: C_7  and  C_10
REMARK    5  A    between atoms: C_16  and  C_18
REMARK    6  A    between atoms: C_22  and  N_24
REMARK                            x       y       z     vdW  Elec       q    Type
REMARK                         _______ _______ _______ _____ _____    ______ ____
ROOT
ATOM      1  C   UNL     1      -1.997  -6.064  -0.011  0.00  0.00    +0.141 A 
ATOM      2  N   UNL     1      -3.257  -6.587  -0.013  0.00  0.00    -0.307 N 
ATOM      3  H   UNL     1      -4.027  -5.996  -0.010  0.00  0.00    +0.170 HD
ATOM      4  C   UNL     1      -3.435  -7.925  -0.020  0.00  0.00    +0.252 A 
ATOM      5  O   UNL     1      -4.558  -8.402  -0.022  0.00  0.00    -0.268 OA
ATOM      6  C   UNL     1      -2.303  -8.758  -0.024  0.00  0.00    +0.098 A 
ATOM      7  C   UNL     1      -1.046  -8.173  -0.022  0.00  0.00    +0.078 A 
ATOM      8  N   UNL     1      -0.934  -6.838  -0.021  0.00  0.00    -0.229 NA
ENDROOT
BRANCH   1  12
ATOM      9  C   UNL     1      -1.498  -1.847   0.006  0.00  0.00    +0.121 A 
ATOM     10  C   UNL     1      -0.383  -2.676  -0.003  0.00  0.00    +0.046 A 
ATOM     11  C   UNL     1      -0.541  -4.045  -0.009  0.00  0.00    +0.015 A 
ATOM     12  C   UNL     1      -1.824  -4.598  -0.005  0.00  0.00    +0.018 A 
ATOM     13  C   UNL     1      -2.942  -3.760   0.005  0.00  0.00    +0.015 A 
ATOM     14  C   UNL     1      -2.776  -2.393   0.016  0.00  0.00    +0.046 A 
BRANCH   9  15
ATOM     15  O   UNL     1      -1.339  -0.499   0.012  0.00  0.00    -0.492 OA
BRANCH  15  17
ATOM     16  C   UNL     1      -0.019   1.526   0.010  0.00  0.00    +0.048 C 
ATOM     17  C   UNL     1       0.002  -0.004   0.002  0.00  0.00    +0.225 C 
ENDBRANCH  15  17
ENDBRANCH   9  15
ENDBRANCH   1  12
BRANCH   7  18
ATOM     18  C   UNL     1       0.169  -9.022  -0.026  0.00  0.00    +0.002 A 
ATOM     19  C   UNL     1       0.051 -10.412  -0.038  0.00  0.00    +0.010 A 
ATOM     20  C   UNL     1       1.183 -11.201  -0.042  0.00  0.00    +0.002 A 
ATOM     21  C   UNL     1       2.437 -10.618  -0.034  0.00  0.00    +0.023 A 
ATOM     22  C   UNL     1       2.564  -9.234  -0.021  0.00  0.00    +0.025 A 
ATOM     23  C   UNL     1       1.432  -8.434  -0.024  0.00  0.00    +0.032 A 
BRANCH  22  24
ATOM     24  N   UNL     1       3.833  -8.650  -0.012  0.00  0.00    -0.358 N 
ATOM     25  H   UNL     1       4.625  -9.210  -0.015  0.00  0.00    +0.142 HD
ATOM     26  H   UNL     1       3.922  -7.684  -0.003  0.00  0.00    +0.142 HD
ENDBRANCH  22  24
ENDBRANCH   7  18
TORSDOF 5
