REMARK  Name = ZINC26506589
REMARK  4 active torsions:
REMARK  status: ('A' for Active; 'I' for Inactive)
REMARK    1  A    between atoms: C_1  and  N_2
REMARK    2  A    between atoms: C_6  and  C_8
REMARK    3  A    between atoms: C_8  and  O_9
REMARK    4  A    between atoms: O_9  and  C_10
REMARK                            x       y       z     vdW  Elec       q    Type
REMARK                         _______ _______ _______ _____ _____    ______ ____
ROOT
ATOM      1  C   UNL     1      -3.265   1.073  -1.399  0.00  0.00    +0.214 C 
ENDROOT
BRANCH   1   7
ATOM      2  C   UNL     1      -3.088   2.384   1.587  0.00  0.00    -0.096 C 
ATOM      3  N   UNL     1      -2.220   1.507   0.790  0.00  0.00    +0.382 N 
ATOM      4  C   UNL     1      -0.801   1.617   1.232  0.00  0.00    -0.079 C 
ATOM      5  C   UNL     1      -0.013   1.086   0.008  0.00  0.00    -0.020 C 
ATOM      6  C   UNL     1      -0.822   1.629  -1.192  0.00  0.00    -0.014 C 
ATOM      7  C   UNL     1      -2.231   1.904  -0.635  0.00  0.00    -0.031 C 
ATOM      8  H   UNL     1      -2.616   0.490   0.926  0.00  0.00    -0.082 HD
ENDBRANCH   1   7
BRANCH   1   9
ATOM      9  O   UNL     1      -4.578   1.421  -0.955  0.00  0.00    -0.492 OA
BRANCH   9  10
ATOM     10  C   UNL     1      -5.619   0.770  -1.537  0.00  0.00    +0.139 A 
ATOM     11  C   UNL     1      -6.928   1.049  -1.155  0.00  0.00    +0.064 A 
ATOM     12  C   UNL     1      -7.957   0.363  -1.781  0.00  0.00    +0.039 A 
ATOM     13  C   UNL     1      -7.650  -0.576  -2.750  0.00  0.00    +0.126 A 
ATOM     14  N   UNL     1      -6.398  -0.820  -3.084  0.00  0.00    -0.259 NA
ATOM     15  C   UNL     1      -5.392  -0.185  -2.516  0.00  0.00    +0.156 A 
ATOM     16 BR   UNL     1      -9.757   0.702  -1.313  0.00  0.00    -0.049 Br
ENDBRANCH   9  10
ENDBRANCH   1   9
TORSDOF 3
