REMARK  Name = ZINC46025390
REMARK  7 active torsions:
REMARK  status: ('A' for Active; 'I' for Inactive)
REMARK    1  A    between atoms: C_1  and  C_2
REMARK    2  A    between atoms: C_9  and  C_11
REMARK    3  A    between atoms: N_19  and  C_20
REMARK    4  A    between atoms: C_26  and  C_28
REMARK    5  A    between atoms: C_28  and  C_29
REMARK    6  A    between atoms: C_28  and  C_30
REMARK    7  A    between atoms: C_28  and  C_31
REMARK                            x       y       z     vdW  Elec       q    Type
REMARK                         _______ _______ _______ _____ _____    ______ ____
ROOT
ATOM      1  C   UNL     1       2.203  -3.894   1.765  0.00  0.00    +0.078 C 
ATOM      2  C   UNL     1       1.371  -4.155   3.023  0.00  0.00    +0.032 C 
ATOM      3  C   UNL     1       1.123  -5.660   3.164  0.00  0.00    +0.110 C 
ATOM      4  N   UNL     1       2.416  -6.357   3.140  0.00  0.00    -0.286 N 
ATOM      5  C   UNL     1       3.333  -6.108   2.019  0.00  0.00    +0.110 C 
ATOM      6  C   UNL     1       3.556  -4.598   1.891  0.00  0.00    +0.032 C 
ATOM      7  C   UNL     1       2.756  -7.208   4.128  0.00  0.00    +0.302 C 
ATOM      8  O   UNL     1       1.954  -7.476   5.002  0.00  0.00    -0.253 OA
ATOM      9  N   UNL     1       3.984  -7.763   4.147  0.00  0.00    -0.296 N 
ATOM     10  H   UNL     1       4.596  -7.613   3.409  0.00  0.00    +0.151 HD
ENDROOT
BRANCH   1  18
ATOM     11  C   UNL     1       1.064   1.870  -0.142  0.00  0.00    +0.009 C 
ATOM     12  C   UNL     1       1.005   0.342  -0.092  0.00  0.00    +0.003 C 
ATOM     13  C   UNL     1      -0.448  -0.118  -0.236  0.00  0.00    +0.006 C 
ATOM     14  C   UNL     1      -0.504  -1.647  -0.219  0.00  0.00    +0.019 C 
ATOM     15  C   UNL     1       0.034  -2.159   1.121  0.00  0.00    +0.108 C 
ATOM     16  N   UNL     1       1.377  -1.603   1.335  0.00  0.00    -0.301 N 
ATOM     17  C   UNL     1       1.561  -0.148   1.249  0.00  0.00    +0.111 C 
ATOM     18  C   UNL     1       2.420  -2.412   1.605  0.00  0.00    +0.219 C 
ATOM     19  O   UNL     1       3.535  -1.947   1.718  0.00  0.00    -0.275 OA
ENDBRANCH   1  18
BRANCH   9  20
ATOM     20  C   UNL     1       4.395  -8.593   5.282  0.00  0.00    +0.078 C 
ATOM     21  C   UNL     1       4.988  -7.703   6.376  0.00  0.00    +0.022 C 
ATOM     22  C   UNL     1       6.204  -6.956   5.824  0.00  0.00    +0.002 C 
ATOM     23  C   UNL     1       7.256  -7.966   5.362  0.00  0.00    +0.000 C 
ATOM     24  C   UNL     1       6.663  -8.856   4.268  0.00  0.00    +0.006 C 
ATOM     25  C   UNL     1       5.448  -9.603   4.821  0.00  0.00    +0.015 C 
BRANCH  25  26
ATOM     26  C   UNL     1       4.855 -10.493   3.727  0.00  0.00    -0.033 C 
ATOM     27  C   UNL     1       4.573  -9.650   2.481  0.00  0.00    +0.011 C 
ATOM     28  C   UNL     1       5.849 -11.602   3.377  0.00  0.00    +0.011 C 
ATOM     29  C   UNL     1       3.550 -11.116   4.227  0.00  0.00    +0.011 C 
ENDBRANCH  25  26
ENDBRANCH   9  20
TORSDOF 3
