REMARK  Name = ZINC24140518
REMARK  12 active torsions:
REMARK  status: ('A' for Active; 'I' for Inactive)
REMARK    1  A    between atoms: C_1  and  C_2
REMARK    2  A    between atoms: C_2  and  C_3
REMARK    3  A    between atoms: C_2  and  C_4
REMARK    4  A    between atoms: C_4  and  C_6
REMARK    5  A    between atoms: C_4  and  N_16
REMARK    6  A    between atoms: C_17  and  C_19
REMARK    7  A    between atoms: C_19  and  S_20
REMARK    8  A    between atoms: S_20  and  C_21
REMARK    9  A    between atoms: C_24  and  C_27
REMARK   10  A    between atoms: N_25  and  N_26
REMARK   11  A    between atoms: C_27  and  O_28
REMARK   12  A    between atoms: O_28  and  C_29
REMARK                            x       y       z     vdW  Elec       q    Type
REMARK                         _______ _______ _______ _____ _____    ______ ____
ROOT
ATOM      1  C   UNL     1      -6.653  -0.158  -2.322  0.00  0.00    +0.173 C 
ENDROOT
BRANCH   1   3
ATOM      2  N   UNL     1      -4.657  -0.137  -0.860  0.00  0.00    -0.308 N 
ATOM      3  C   UNL     1      -5.660  -0.844  -1.419  0.00  0.00    +0.224 C 
ATOM      4  O   UNL     1      -5.762  -2.031  -1.195  0.00  0.00    -0.275 OA
ATOM      5  H   UNL     1      -4.564   0.940  -1.063  0.00  0.00    +0.149 HD
BRANCH   2   6
ATOM      6  C   UNL     1      -3.692  -0.803   0.018  0.00  0.00    +0.106 C 
BRANCH   6   7
ATOM      7  C   UNL     1      -2.397  -0.033   0.016  0.00  0.00    -0.023 A 
ATOM      8  C   UNL     1      -2.415   1.349   0.025  0.00  0.00    +0.009 A 
ATOM      9  C   UNL     1      -1.229   2.059   0.019  0.00  0.00    +0.050 A 
ATOM     10  C   UNL     1      -0.017   1.385   0.010  0.00  0.00    +0.162 A 
ATOM     11  C   UNL     1       0.002  -0.004   0.002  0.00  0.00    +0.162 A 
ATOM     12  C   UNL     1      -1.192  -0.710   0.004  0.00  0.00    +0.055 A 
ATOM     13  O   UNL     1       1.181  -0.685  -0.007  0.00  0.00    -0.485 OA
ATOM     14  C   UNL     1       2.347   0.053  -0.387  0.00  0.00    +0.270 C 
ATOM     15  C   UNL     1       2.334   1.392   0.364  0.00  0.00    +0.270 C 
ATOM     16  O   UNL     1       1.143   2.098   0.002  0.00  0.00    -0.485 OA
ENDBRANCH   6   7
BRANCH   6  18
ATOM     17  C   UNL     1      -5.566  -1.640   1.443  0.00  0.00    +0.009 C 
ATOM     18  C   UNL     1      -4.250  -0.858   1.441  0.00  0.00    +0.008 C 
ATOM     19  C   UNL     1      -3.242  -1.554   2.358  0.00  0.00    +0.009 C 
ENDBRANCH   6  18
ENDBRANCH   2   6
ENDBRANCH   1   3
BRANCH   1  20
ATOM     20  S   UNL     1      -7.866  -1.365  -2.910  0.00  0.00    -0.075 S 
BRANCH  20  21
ATOM     21  C   UNL     1      -8.873  -0.323  -3.913  0.00  0.00    +0.209 A 
ATOM     22  N   UNL     1      -8.710   0.965  -4.110  0.00  0.00    -0.121 NA
ATOM     23  N   UNL     1      -9.624   1.405  -4.899  0.00  0.00    -0.128 NA
ATOM     24  C   UNL     1     -10.423   0.435  -5.243  0.00  0.00    +0.189 A 
ATOM     25  N   UNL     1      -9.974  -0.701  -4.627  0.00  0.00    -0.225 N 
BRANCH  25  26
ATOM     26  N   UNL     1     -10.514  -1.953  -4.710  0.00  0.00    -0.295 N 
ATOM     27  H   UNL     1     -11.409  -2.126  -5.324  0.00  0.00    +0.163 HD
ATOM     28  H   UNL     1     -10.053  -2.788  -4.161  0.00  0.00    +0.163 HD
ENDBRANCH  25  26
BRANCH  24  29
ATOM     29  C   UNL     1     -11.621   0.544  -6.151  0.00  0.00    +0.306 C 
BRANCH  29  30
ATOM     30  O   UNL     1     -12.782   0.845  -5.374  0.00  0.00    -0.481 OA
BRANCH  30  31
ATOM     31  C   UNL     1     -13.957   0.978  -6.045  0.00  0.00    +0.156 A 
ATOM     32  C   UNL     1     -13.990   0.827  -7.423  0.00  0.00    +0.048 A 
ATOM     33  C   UNL     1     -15.186   0.958  -8.103  0.00  0.00    +0.004 A 
ATOM     34  C   UNL     1     -16.348   1.250  -7.412  0.00  0.00    +0.003 A 
ATOM     35  C   UNL     1     -16.318   1.406  -6.039  0.00  0.00    +0.042 A 
ATOM     36  C   UNL     1     -15.124   1.271  -5.353  0.00  0.00    +0.165 A 
ATOM     37  F   UNL     1     -15.095   1.425  -4.011  0.00  0.00    -0.202 F 
ENDBRANCH  30  31
ENDBRANCH  29  30
ENDBRANCH  24  29
ENDBRANCH  20  21
ENDBRANCH   1  20
TORSDOF 10
