REMARK  Name = ZINC19927840
REMARK  5 active torsions:
REMARK  status: ('A' for Active; 'I' for Inactive)
REMARK    1  A    between atoms: C_1  and  C_2
REMARK    2  A    between atoms: C_4  and  C_17
REMARK    3  A    between atoms: C_5  and  C_16
REMARK    4  A    between atoms: N_6  and  C_7
REMARK    5  A    between atoms: C_11  and  N_13
REMARK                            x       y       z     vdW  Elec       q    Type
REMARK                         _______ _______ _______ _____ _____    ______ ____
ROOT
ATOM      1  C   UNL     1      -0.018   1.503   0.010  0.00  0.00    +0.064 C 
ATOM      2  C   UNL     1       0.002  -0.004   0.002  0.00  0.00    +0.022 A 
ATOM      3  C   UNL     1       0.008  -0.776  -1.098  0.00  0.00    +0.031 A 
ATOM      4  C   UNL     1       0.029  -2.169  -0.632  0.00  0.00    -0.003 A 
ATOM      5  C   UNL     1       0.035  -2.109   0.749  0.00  0.00    +0.028 A 
ATOM      6  N   UNL     1       0.023  -0.802   1.112  0.00  0.00    -0.317 N 
ATOM      7  C   UNL     1       0.055  -3.288   1.687  0.00  0.00    +0.064 C 
ENDROOT
BRANCH   4   8
ATOM      8  C   UNL     1       0.043  -3.377  -1.462  0.00  0.00    +0.030 C 
ATOM      9  C   UNL     1       0.036  -3.271  -2.817  0.00  0.00    +0.079 C 
ATOM     10  C   UNL     1       0.040  -4.328  -3.850  0.00  0.00    +0.276 C 
ATOM     11  O   UNL     1       0.051  -5.514  -3.557  0.00  0.00    -0.267 OA
ATOM     12  N   UNL     1       0.031  -3.923  -5.101  0.00  0.00    -0.155 NA
ATOM     13  C   UNL     1       0.019  -2.642  -5.432  0.00  0.00    +0.149 C 
ATOM     14  S   UNL     1       0.011  -1.812  -3.851  0.00  0.00    -0.052 S 
ATOM     15  N   UNL     1       0.009  -2.087  -6.686  0.00  0.00    -0.339 N 
ATOM     16  H   UNL     1       0.010  -2.658  -7.469  0.00  0.00    +0.144 HD
ATOM     17  H   UNL     1       0.001  -1.122  -6.788  0.00  0.00    +0.144 HD
ENDBRANCH   4   8
BRANCH   6  18
ATOM     18  C   UNL     1       0.030  -0.337   2.433  0.00  0.00    +0.049 A 
ATOM     19  C   UNL     1       1.133  -0.565   3.246  0.00  0.00    +0.026 A 
ATOM     20  C   UNL     1       1.136  -0.105   4.548  0.00  0.00    +0.004 A 
ATOM     21  C   UNL     1       0.043   0.583   5.043  0.00  0.00    +0.033 A 
ATOM     22  C   UNL     1      -1.057   0.811   4.237  0.00  0.00    +0.128 A 
ATOM     23  C   UNL     1      -1.064   0.358   2.932  0.00  0.00    +0.058 A 
BRANCH  22  24
ATOM     24  N   UNL     1      -2.225   1.546   4.771  0.00  0.00    +0.056 N 
ATOM     25  O   UNL     1      -2.217   1.947   5.911  0.00  0.00    -0.126 OA
ATOM     26  O   UNL     1      -3.187   1.746   4.066  0.00  0.00    -0.126 OA
ENDBRANCH  22  24
ENDBRANCH   6  18
TORSDOF 3
