REMARK  Name = ZINC27645674
REMARK  3 active torsions:
REMARK  status: ('A' for Active; 'I' for Inactive)
REMARK    1  A    between atoms: C_4  and  N_7
REMARK    2  A    between atoms: C_12  and  N_14
REMARK    3  A    between atoms: N_14  and  C_15
REMARK                            x       y       z     vdW  Elec       q    Type
REMARK                         _______ _______ _______ _____ _____    ______ ____
ROOT
ATOM      1  N   UNL     1      -6.090  -1.625  -2.830  0.00  0.00    -0.284 N 
ATOM      2  C   UNL     1      -4.967  -2.041  -2.130  0.00  0.00    +0.223 A 
ATOM      3  N   UNL     1      -4.938  -3.268  -1.642  0.00  0.00    -0.195 NA
ATOM      4  C   UNL     1      -3.866  -3.707  -0.973  0.00  0.00    +0.165 A 
ATOM      5  C   UNL     1      -2.785  -2.832  -0.781  0.00  0.00    +0.147 A 
ATOM      6  C   UNL     1      -2.868  -1.538  -1.300  0.00  0.00    +0.152 A 
ATOM      7  N   UNL     1      -3.965  -1.187  -1.964  0.00  0.00    -0.197 NA
ATOM      8  N   UNL     1      -1.840  -3.543  -0.068  0.00  0.00    -0.231 NA
ATOM      9  H   UNL     1      -4.234  -5.721  -0.413  0.00  0.00    +0.168 HD
ATOM     10  C   UNL     1      -2.346  -4.778   0.144  0.00  0.00    +0.198 A 
ATOM     11  N   UNL     1      -3.534  -4.873  -0.388  0.00  0.00    -0.329 N 
ATOM     12  H   UNL     1      -6.179  -0.579  -3.157  0.00  0.00    +0.155 HD
ENDROOT
BRANCH   1  16
ATOM     13  C   UNL     1      -9.129  -4.341  -3.691  0.00  0.00    +0.000 A 
ATOM     14  C   UNL     1      -9.440  -3.022  -3.418  0.00  0.00    +0.002 A 
ATOM     15  C   UNL     1      -8.435  -2.119  -3.132  0.00  0.00    +0.023 A 
ATOM     16  C   UNL     1      -7.110  -2.537  -3.119  0.00  0.00    +0.034 A 
ATOM     17  C   UNL     1      -6.801  -3.862  -3.400  0.00  0.00    +0.023 A 
ATOM     18  C   UNL     1      -7.811  -4.761  -3.680  0.00  0.00    +0.002 A 
ENDBRANCH   1  16
BRANCH   6  19
ATOM     19  N   UNL     1      -1.828  -0.640  -1.126  0.00  0.00    -0.324 N 
ATOM     20  H   UNL     1      -0.925  -0.943  -0.575  0.00  0.00    +0.148 HD
BRANCH  19  21
ATOM     21  C   UNL     1      -1.930   0.714  -1.676  0.00  0.00    +0.075 C 
ATOM     22  C   UNL     1      -0.965   1.670  -0.939  0.00  0.00    +0.026 C 
ATOM     23  C   UNL     1       0.008   2.179  -2.047  0.00  0.00    -0.009 C 
ATOM     24  C   UNL     1       0.881   0.934  -2.405  0.00  0.00    +0.004 C 
ATOM     25  C   UNL     1      -0.087  -0.020  -3.140  0.00  0.00    +0.005 C 
ATOM     26  C   UNL     1      -1.451   0.736  -3.160  0.00  0.00    +0.010 C 
ATOM     27  C   UNL     1      -0.958   2.220  -3.284  0.00  0.00    +0.009 C 
ENDBRANCH  19  21
ENDBRANCH   6  19
TORSDOF 3
