REMARK  Name = ZINC39939063
REMARK  8 active torsions:
REMARK  status: ('A' for Active; 'I' for Inactive)
REMARK    1  A    between atoms: C_1  and  N_2
REMARK    2  A    between atoms: C_8  and  O_9
REMARK    3  A    between atoms: O_9  and  C_10
REMARK    4  A    between atoms: C_13  and  C_16
REMARK    5  A    between atoms: C_17  and  C_18
REMARK    6  A    between atoms: C_17  and  C_20
REMARK    7  A    between atoms: N_29  and  C_36
REMARK    8  A    between atoms: N_32  and  C_35
REMARK                            x       y       z     vdW  Elec       q    Type
REMARK                         _______ _______ _______ _____ _____    ______ ____
ROOT
ATOM      1  C   UNL     1       3.909  -0.633   1.050  0.00  0.00    +0.132 A 
ATOM      2  C   UNL     1       3.590  -1.959   0.779  0.00  0.00    +0.047 A 
ATOM      3  C   UNL     1       4.589  -2.872   0.527  0.00  0.00    +0.011 A 
ATOM      4  C   UNL     1       5.928  -2.464   0.545  0.00  0.00    -0.024 A 
ATOM      5  C   UNL     1       6.243  -1.129   0.818  0.00  0.00    +0.011 A 
ATOM      6  C   UNL     1       5.237  -0.222   1.063  0.00  0.00    +0.047 A 
ENDROOT
BRANCH   4   7
ATOM      7  C   UNL     1       6.999  -3.436   0.277  0.00  0.00    +0.026 C 
ATOM      8  C   UNL     1       8.109  -3.051  -0.386  0.00  0.00    +0.072 C 
BRANCH   8   9
ATOM      9  C   UNL     1       8.182  -1.675  -0.998  0.00  0.00    +0.216 C 
ATOM     10  N   UNL     1       8.634  -1.768  -2.392  0.00  0.00    -0.359 N 
ATOM     11  C   UNL     1       9.746  -1.098  -2.487  0.00  0.00    +0.060 A 
ATOM     12  C   UNL     1      10.658  -0.829  -3.607  0.00  0.00    +0.027 A 
ATOM     13  C   UNL     1      11.762  -0.084  -3.402  0.00  0.00    +0.002 A 
ATOM     14  C   UNL     1      12.089   0.458  -2.146  0.00  0.00    +0.002 A 
ATOM     15  C   UNL     1      11.322   0.272  -1.053  0.00  0.00    +0.027 A 
ATOM     16  C   UNL     1      10.092  -0.524  -1.157  0.00  0.00    +0.060 A 
ATOM     17  N   UNL     1       9.180  -0.862  -0.292  0.00  0.00    -0.359 N 
ATOM     18  H   UNL     1       8.186  -2.241  -3.111  0.00  0.00    +0.162 HD
ATOM     19  H   UNL     1       9.162  -0.620   0.647  0.00  0.00    +0.162 HD
ENDBRANCH   8   9
BRANCH   8  20
ATOM     20  C   UNL     1       9.218  -3.949  -0.508  0.00  0.00    +0.099 C 
ATOM     21  N   UNL     1      10.097  -4.661  -0.605  0.00  0.00    -0.191 NA
ENDBRANCH   8  20
ENDBRANCH   4   7
BRANCH   1  22
ATOM     22  O   UNL     1       2.920   0.264   1.297  0.00  0.00    -0.427 OA
BRANCH  22  28
ATOM     23  C   UNL     1       0.905   2.273   2.091  0.00  0.00    +0.134 C 
ATOM     24  N   UNL     1       1.392   1.153   2.899  0.00  0.00    -0.273 N 
ATOM     25  C   UNL     1       0.952   0.822   4.264  0.00  0.00    +0.206 C 
ATOM     26  C   UNL     1       1.796  -0.433   4.610  0.00  0.00    +0.229 C 
ATOM     27  N   UNL     1       2.599  -0.657   3.401  0.00  0.00    -0.211 NA
ATOM     28  C   UNL     1       2.327   0.236   2.511  0.00  0.00    +0.288 C 
ATOM     29  N   UNL     1       2.732  -0.290   5.736  0.00  0.00    -0.264 N 
ATOM     30  C   UNL     1       2.825   0.875   6.393  0.00  0.00    +0.312 C 
ATOM     31  O   UNL     1       3.614   0.939   7.315  0.00  0.00    -0.252 OA
ATOM     32  N   UNL     1       2.117   1.970   6.110  0.00  0.00    -0.227 N 
ATOM     33  C   UNL     1       1.203   2.055   5.108  0.00  0.00    +0.247 C 
ATOM     34  O   UNL     1       0.585   3.078   4.902  0.00  0.00    -0.273 OA
ATOM     35  C   UNL     1       2.345   3.165   6.925  0.00  0.00    +0.143 C 
ATOM     36  C   UNL     1       3.564  -1.425   6.141  0.00  0.00    +0.136 C 
ENDBRANCH  22  28
ENDBRANCH   1  22
TORSDOF 5
