REMARK  Name = ZINC39864175
REMARK  5 active torsions:
REMARK  status: ('A' for Active; 'I' for Inactive)
REMARK    1  A    between atoms: C_1  and  C_2
REMARK    2  A    between atoms: C_2  and  C_23
REMARK    3  A    between atoms: N_6  and  C_17
REMARK    4  A    between atoms: N_8  and  C_9
REMARK    5  A    between atoms: C_26  and  N_29
REMARK                            x       y       z     vdW  Elec       q    Type
REMARK                         _______ _______ _______ _____ _____    ______ ____
ROOT
ATOM      1  C   UNL     1      -0.508   1.314  -0.002  0.00  0.00    +0.045 C 
ATOM      2  C   UNL     1      -0.273  -0.175   0.008  0.00  0.00    -0.024 C 
ATOM      3  C   UNL     1      -0.209  -0.844   1.187  0.00  0.00    +0.081 C 
ATOM      4  C   UNL     1      -0.343  -0.331   2.563  0.00  0.00    +0.260 C 
ATOM      5  O   UNL     1      -0.543   0.849   2.785  0.00  0.00    -0.269 OA
ATOM      6  N   UNL     1      -0.237  -1.210   3.545  0.00  0.00    -0.243 N 
ATOM      7  C   UNL     1      -0.011  -2.542   3.273  0.00  0.00    +0.169 C 
ATOM      8  N   UNL     1       0.119  -3.538   4.120  0.00  0.00    -0.222 NA
ATOM      9  S   UNL     1       0.055  -2.586   1.490  0.00  0.00    -0.048 S 
ENDROOT
BRANCH   8  10
ATOM     10  C   UNL     1       0.007  -3.312   5.466  0.00  0.00    +0.103 A 
ATOM     11  C   UNL     1      -1.237  -3.405   6.102  0.00  0.00    +0.032 A 
ATOM     12  C   UNL     1      -1.296  -3.167   7.464  0.00  0.00    +0.022 A 
ATOM     13  C   UNL     1      -0.137  -2.848   8.148  0.00  0.00    +0.112 A 
ATOM     14  N   UNL     1       1.022  -2.766   7.523  0.00  0.00    -0.241 NA
ATOM     15  C   UNL     1       1.133  -2.989   6.229  0.00  0.00    +0.154 A 
ATOM     16 CL   UNL     1       2.687  -2.874   5.465  0.00  0.00    -0.060 Cl
ENDBRANCH   8  10
BRANCH   6  17
ATOM     17  C   UNL     1      -0.360  -0.764   4.935  0.00  0.00    +0.084 C 
ATOM     18  C   UNL     1      -1.674  -0.001   5.111  0.00  0.00    +0.023 C 
ATOM     19  C   UNL     1      -1.803   0.465   6.562  0.00  0.00    +0.002 C 
ATOM     20  C   UNL     1      -0.630   1.384   6.909  0.00  0.00    +0.000 C 
ATOM     21  C   UNL     1       0.684   0.620   6.734  0.00  0.00    +0.002 C 
ATOM     22  C   UNL     1       0.813   0.154   5.282  0.00  0.00    +0.023 C 
ENDBRANCH   6  17
BRANCH   2  23
ATOM     23  C   UNL     1      -0.115  -0.901  -1.258  0.00  0.00    -0.021 A 
ATOM     24  C   UNL     1       1.103  -1.521  -1.565  0.00  0.00    +0.010 A 
ATOM     25  C   UNL     1       1.246  -2.199  -2.749  0.00  0.00    +0.023 A 
ATOM     26  C   UNL     1       0.182  -2.271  -3.644  0.00  0.00    +0.025 A 
ATOM     27  C   UNL     1      -1.030  -1.657  -3.344  0.00  0.00    +0.023 A 
ATOM     28  C   UNL     1      -1.184  -0.982  -2.160  0.00  0.00    +0.010 A 
BRANCH  26  29
ATOM     29  N   UNL     1       0.332  -2.961  -4.845  0.00  0.00    -0.358 N 
ATOM     30  H   UNL     1       1.176  -3.389  -5.056  0.00  0.00    +0.142 HD
ATOM     31  H   UNL     1      -0.408  -3.013  -5.470  0.00  0.00    +0.142 HD
ENDBRANCH  26  29
ENDBRANCH   2  23
TORSDOF 4
