REMARK  Name = ZINC18227519
REMARK  6 active torsions:
REMARK  status: ('A' for Active; 'I' for Inactive)
REMARK    1  A    between atoms: C_1  and  C_2
REMARK    2  A    between atoms: C_7  and  S_9
REMARK    3  A    between atoms: S_9  and  C_10
REMARK    4  A    between atoms: C_10  and  C_11
REMARK    5  A    between atoms: C_11  and  C_13
REMARK    6  A    between atoms: C_22  and  C_23
REMARK                            x       y       z     vdW  Elec       q    Type
REMARK                         _______ _______ _______ _____ _____    ______ ____
ROOT
ATOM      1  C   UNL     1       0.111  -6.872   3.350  0.00  0.00    +0.051 A 
ATOM      2  H   UNL     1       0.156  -9.867   4.407  0.00  0.00    +0.166 HD
ATOM      3  C   UNL     1       0.116  -7.664   2.106  0.00  0.00    +0.011 A 
ATOM      4  C   UNL     1       0.106  -7.330   0.753  0.00  0.00    +0.011 A 
ATOM      5  C   UNL     1       0.115  -8.328  -0.196  0.00  0.00    +0.001 A 
ATOM      6  C   UNL     1       0.134  -9.661   0.190  0.00  0.00    +0.002 A 
ATOM      7  C   UNL     1       0.144 -10.005   1.524  0.00  0.00    +0.026 A 
ATOM      8  C   UNL     1       0.136  -9.011   2.499  0.00  0.00    +0.048 A 
ATOM      9  N   UNL     1       0.142  -9.053   3.879  0.00  0.00    -0.354 N 
ATOM     10  C   UNL     1       0.134  -7.793   4.395  0.00  0.00    +0.058 A 
ENDROOT
BRANCH  10  11
ATOM     11  C   UNL     1       0.143  -7.457   5.832  0.00  0.00    -0.001 A 
ATOM     12  C   UNL     1       0.984  -6.449   6.311  0.00  0.00    +0.010 A 
ATOM     13  C   UNL     1       0.987  -6.140   7.656  0.00  0.00    +0.001 A 
ATOM     14  C   UNL     1       0.161  -6.826   8.528  0.00  0.00    +0.000 A 
ATOM     15  C   UNL     1      -0.675  -7.825   8.061  0.00  0.00    +0.001 A 
ATOM     16  C   UNL     1      -0.693  -8.140   6.718  0.00  0.00    +0.010 A 
ENDBRANCH  10  11
BRANCH   1  17
ATOM     17  C   UNL     1       0.092  -5.463   3.460  0.00  0.00    +0.176 C 
ATOM     18  O   UNL     1       0.090  -4.940   4.556  0.00  0.00    -0.291 OA
BRANCH  17  19
ATOM     19  C   UNL     1       0.075  -4.611   2.217  0.00  0.00    +0.157 C 
BRANCH  19  20
ATOM     20  S   UNL     1       0.053  -2.859   2.687  0.00  0.00    -0.078 S 
BRANCH  20  27
ATOM     21  C   UNL     1      -0.018   1.503   0.010  0.00  0.00    +0.066 C 
ATOM     22  C   UNL     1       0.002  -0.004   0.002  0.00  0.00    +0.046 A 
ATOM     23  C   UNL     1       0.006  -0.696  -1.195  0.00  0.00    +0.095 A 
ATOM     24  C   UNL     1       0.025  -2.090  -1.157  0.00  0.00    +0.274 A 
ATOM     25  O   UNL     1       0.030  -2.808  -2.307  0.00  0.00    -0.266 OA
ATOM     26  N   UNL     1       0.039  -2.704   0.019  0.00  0.00    -0.183 NA
ATOM     27  C   UNL     1       0.035  -2.005   1.145  0.00  0.00    +0.192 A 
ATOM     28  N   UNL     1       0.022  -0.679   1.141  0.00  0.00    -0.227 NA
ENDBRANCH  20  27
ENDBRANCH  19  20
ENDBRANCH  17  19
ENDBRANCH   1  17
TORSDOF 5
