REMARK  Name = ZINC64788639
REMARK  6 active torsions:
REMARK  status: ('A' for Active; 'I' for Inactive)
REMARK    1  A    between atoms: C_1  and  C_2
REMARK    2  A    between atoms: C_4  and  C_31
REMARK    3  A    between atoms: C_6  and  N_8
REMARK    4  A    between atoms: C_20  and  C_23
REMARK    5  A    between atoms: C_26  and  O_29
REMARK    6  A    between atoms: O_29  and  C_30
REMARK                            x       y       z     vdW  Elec       q    Type
REMARK                         _______ _______ _______ _____ _____    ______ ____
ROOT
ATOM      1  N   UNL     1       0.052  -2.798   2.395  0.00  0.00    -0.190 N 
ATOM      2  C   UNL     1       0.145  -2.119   3.557  0.00  0.00    +0.265 C 
ATOM      3  O   UNL     1       0.215  -0.904   3.566  0.00  0.00    -0.269 OA
ATOM      4  C   UNL     1       0.160  -2.887   4.814  0.00  0.00    +0.118 C 
ATOM      5  C   UNL     1       0.070  -4.354   4.704  0.00  0.00    +0.258 C 
ATOM      6  N   UNL     1      -0.019  -4.898   3.473  0.00  0.00    -0.235 N 
ATOM      7  C   UNL     1      -0.032  -4.136   2.370  0.00  0.00    +0.320 C 
ATOM      8  O   UNL     1      -0.119  -4.687   1.290  0.00  0.00    -0.251 OA
ATOM      9  O   UNL     1       0.076  -5.056   5.698  0.00  0.00    -0.270 OA
ATOM     10  C   UNL     1       0.253  -2.260   6.042  0.00  0.00    +0.038 C 
ATOM     11  N   UNL     1       0.334  -0.932   6.249  0.00  0.00    -0.283 N 
ATOM     12  N   UNL     1       0.381  -0.602   7.571  0.00  0.00    -0.235 NA
ATOM     13  C   UNL     1       0.777  -1.813   8.327  0.00  0.00    +0.108 C 
ATOM     14  C   UNL     1       0.277  -2.946   7.396  0.00  0.00    +0.077 C 
ATOM     15  H   UNL     1       1.030   0.153   7.732  0.00  0.00    +0.145 HD
ATOM     16  H   UNL     1      -0.079  -5.862   3.383  0.00  0.00    +0.159 HD
ATOM     17  H   UNL     1       0.357  -0.279   5.533  0.00  0.00    +0.166 HD
ENDROOT
BRANCH   1  23
ATOM     18  C   UNL     1       2.501  -0.799  -1.373  0.00  0.00    +0.044 C 
ATOM     19  C   UNL     1       1.209  -1.106  -0.660  0.00  0.00    -0.048 A 
ATOM     20  C   UNL     1       0.007  -0.687  -1.199  0.00  0.00    +0.006 A 
ATOM     21  C   UNL     1      -1.181  -0.968  -0.549  0.00  0.00    -0.048 A 
ATOM     22  C   UNL     1      -1.169  -1.667   0.642  0.00  0.00    +0.027 A 
ATOM     23  C   UNL     1       0.037  -2.089   1.186  0.00  0.00    +0.046 A 
ATOM     24  C   UNL     1       1.227  -1.810   0.528  0.00  0.00    +0.027 A 
ATOM     25  C   UNL     1      -2.489  -0.509  -1.139  0.00  0.00    +0.044 C 
ENDBRANCH   1  23
BRANCH  13  26
ATOM     26  C   UNL     1       0.077  -1.867   9.661  0.00  0.00    -0.028 A 
ATOM     27  C   UNL     1      -1.243  -1.469   9.765  0.00  0.00    +0.009 A 
ATOM     28  C   UNL     1      -1.886  -1.518  10.986  0.00  0.00    +0.046 A 
ATOM     29  C   UNL     1      -1.207  -1.967  12.110  0.00  0.00    +0.120 A 
ATOM     30  C   UNL     1       0.117  -2.367  12.003  0.00  0.00    +0.046 A 
ATOM     31  C   UNL     1       0.755  -2.321  10.778  0.00  0.00    +0.009 A 
BRANCH  29  32
ATOM     32  O   UNL     1      -1.837  -2.016  13.312  0.00  0.00    -0.495 OA
ATOM     33  C   UNL     1      -1.076  -2.489  14.425  0.00  0.00    +0.277 C 
ENDBRANCH  29  32
ENDBRANCH  13  26
TORSDOF 3
