REMARK  Name = ZINC59123798
REMARK  5 active torsions:
REMARK  status: ('A' for Active; 'I' for Inactive)
REMARK    1  A    between atoms: C_1  and  O_2
REMARK    2  A    between atoms: O_2  and  C_3
REMARK    3  A    between atoms: C_3  and  C_5
REMARK    4  A    between atoms: N_7  and  C_25
REMARK    5  A    between atoms: C_16  and  C_19
REMARK                            x       y       z     vdW  Elec       q    Type
REMARK                         _______ _______ _______ _____ _____    ______ ____
ROOT
ATOM      1  C   UNL     1       0.430  -2.114   1.269  0.00  0.00    +0.202 C 
ATOM      2  N   UNL     1      -0.054  -2.976   0.411  0.00  0.00    -0.163 NA
ATOM      3  N   UNL     1       0.315  -4.312   0.399  0.00  0.00    -0.192 N 
ATOM      4  C   UNL     1       1.285  -4.680   1.417  0.00  0.00    +0.181 C 
ATOM      5  S   UNL     1       1.559  -3.086   2.260  0.00  0.00    -0.054 S 
ATOM      6  C   UNL     1       2.569  -5.271   0.896  0.00  0.00    +0.003 A 
ATOM      7  C   UNL     1       3.557  -4.570   0.197  0.00  0.00    +0.008 A 
ATOM      8  C   UNL     1       4.706  -5.186  -0.237  0.00  0.00    +0.000 A 
ATOM      9  C   UNL     1       4.898  -6.531   0.020  0.00  0.00    +0.000 A 
ATOM     10  C   UNL     1       3.931  -7.231   0.702  0.00  0.00    +0.005 A 
ATOM     11  C   UNL     1       2.758  -6.617   1.144  0.00  0.00    -0.023 A 
ATOM     12  C   UNL     1       1.637  -7.345   1.892  0.00  0.00    +0.110 C 
ATOM     13  S   UNL     1       0.662  -5.940   2.576  0.00  0.00    -0.105 S 
ENDROOT
BRANCH  12  14
ATOM     14  C   UNL     1       2.197  -8.203   2.998  0.00  0.00    -0.030 A 
ATOM     15  C   UNL     1       2.923  -7.623   4.021  0.00  0.00    +0.005 A 
ATOM     16  C   UNL     1       3.437  -8.409   5.036  0.00  0.00    +0.000 A 
ATOM     17  C   UNL     1       3.223  -9.775   5.028  0.00  0.00    +0.000 A 
ATOM     18  C   UNL     1       2.495 -10.354   4.005  0.00  0.00    +0.000 A 
ATOM     19  C   UNL     1       1.979  -9.568   2.993  0.00  0.00    +0.005 A 
ENDBRANCH  12  14
BRANCH   3  20
ATOM     20  C   UNL     1      -0.202  -5.229  -0.516  0.00  0.00    +0.054 A 
ATOM     21  C   UNL     1      -1.575  -5.317  -0.714  0.00  0.00    +0.025 A 
ATOM     22  C   UNL     1      -2.084  -6.225  -1.621  0.00  0.00    +0.002 A 
ATOM     23  C   UNL     1      -1.229  -7.048  -2.332  0.00  0.00    +0.000 A 
ATOM     24  C   UNL     1       0.138  -6.963  -2.138  0.00  0.00    +0.002 A 
ATOM     25  C   UNL     1       0.654  -6.054  -1.237  0.00  0.00    +0.025 A 
ENDBRANCH   3  20
BRANCH   1  26
ATOM     26  C   UNL     1       0.124  -0.684   1.385  0.00  0.00    +0.366 C 
ATOM     27  O   UNL     1       0.668  -0.013   2.241  0.00  0.00    -0.243 OA
BRANCH  26  29
ATOM     28  C   UNL     1      -1.012   1.284   0.714  0.00  0.00    +0.280 C 
ATOM     29  O   UNL     1      -0.762  -0.113   0.543  0.00  0.00    -0.463 OA
ENDBRANCH  26  29
ENDBRANCH   1  26
TORSDOF 4
