REMARK  Name = ZINC62554730
REMARK  6 active torsions:
REMARK  status: ('A' for Active; 'I' for Inactive)
REMARK    1  A    between atoms: C_4  and  C_7
REMARK    2  A    between atoms: C_7  and  N_24
REMARK    3  A    between atoms: C_13  and  C_15
REMARK    4  A    between atoms: C_15  and  C_16
REMARK    5  A    between atoms: C_16  and  O_17
REMARK    6  A    between atoms: O_17  and  C_18
REMARK                            x       y       z     vdW  Elec       q    Type
REMARK                         _______ _______ _______ _____ _____    ______ ____
ROOT
ATOM      1  C   UNL     1       3.711  -0.707  -0.038  0.00  0.00    -0.037 C 
ATOM      2  C   UNL     1       4.492  -0.425  -1.323  0.00  0.00    +0.012 C 
ATOM      3  C   UNL     1       5.815  -1.197  -1.292  0.00  0.00    +0.107 C 
ATOM      4  N   UNL     1       6.536  -0.851  -0.059  0.00  0.00    -0.301 N 
ATOM      5  C   UNL     1       5.845  -0.998   1.229  0.00  0.00    +0.107 C 
ATOM      6  C   UNL     1       4.522  -0.228   1.169  0.00  0.00    +0.012 C 
ATOM      7  C   UNL     1       7.807  -0.406  -0.110  0.00  0.00    +0.219 C 
ATOM      8  O   UNL     1       8.367  -0.289  -1.179  0.00  0.00    -0.275 OA
ENDROOT
BRANCH   1  12
ATOM      9  C   UNL     1      -0.021   1.367  -0.157  0.00  0.00    +0.000 A 
ATOM     10  C   UNL     1       0.597   1.126   1.055  0.00  0.00    +0.000 A 
ATOM     11  C   UNL     1       1.804   0.454   1.094  0.00  0.00    +0.002 A 
ATOM     12  C   UNL     1       2.394   0.024  -0.080  0.00  0.00    -0.058 A 
ATOM     13  C   UNL     1       1.776   0.265  -1.292  0.00  0.00    +0.002 A 
ATOM     14  C   UNL     1       0.569   0.938  -1.331  0.00  0.00    +0.000 A 
ENDBRANCH   1  12
BRANCH   1  15
ATOM     15  N   UNL     1       3.466  -2.151   0.079  0.00  0.00    +0.386 N 
ATOM     16  C   UNL     1       2.582  -2.428   1.240  0.00  0.00    -0.078 C 
ATOM     17  C   UNL     1       1.980  -3.816   0.904  0.00  0.00    -0.020 C 
ATOM     18  C   UNL     1       1.772  -3.741  -0.626  0.00  0.00    -0.020 C 
ATOM     19  C   UNL     1       2.736  -2.642  -1.110  0.00  0.00    -0.078 C 
ATOM     20  H   UNL     1       4.340  -2.646   0.180  0.00  0.00    -0.081 HD
ENDBRANCH   1  15
BRANCH   7  21
ATOM     21  C   UNL     1       8.533  -0.055   1.163  0.00  0.00    +0.137 C 
BRANCH  21  22
ATOM     22  C   UNL     1       9.949   0.419   0.829  0.00  0.00    +0.238 C 
BRANCH  22  23
ATOM     23  O   UNL     1      10.638   0.752   2.036  0.00  0.00    -0.491 OA
BRANCH  23  24
ATOM     24  C   UNL     1      11.917   1.194   1.915  0.00  0.00    +0.121 A 
ATOM     25  C   UNL     1      12.496   1.310   0.659  0.00  0.00    +0.045 A 
ATOM     26  C   UNL     1      13.797   1.760   0.538  0.00  0.00    +0.004 A 
ATOM     27  C   UNL     1      14.521   2.094   1.667  0.00  0.00    +0.000 A 
ATOM     28  C   UNL     1      13.947   1.978   2.920  0.00  0.00    +0.004 A 
ATOM     29  C   UNL     1      12.645   1.535   3.045  0.00  0.00    +0.045 A 
ENDBRANCH  23  24
ENDBRANCH  22  23
ENDBRANCH  21  22
ENDBRANCH   7  21
TORSDOF 6
