REMARK  Name = ZINC39533294
REMARK  13 active torsions:
REMARK  status: ('A' for Active; 'I' for Inactive)
REMARK    1  A    between atoms: C_1  and  C_2
REMARK    2  A    between atoms: C_2  and  C_3
REMARK    3  A    between atoms: C_3  and  C_4
REMARK    4  A    between atoms: C_7  and  C_10
REMARK    5  A    between atoms: C_10  and  C_12
REMARK    6  A    between atoms: C_10  and  N_23
REMARK    7  A    between atoms: C_12  and  N_13
REMARK    8  A    between atoms: N_13  and  S_14
REMARK    9  A    between atoms: S_14  and  C_17
REMARK   10  A    between atoms: C_27  and  S_30
REMARK   11  A    between atoms: S_30  and  C_33
REMARK   12  A    between atoms: C_33  and  C_34
REMARK   13  A    between atoms: C_33  and  C_35
REMARK                            x       y       z     vdW  Elec       q    Type
REMARK                         _______ _______ _______ _____ _____    ______ ____
ROOT
ATOM      1  C   UNL     1       0.844  -5.556  -1.194  0.00  0.00    +0.102 C 
ENDROOT
BRANCH   1   2
ATOM      2  N   UNL     1       0.202  -6.080  -2.407  0.00  0.00    -0.290 NA
ATOM      3  C   UNL     1      -0.040  -7.525  -2.294  0.00  0.00    +0.100 C 
ATOM      4  C   UNL     1      -0.780  -8.016  -3.540  0.00  0.00    +0.098 C 
ATOM      5  N   UNL     1       0.021  -7.711  -4.734  0.00  0.00    -0.293 NA
ATOM      6  C   UNL     1       0.263  -6.266  -4.848  0.00  0.00    +0.212 C 
ATOM      7  C   UNL     1       1.002  -5.775  -3.601  0.00  0.00    +0.127 C 
ATOM      8  H   UNL     1       0.891  -8.223  -4.727  0.00  0.00    +0.124 HD
BRANCH   6   9
ATOM      9  S   UNL     1       1.270  -5.934  -6.320  0.00  0.00    -0.012 S 
ATOM     10  O   UNL     1       1.303  -4.530  -6.535  0.00  0.00    -0.173 OA
ATOM     11  O   UNL     1       2.494  -6.643  -6.195  0.00  0.00    -0.173 OA
BRANCH   9  12
ATOM     12  C   UNL     1       0.298  -6.695  -7.649  0.00  0.00    +0.126 C 
ATOM     13  C   UNL     1      -1.073  -6.022  -7.729  0.00  0.00    +0.031 C 
ATOM     14  C   UNL     1       1.031  -6.518  -8.981  0.00  0.00    +0.031 C 
ENDBRANCH   9  12
ENDBRANCH   6   9
ENDBRANCH   1   2
BRANCH   1  18
ATOM     15  C   UNL     1       1.266  -1.318  -1.525  0.00  0.00    -0.047 A 
ATOM     16  C   UNL     1       2.282  -2.073  -0.968  0.00  0.00    +0.004 A 
ATOM     17  C   UNL     1       2.145  -3.444  -0.861  0.00  0.00    +0.005 A 
ATOM     18  C   UNL     1       0.993  -4.061  -1.310  0.00  0.00    -0.029 A 
ATOM     19  C   UNL     1      -0.023  -3.306  -1.867  0.00  0.00    +0.005 A 
ATOM     20  C   UNL     1       0.112  -1.935  -1.970  0.00  0.00    +0.004 A 
BRANCH  15  21
ATOM     21  C   UNL     1       1.416   0.177  -1.642  0.00  0.00    +0.035 C 
BRANCH  21  23
ATOM     22  C   UNL     1       1.028   2.361  -0.493  0.00  0.00    +0.004 C 
ATOM     23  C   UNL     1       0.877   0.844  -0.374  0.00  0.00    +0.001 C 
ENDBRANCH  21  23
ENDBRANCH  15  21
ENDBRANCH   1  18
BRANCH   1  24
ATOM     24  C   UNL     1      -0.019  -5.890   0.024  0.00  0.00    +0.129 C 
BRANCH  24  25
ATOM     25  N   UNL     1       0.661  -5.440   1.242  0.00  0.00    -0.188 NA
ATOM     26  H   UNL     1       1.608  -5.231   1.219  0.00  0.00    +0.148 HD
BRANCH  25  27
ATOM     27  S   UNL     1      -0.188  -5.289   2.656  0.00  0.00    +0.058 S 
ATOM     28  O   UNL     1       0.742  -4.866   3.644  0.00  0.00    -0.153 OA
ATOM     29  O   UNL     1      -1.361  -4.548   2.348  0.00  0.00    -0.153 OA
BRANCH  27  30
ATOM     30  C   UNL     1      -0.718  -6.903   3.120  0.00  0.00    +0.105 A 
ATOM     31  C   UNL     1      -1.935  -7.386   2.675  0.00  0.00    +0.028 A 
ATOM     32  C   UNL     1      -2.351  -8.652   3.040  0.00  0.00    +0.002 A 
ATOM     33  C   UNL     1      -1.551  -9.437   3.849  0.00  0.00    +0.000 A 
ATOM     34  C   UNL     1      -0.334  -8.954   4.294  0.00  0.00    +0.002 A 
ATOM     35  C   UNL     1       0.085  -7.689   3.926  0.00  0.00    +0.028 A 
ENDBRANCH  27  30
ENDBRANCH  25  27
ENDBRANCH  24  25
ENDBRANCH   1  24
TORSDOF 10
