REMARK  Name = ZINC00968752
REMARK  6 active torsions:
REMARK  status: ('A' for Active; 'I' for Inactive)
REMARK    1  A    between atoms: C_1  and  C_2
REMARK    2  A    between atoms: C_5  and  C_8
REMARK    3  A    between atoms: C_11  and  C_13
REMARK    4  A    between atoms: C_17  and  S_27
REMARK    5  A    between atoms: C_18  and  C_25
REMARK    6  A    between atoms: S_27  and  C_28
REMARK                            x       y       z     vdW  Elec       q    Type
REMARK                         _______ _______ _______ _____ _____    ______ ____
ROOT
ATOM      1  C   UNL     1       1.689   4.043   0.397  0.00  0.00    +0.117 C 
ATOM      2  C   UNL     1       0.255   4.233  -0.057  0.00  0.00    +0.080 C 
ATOM      3  N   UNL     1      -0.644   3.252   0.326  0.00  0.00    -0.298 N 
ATOM      4  C   UNL     1      -0.201   1.944   0.329  0.00  0.00    +0.080 C 
ATOM      5  C   UNL     1       1.107   1.637   0.149  0.00  0.00    +0.064 C 
ATOM      6  C   UNL     1       2.164   2.675  -0.104  0.00  0.00    +0.023 C 
ATOM      7  C   UNL     1       2.449   2.761  -1.606  0.00  0.00    +0.013 C 
ATOM      8  C   UNL     1       3.519   3.824  -1.860  0.00  0.00    +0.001 C 
ATOM      9  C   UNL     1       4.803   3.443  -1.121  0.00  0.00    +0.000 C 
ATOM     10  C   UNL     1       4.520   3.351   0.380  0.00  0.00    +0.001 C 
ATOM     11  C   UNL     1       3.449   2.288   0.633  0.00  0.00    +0.013 C 
ATOM     12  H   UNL     1      -1.010   5.437  -1.087  0.00  0.00    +0.157 HD
ATOM     13  H   UNL     1      -1.554   3.475   0.579  0.00  0.00    +0.154 HD
ATOM     14  N   UNL     1      -0.050   5.293  -0.773  0.00  0.00    -0.390 N 
ATOM     15  H   UNL     1       0.678   5.975  -1.015  0.00  0.00    +0.157 HD
ENDROOT
BRANCH   1  19
ATOM     16  C   UNL     1       2.399   4.804   3.989  0.00  0.00    +0.078 A 
ATOM     17  C   UNL     1       1.602   3.834   4.536  0.00  0.00    +0.075 A 
ATOM     18  S   UNL     1       0.936   3.085   3.057  0.00  0.00    -0.079 S 
ATOM     19  C   UNL     1       1.757   4.087   1.902  0.00  0.00    +0.090 A 
ATOM     20  N   UNL     1       2.447   4.895   2.670  0.00  0.00    -0.243 NA
BRANCH  16  25
ATOM     21  C   UNL     1       5.447   8.374   7.326  0.00  0.00    +0.044 C 
ATOM     22  C   UNL     1       4.649   7.440   6.453  0.00  0.00    -0.050 A 
ATOM     23  C   UNL     1       3.934   6.404   7.026  0.00  0.00    +0.004 A 
ATOM     24  C   UNL     1       3.201   5.545   6.231  0.00  0.00    +0.010 A 
ATOM     25  C   UNL     1       3.184   5.724   4.849  0.00  0.00    +0.001 A 
ATOM     26  C   UNL     1       3.911   6.766   4.277  0.00  0.00    +0.010 A 
ATOM     27  C   UNL     1       4.635   7.622   5.082  0.00  0.00    +0.004 A 
ENDBRANCH  16  25
ENDBRANCH   1  19
BRANCH   5  28
ATOM     28  C   UNL     1       1.498   0.260   0.195  0.00  0.00    +0.098 C 
ATOM     29  N   UNL     1       1.809  -0.832   0.232  0.00  0.00    -0.191 NA
ENDBRANCH   5  28
BRANCH   4  30
ATOM     30  S   UNL     1      -1.362   0.643   0.580  0.00  0.00    -0.113 S 
ATOM     31  C   UNL     1      -2.883   1.609   0.754  0.00  0.00    +0.091 C 
ENDBRANCH   4  30
TORSDOF 4
