REMARK  Name = ZINC20722473
REMARK  7 active torsions:
REMARK  status: ('A' for Active; 'I' for Inactive)
REMARK    1  A    between atoms: C_1  and  O_2
REMARK    2  A    between atoms: O_2  and  C_3
REMARK    3  A    between atoms: C_3  and  C_5
REMARK    4  A    between atoms: C_5  and  C_7
REMARK    5  A    between atoms: C_5  and  N_14
REMARK    6  A    between atoms: C_7  and  C_8
REMARK    7  A    between atoms: C_26  and  C_28
REMARK                            x       y       z     vdW  Elec       q    Type
REMARK                         _______ _______ _______ _____ _____    ______ ____
ROOT
ATOM      1  N   UNL     1      -2.691  -2.410   2.129  0.00  0.00    -0.286 N 
ATOM      2  C   UNL     1      -3.391  -2.748   1.029  0.00  0.00    +0.304 C 
ATOM      3  O   UNL     1      -2.898  -2.605  -0.074  0.00  0.00    -0.253 OA
ATOM      4  N   UNL     1      -4.638  -3.247   1.150  0.00  0.00    -0.273 N 
ATOM      5  C   UNL     1      -5.364  -3.752  -0.025  0.00  0.00    +0.116 C 
ATOM      6  C   UNL     1      -5.608  -5.257   0.146  0.00  0.00    +0.074 C 
ATOM      7  C   UNL     1      -6.093  -5.514   1.549  0.00  0.00    +0.040 A 
ATOM      8  C   UNL     1      -5.960  -4.654   2.581  0.00  0.00    +0.062 A 
ATOM      9  N   UNL     1      -6.500  -5.217   3.664  0.00  0.00    -0.348 N 
ATOM     10  C   UNL     1      -6.968  -6.396   3.344  0.00  0.00    +0.171 A 
ATOM     11  N   UNL     1      -6.734  -6.616   2.030  0.00  0.00    -0.349 N 
ATOM     12  H   UNL     1      -6.976  -7.408   1.526  0.00  0.00    +0.166 HD
ATOM     13  C   UNL     1      -5.304  -3.303   2.463  0.00  0.00    +0.157 C 
ATOM     14  H   UNL     1      -3.110  -2.452   3.003  0.00  0.00    +0.151 HD
ATOM     15  H   UNL     1      -6.539  -4.817   4.546  0.00  0.00    +0.167 HD
ENDROOT
BRANCH  13  16
ATOM     16  C   UNL     1      -6.348  -2.221   2.556  0.00  0.00    -0.003 A 
ATOM     17  C   UNL     1      -7.599  -2.510   3.069  0.00  0.00    +0.007 A 
ATOM     18  C   UNL     1      -8.557  -1.517   3.154  0.00  0.00    +0.000 A 
ATOM     19  C   UNL     1      -8.266  -0.235   2.726  0.00  0.00    +0.001 A 
ATOM     20  C   UNL     1      -7.016   0.055   2.213  0.00  0.00    +0.020 A 
ATOM     21  C   UNL     1      -6.054  -0.937   2.133  0.00  0.00    +0.046 A 
ATOM     22 CL   UNL     1      -4.481  -0.572   1.495  0.00  0.00    -0.083 Cl
ENDBRANCH  13  16
BRANCH   1  23
ATOM     23  C   UNL     1      -1.297  -1.977   2.006  0.00  0.00    +0.187 C 
BRANCH  23  24
ATOM     24  C   UNL     1      -0.396  -3.185   1.981  0.00  0.00    +0.328 C 
ATOM     25  O   UNL     1      -0.870  -4.293   2.058  0.00  0.00    -0.249 OA
BRANCH  24  27
ATOM     26  C   UNL     1       1.726  -4.218   1.856  0.00  0.00    +0.280 C 
ATOM     27  O   UNL     1       0.933  -3.029   1.873  0.00  0.00    -0.467 OA
ENDBRANCH  24  27
ENDBRANCH  23  24
BRANCH  23  28
ATOM     28  C   UNL     1      -0.930  -1.092   3.199  0.00  0.00    +0.069 C 
BRANCH  28  29
ATOM     29  C   UNL     1      -1.746   0.174   3.155  0.00  0.00    -0.045 A 
ATOM     30  C   UNL     1      -1.269   1.280   2.476  0.00  0.00    +0.004 A 
ATOM     31  C   UNL     1      -2.018   2.442   2.435  0.00  0.00    +0.000 A 
ATOM     32  C   UNL     1      -3.243   2.497   3.073  0.00  0.00    +0.000 A 
ATOM     33  C   UNL     1      -3.720   1.391   3.750  0.00  0.00    +0.000 A 
ATOM     34  C   UNL     1      -2.974   0.228   3.788  0.00  0.00    +0.004 A 
ENDBRANCH  28  29
ENDBRANCH  23  28
ENDBRANCH   1  23
TORSDOF 6
