REMARK  Name = ZINC09144449
REMARK  7 active torsions:
REMARK  status: ('A' for Active; 'I' for Inactive)
REMARK    1  A    between atoms: C_4  and  C_7
REMARK    2  A    between atoms: C_8  and  C_18
REMARK    3  A    between atoms: N_10  and  C_12
REMARK    4  A    between atoms: C_21  and  C_33
REMARK    5  A    between atoms: N_23  and  C_24
REMARK    6  A    between atoms: C_24  and  N_26
REMARK    7  A    between atoms: N_26  and  C_27
REMARK                            x       y       z     vdW  Elec       q    Type
REMARK                         _______ _______ _______ _____ _____    ______ ____
ROOT
ATOM      1  C   UNL     1       1.610  -0.166  -0.546  0.00  0.00    +0.139 C 
ATOM      2  C   UNL     1       2.623   0.924  -0.143  0.00  0.00    +0.087 C 
ATOM      3  C   UNL     1       1.761   2.040   0.403  0.00  0.00    +0.075 C 
ATOM      4  N   UNL     1       0.518   1.694   0.341  0.00  0.00    -0.181 NA
ATOM      5  N   UNL     1       0.308   0.425  -0.197  0.00  0.00    -0.196 N 
ENDROOT
BRANCH   1   7
ATOM      6  C   UNL     1       2.641  -2.520  -0.161  0.00  0.00    +0.098 A 
ATOM      7  C   UNL     1       1.847  -1.428   0.242  0.00  0.00    +0.021 A 
ATOM      8  C   UNL     1       1.342  -1.710   1.463  0.00  0.00    +0.120 A 
ATOM      9  N   UNL     1       1.788  -2.941   1.824  0.00  0.00    -0.239 N 
ATOM     10  N   UNL     1       2.602  -3.427   0.793  0.00  0.00    -0.166 NA
BRANCH   6  14
ATOM     11  C   UNL     1       4.785  -2.833  -3.820  0.00  0.00    +0.000 A 
ATOM     12  C   UNL     1       4.672  -1.606  -3.190  0.00  0.00    +0.001 A 
ATOM     13  C   UNL     1       3.977  -1.499  -2.002  0.00  0.00    +0.010 A 
ATOM     14  C   UNL     1       3.389  -2.629  -1.438  0.00  0.00    +0.002 A 
ATOM     15  C   UNL     1       3.512  -3.863  -2.073  0.00  0.00    +0.010 A 
ATOM     16  C   UNL     1       4.204  -3.958  -3.263  0.00  0.00    +0.001 A 
ENDBRANCH   6  14
BRANCH   9  17
ATOM     17  C   UNL     1       1.490  -3.607   3.020  0.00  0.00    +0.065 A 
ATOM     18  C   UNL     1       0.668  -3.006   3.965  0.00  0.00    +0.028 A 
ATOM     19  C   UNL     1       0.372  -3.666   5.141  0.00  0.00    +0.002 A 
ATOM     20  C   UNL     1       0.902  -4.920   5.383  0.00  0.00    +0.000 A 
ATOM     21  C   UNL     1       1.724  -5.520   4.447  0.00  0.00    +0.002 A 
ATOM     22  C   UNL     1       2.020  -4.866   3.267  0.00  0.00    +0.028 A 
ENDBRANCH   9  17
ENDBRANCH   1   7
BRANCH   3  23
ATOM     23  C   UNL     1       2.259   3.317   0.924  0.00  0.00    +0.035 A 
ATOM     24  C   UNL     1       1.547   4.386   1.439  0.00  0.00    +0.017 A 
ATOM     25  C   UNL     1       2.246   5.490   1.871  0.00  0.00    +0.008 A 
ATOM     26  C   UNL     1       3.601   5.497   1.778  0.00  0.00    +0.046 A 
ATOM     27  S   UNL     1       3.942   3.896   1.064  0.00  0.00    -0.095 S 
ENDBRANCH   3  23
BRANCH   5  28
ATOM     28  C   UNL     1      -0.892  -0.164  -0.368  0.00  0.00    +0.157 C 
ATOM     29  S   UNL     1      -0.985  -1.734  -1.044  0.00  0.00    -0.017 S 
BRANCH  28  30
ATOM     30  N   UNL     1      -2.018   0.482  -0.007  0.00  0.00    -0.295 N 
ATOM     31  H   UNL     1      -1.971   1.397   0.313  0.00  0.00    +0.154 HD
BRANCH  30  32
ATOM     32  C   UNL     1      -3.254  -0.166  -0.092  0.00  0.00    +0.033 A 
ATOM     33  C   UNL     1      -3.586  -0.885  -1.233  0.00  0.00    +0.023 A 
ATOM     34  C   UNL     1      -4.806  -1.528  -1.313  0.00  0.00    +0.002 A 
ATOM     35  C   UNL     1      -5.701  -1.448  -0.262  0.00  0.00    +0.000 A 
ATOM     36  C   UNL     1      -5.375  -0.729   0.874  0.00  0.00    +0.002 A 
ATOM     37  C   UNL     1      -4.155  -0.088   0.962  0.00  0.00    +0.023 A 
ENDBRANCH  30  32
ENDBRANCH  28  30
ENDBRANCH   5  28
TORSDOF 7
