REMARK  Name = ZINC67502279
REMARK  8 active torsions:
REMARK  status: ('A' for Active; 'I' for Inactive)
REMARK    1  A    between atoms: C_1  and  C_2
REMARK    2  A    between atoms: C_2  and  C_3
REMARK    3  A    between atoms: C_2  and  C_4
REMARK    4  A    between atoms: C_4  and  C_6
REMARK    5  A    between atoms: C_4  and  N_17
REMARK    6  A    between atoms: C_8  and  C_11
REMARK    7  A    between atoms: N_17  and  C_18
REMARK    8  A    between atoms: C_18  and  C_19
REMARK                            x       y       z     vdW  Elec       q    Type
REMARK                         _______ _______ _______ _____ _____    ______ ____
ROOT
ATOM      1  C   UNL     1      -1.393  -0.533   0.020  0.00  0.00    +0.146 C 
ENDROOT
BRANCH   1   2
ATOM      2  C   UNL     1      -2.004  -0.136  -1.299  0.00  0.00    +0.245 A 
ATOM      3  N   UNL     1      -2.881   0.811  -1.477  0.00  0.00    -0.190 NA
ATOM      4  C   UNL     1      -3.210   0.894  -2.779  0.00  0.00    +0.202 A 
ATOM      5  N   UNL     1      -2.534  -0.012  -3.440  0.00  0.00    -0.056 NA
ATOM      6  O   UNL     1      -1.734  -0.694  -2.486  0.00  0.00    -0.336 OA
BRANCH   4   7
ATOM      7  C   UNL     1      -4.178   1.853  -3.367  0.00  0.00    +0.022 A 
ATOM      8  C   UNL     1      -4.832   2.775  -2.552  0.00  0.00    +0.012 A 
ATOM      9  C   UNL     1      -5.731   3.664  -3.104  0.00  0.00    +0.001 A 
ATOM     10  C   UNL     1      -5.985   3.641  -4.464  0.00  0.00    +0.000 A 
ATOM     11  C   UNL     1      -5.340   2.727  -5.277  0.00  0.00    +0.001 A 
ATOM     12  C   UNL     1      -4.433   1.838  -4.736  0.00  0.00    +0.012 A 
ENDBRANCH   4   7
ENDBRANCH   1   2
BRANCH   1  14
ATOM     13  C   UNL     1       0.862  -0.601  -1.054  0.00  0.00    +0.009 C 
ATOM     14  C   UNL     1       0.043  -0.009   0.095  0.00  0.00    +0.009 C 
ATOM     15  C   UNL     1       0.036   1.517  -0.018  0.00  0.00    +0.009 C 
ENDBRANCH   1  14
BRANCH   1  16
ATOM     16  N   UNL     1      -1.386  -1.997   0.136  0.00  0.00    -0.301 NA
ATOM     17  H   UNL     1      -2.160  -2.403  -0.367  0.00  0.00    +0.123 HD
BRANCH  16  18
ATOM     18  C   UNL     1      -1.397  -2.413   1.545  0.00  0.00    +0.124 C 
BRANCH  18  19
ATOM     19  C   UNL     1      -1.501  -3.915   1.624  0.00  0.00    +0.005 A 
ATOM     20  C   UNL     1      -0.509  -4.838   1.661  0.00  0.00    +0.014 A 
ATOM     21  C   UNL     1      -0.842  -6.178   1.735  0.00  0.00    +0.028 A 
ATOM     22  C   UNL     1      -2.152  -6.528   1.767  0.00  0.00    +0.078 A 
ATOM     23  S   UNL     1      -2.961  -4.938   1.701  0.00  0.00    -0.080 S 
ATOM     24 CL   UNL     1      -2.858  -8.111   1.857  0.00  0.00    -0.076 Cl
ENDBRANCH  18  19
ENDBRANCH  16  18
ENDBRANCH   1  16
TORSDOF 6
