REMARK  Name = ZINC18192168
REMARK  5 active torsions:
REMARK  status: ('A' for Active; 'I' for Inactive)
REMARK    1  A    between atoms: C_1  and  C_2
REMARK    2  A    between atoms: C_2  and  C_3
REMARK    3  A    between atoms: C_2  and  C_4
REMARK    4  A    between atoms: C_2  and  C_5
REMARK    5  A    between atoms: C_17  and  C_20
REMARK                            x       y       z     vdW  Elec       q    Type
REMARK                         _______ _______ _______ _____ _____    ______ ____
ROOT
ATOM      1  C   UNL     1      -4.368   5.901  -0.203  0.00  0.00    -0.000 C 
ATOM      2  C   UNL     1      -4.769   4.527   0.341  0.00  0.00    +0.009 C 
ATOM      3  C   UNL     1      -3.768   3.470  -0.128  0.00  0.00    +0.037 C 
ATOM      4  C   UNL     1      -2.360   3.935   0.227  0.00  0.00    -0.023 A 
ATOM      5  C   UNL     1      -2.109   5.234   0.505  0.00  0.00    -0.004 A 
ATOM      6  S   UNL     1      -0.371   5.299   0.855  0.00  0.00    -0.078 S 
ATOM      7  C   UNL     1       0.008   3.643   0.639  0.00  0.00    +0.080 A 
ATOM      8  C   UNL     1      -1.212   3.045   0.291  0.00  0.00    +0.068 A 
ATOM      9  C   UNL     1      -1.208   1.588   0.017  0.00  0.00    +0.248 C 
ATOM     10  O   UNL     1      -2.241   0.978  -0.188  0.00  0.00    -0.270 OA
ATOM     11  N   UNL     1      -0.011   0.966   0.007  0.00  0.00    -0.288 N 
ATOM     12  C   UNL     1       1.265   1.674  -0.001  0.00  0.00    +0.207 C 
ATOM     13  N   UNL     1       1.180   2.940   0.750  0.00  0.00    -0.315 N 
ATOM     14  C   UNL     1      -3.091   6.363   0.514  0.00  0.00    +0.046 C 
ATOM     15  H   UNL     1       0.002  -0.004   0.002  0.00  0.00    +0.151 HD
ATOM     16  H   UNL     1       1.916   3.259   1.295  0.00  0.00    +0.149 HD
ENDROOT
BRANCH  12  17
ATOM     17  C   UNL     1       1.655   1.970  -1.426  0.00  0.00    +0.064 A 
ATOM     18  C   UNL     1       2.809   1.481  -1.929  0.00  0.00    +0.095 A 
ATOM     19  C   UNL     1       3.154   1.773  -3.271  0.00  0.00    +0.254 A 
ATOM     20  O   UNL     1       4.189   1.342  -3.747  0.00  0.00    -0.268 OA
ATOM     21  N   UNL     1       2.325   2.532  -4.017  0.00  0.00    -0.275 N 
ATOM     22  H   UNL     1       2.562   2.742  -4.966  0.00  0.00    +0.173 HD
ATOM     23  C   UNL     1       1.182   3.007  -3.490  0.00  0.00    +0.327 A 
ATOM     24  O   UNL     1       0.445   3.691  -4.174  0.00  0.00    -0.247 OA
ATOM     25  N   UNL     1       0.840   2.732  -2.218  0.00  0.00    -0.308 N 
ATOM     26  H   UNL     1      -0.018   3.088  -1.848  0.00  0.00    +0.170 HD
ENDBRANCH  12  17
BRANCH   1  28
ATOM     27  C   UNL     1      -5.083   8.280  -0.471  0.00  0.00    +0.011 C 
ATOM     28  C   UNL     1      -5.494   6.904   0.057  0.00  0.00    -0.035 C 
ATOM     29  C   UNL     1      -6.764   6.441  -0.658  0.00  0.00    +0.011 C 
ATOM     30  C   UNL     1      -5.760   6.994   1.561  0.00  0.00    +0.011 C 
ENDBRANCH   1  28
TORSDOF 2
