REMARK  Name = ZINC04030367
REMARK  4 active torsions:
REMARK  status: ('A' for Active; 'I' for Inactive)
REMARK    1  A    between atoms: C_3  and  N_8
REMARK    2  A    between atoms: C_9  and  C_11
REMARK    3  A    between atoms: N_21  and  C_22
REMARK    4  A    between atoms: C_25  and  C_28
REMARK                            x       y       z     vdW  Elec       q    Type
REMARK                         _______ _______ _______ _____ _____    ______ ____
ROOT
ATOM      1  C   UNL     1       6.016   2.229   0.168  0.00  0.00    +0.099 A 
ATOM      2  C   UNL     1       7.243   1.582   0.253  0.00  0.00    +0.030 A 
ATOM      3  C   UNL     1       8.408   2.376   0.382  0.00  0.00    +0.019 A 
ATOM      4  C   UNL     1       9.681   1.798   0.274  0.00  0.00    +0.017 A 
ATOM      5  C   UNL     1      10.800   2.579   0.355  0.00  0.00    -0.025 A 
ATOM      6  C   UNL     1      10.688   3.958   0.551  0.00  0.00    +0.040 A 
ATOM      7  C   UNL     1       9.435   4.545   0.684  0.00  0.00    +0.017 A 
ATOM      8  C   UNL     1       8.294   3.760   0.612  0.00  0.00    +0.142 A 
ATOM      9  O   UNL     1       7.072   4.323   0.783  0.00  0.00    -0.436 OA
ATOM     10  C   UNL     1       6.024   3.703   0.178  0.00  0.00    +0.233 A 
ATOM     11  N   UNL     1       5.048   4.394  -0.376  0.00  0.00    -0.213 NA
ATOM     12  C   UNL     1       9.273   6.024   0.916  0.00  0.00    +0.042 C 
ATOM     13  C   UNL     1      10.555   6.615   1.503  0.00  0.00    +0.024 C 
ATOM     14  C   UNL     1      11.730   6.207   0.605  0.00  0.00    +0.105 C 
ATOM     15  N   UNL     1      11.834   4.745   0.630  0.00  0.00    -0.329 N 
ATOM     16  C   UNL     1      13.153   4.114   0.752  0.00  0.00    +0.105 C 
ATOM     17  C   UNL     1      13.202   2.921  -0.211  0.00  0.00    +0.024 C 
ATOM     18  C   UNL     1      12.143   1.907   0.223  0.00  0.00    +0.038 C 
ENDROOT
BRANCH  11  19
ATOM     19  C   UNL     1       5.079   5.756  -0.354  0.00  0.00    +0.068 A 
ATOM     20  C   UNL     1       5.420   6.429   0.826  0.00  0.00    +0.028 A 
ATOM     21  C   UNL     1       5.451   7.793   0.848  0.00  0.00    +0.015 A 
ATOM     22  C   UNL     1       5.141   8.519  -0.307  0.00  0.00    +0.037 A 
ATOM     23  C   UNL     1       4.800   7.846  -1.487  0.00  0.00    +0.015 A 
ATOM     24  C   UNL     1       4.775   6.483  -1.512  0.00  0.00    +0.028 A 
BRANCH  22  25
ATOM     25  C   UNL     1       5.175   9.992  -0.283  0.00  0.00    +0.242 C 
ATOM     26  O   UNL     1       5.471  10.576   0.742  0.00  0.00    -0.270 OA
ATOM     27  N   UNL     1       4.877  10.691  -1.396  0.00  0.00    -0.325 N 
ATOM     28  H   UNL     1       4.641  10.225  -2.213  0.00  0.00    +0.145 HD
ATOM     29  H   UNL     1       4.899  11.661  -1.380  0.00  0.00    +0.145 HD
ENDBRANCH  22  25
ENDBRANCH  11  19
BRANCH   1  31
ATOM     30  N   UNL     1       3.583   2.127  -0.021  0.00  0.00    -0.281 N 
ATOM     31  C   UNL     1       4.758   1.472   0.066  0.00  0.00    +0.253 C 
ATOM     32  O   UNL     1       4.779   0.256   0.060  0.00  0.00    -0.270 OA
ATOM     33  H   UNL     1       3.570   3.095  -0.083  0.00  0.00    +0.155 HD
BRANCH  30  36
ATOM     34  C   UNL     1       0.070   1.230   0.590  0.00  0.00    +0.005 A 
ATOM     35  C   UNL     1       1.256   1.939   0.593  0.00  0.00    +0.023 A 
ATOM     36  C   UNL     1       2.382   1.410  -0.023  0.00  0.00    +0.036 A 
ATOM     37  C   UNL     1       2.314   0.168  -0.640  0.00  0.00    +0.061 A 
ATOM     38  C   UNL     1       1.125  -0.538  -0.640  0.00  0.00    +0.125 A 
ATOM     39  C   UNL     1       0.003  -0.006  -0.025  0.00  0.00    +0.038 A 
ATOM     40  F   UNL     1       1.056  -1.746  -1.240  0.00  0.00    -0.205 F 
ENDBRANCH  30  36
ENDBRANCH   1  31
TORSDOF 4
