REMARK  Name = ZINC29622068
REMARK  6 active torsions:
REMARK  status: ('A' for Active; 'I' for Inactive)
REMARK    1  A    between atoms: C_1  and  S_2
REMARK    2  A    between atoms: S_2  and  N_5
REMARK    3  A    between atoms: N_5  and  C_6
REMARK    4  A    between atoms: C_9  and  O_12
REMARK    5  A    between atoms: O_12  and  C_13
REMARK    6  A    between atoms: C_21  and  C_23
REMARK                            x       y       z     vdW  Elec       q    Type
REMARK                         _______ _______ _______ _____ _____    ______ ____
ROOT
ATOM      1  C   UNL     1       1.410  -0.524   0.357  0.00  0.00    +0.232 A 
ATOM      2  C   UNL     1       0.180   0.171   0.452  0.00  0.00    +0.062 A 
ATOM      3  C   UNL     1      -1.050  -0.496   0.463  0.00  0.00    +0.015 A 
ATOM      4  C   UNL     1      -2.204   0.224   0.556  0.00  0.00    +0.001 A 
ATOM      5  C   UNL     1      -2.176   1.613   0.642  0.00  0.00    +0.002 A 
ATOM      6  C   UNL     1      -0.994   2.293   0.639  0.00  0.00    +0.028 A 
ATOM      7  C   UNL     1       0.212   1.585   0.539  0.00  0.00    +0.078 A 
ATOM      8  N   UNL     1       1.399   2.206   0.527  0.00  0.00    -0.227 NA
ATOM      9  C   UNL     1       2.517   1.508   0.437  0.00  0.00    +0.165 A 
ATOM     10  N   UNL     1       2.530   0.178   0.353  0.00  0.00    -0.192 NA
ENDROOT
BRANCH   9  11
ATOM     11  C   UNL     1       3.807   2.233   0.428  0.00  0.00    +0.026 A 
ATOM     12  C   UNL     1       5.015   1.542   0.339  0.00  0.00    +0.019 A 
ATOM     13  C   UNL     1       6.155   2.268   0.330  0.00  0.00    +0.046 A 
ATOM     14  S   UNL     1       5.545   3.938   0.461  0.00  0.00    -0.104 S 
ATOM     15  C   UNL     1       3.846   3.596   0.511  0.00  0.00    +0.056 A 
ENDBRANCH   9  11
BRANCH   1  16
ATOM     16  O   UNL     1       1.438  -1.874   0.271  0.00  0.00    -0.437 OA
BRANCH  16  20
ATOM     17  C   UNL     1       5.093  -3.703  -0.311  0.00  0.00    +0.048 A 
ATOM     18  C   UNL     1       4.761  -3.198   0.939  0.00  0.00    +0.028 A 
ATOM     19  C   UNL     1       3.538  -2.586   1.133  0.00  0.00    +0.048 A 
ATOM     20  C   UNL     1       2.642  -2.477   0.079  0.00  0.00    +0.131 A 
ATOM     21  C   UNL     1       2.971  -2.986  -1.168  0.00  0.00    +0.048 A 
ATOM     22  C   UNL     1       4.196  -3.593  -1.365  0.00  0.00    +0.028 A 
BRANCH  17  23
ATOM     23  N   UNL     1       6.332  -4.322  -0.509  0.00  0.00    -0.221 N 
ATOM     24  H   UNL     1       7.130  -3.795  -1.052  0.00  0.00    +0.173 HD
BRANCH  23  26
ATOM     25  C   UNL     1       5.439  -6.905  -0.838  0.00  0.00    +0.218 C 
ATOM     26  S   UNL     1       6.597  -5.849   0.075  0.00  0.00    +0.040 S 
ATOM     27  O   UNL     1       7.934  -6.153  -0.298  0.00  0.00    -0.155 OA
ATOM     28  O   UNL     1       6.225  -5.784   1.444  0.00  0.00    -0.155 OA
ENDBRANCH  23  26
ENDBRANCH  17  23
ENDBRANCH  16  20
ENDBRANCH   1  16
TORSDOF 5
