REMARK  Name = ZINC48204787
REMARK  10 active torsions:
REMARK  status: ('A' for Active; 'I' for Inactive)
REMARK    1  A    between atoms: C_1  and  C_2
REMARK    2  A    between atoms: C_2  and  C_3
REMARK    3  A    between atoms: C_3  and  C_5
REMARK    4  A    between atoms: C_3  and  N_15
REMARK    5  A    between atoms: C_10  and  O_11
REMARK    6  A    between atoms: O_11  and  C_12
REMARK    7  A    between atoms: C_16  and  C_18
REMARK    8  A    between atoms: C_18  and  C_19
REMARK    9  A    between atoms: C_19  and  C_21
REMARK   10  A    between atoms: C_19  and  N_26
REMARK                            x       y       z     vdW  Elec       q    Type
REMARK                         _______ _______ _______ _____ _____    ______ ____
ROOT
ATOM      1  N   UNL     1      -0.056  -0.153  -2.452  0.00  0.00    -0.308 N 
ATOM      2  C   UNL     1       0.186   1.002  -3.103  0.00  0.00    +0.216 C 
ATOM      3  O   UNL     1       1.046   1.756  -2.699  0.00  0.00    -0.276 OA
ATOM      4  H   UNL     1      -0.744  -0.756  -2.774  0.00  0.00    +0.149 HD
ENDROOT
BRANCH   1   5
ATOM      5  C   UNL     1       0.718  -0.497  -1.257  0.00  0.00    +0.106 C 
BRANCH   5   6
ATOM      6  C   UNL     1       1.976  -1.220  -1.665  0.00  0.00    +0.015 A 
ATOM      7  C   UNL     1       2.032  -1.882  -2.876  0.00  0.00    +0.009 A 
ATOM      8  C   UNL     1       3.185  -2.545  -3.251  0.00  0.00    +0.001 A 
ATOM      9  C   UNL     1       4.287  -2.548  -2.414  0.00  0.00    +0.004 A 
ATOM     10  C   UNL     1       4.236  -1.888  -1.202  0.00  0.00    +0.046 A 
ATOM     11  C   UNL     1       3.082  -1.217  -0.826  0.00  0.00    +0.132 A 
BRANCH  11  12
ATOM     12  O   UNL     1       3.031  -0.561   0.363  0.00  0.00    -0.434 OA
BRANCH  12  13
ATOM     13  C   UNL     1       4.207  -0.600   1.175  0.00  0.00    +0.541 C 
ATOM     14  F   UNL     1       4.512  -1.928   1.490  0.00  0.00    -0.166 F 
ATOM     15  F   UNL     1       5.276  -0.029   0.476  0.00  0.00    -0.166 F 
ENDBRANCH  12  13
ENDBRANCH  11  12
ENDBRANCH   5   6
BRANCH   5  17
ATOM     16  C   UNL     1      -1.333  -0.626   0.165  0.00  0.00    +0.006 C 
ATOM     17  C   UNL     1      -0.118  -1.402  -0.350  0.00  0.00    +0.024 C 
ENDBRANCH   5  17
ENDBRANCH   1   5
BRANCH   2  18
ATOM     18  C   UNL     1      -0.610   1.356  -4.332  0.00  0.00    +0.123 C 
BRANCH  18  19
ATOM     19  C   UNL     1      -0.139   2.707  -4.873  0.00  0.00    +0.120 C 
BRANCH  19  20
ATOM     20  N   UNL     1      -0.445   3.757  -3.897  0.00  0.00    -0.292 N 
ATOM     21  C   UNL     1      -1.720   3.982  -3.526  0.00  0.00    +0.298 C 
ATOM     22  O   UNL     1      -2.618   3.313  -4.001  0.00  0.00    -0.253 OA
ATOM     23  N   UNL     1      -2.001   4.947  -2.629  0.00  0.00    -0.313 N 
ATOM     24  H   UNL     1       0.272   4.290  -3.519  0.00  0.00    +0.151 HD
ATOM     25  H   UNL     1      -1.285   5.481  -2.250  0.00  0.00    +0.146 HD
ATOM     26  H   UNL     1      -2.920   5.109  -2.362  0.00  0.00    +0.146 HD
ENDBRANCH  19  20
BRANCH  19  27
ATOM     27  C   UNL     1      -0.849   3.004  -6.169  0.00  0.00    +0.010 A 
ATOM     28  C   UNL     1      -0.404   2.852  -7.440  0.00  0.00    +0.013 A 
ATOM     29  C   UNL     1      -1.238   3.192  -8.488  0.00  0.00    +0.008 A 
ATOM     30  C   UNL     1      -2.477   3.669  -8.213  0.00  0.00    +0.045 A 
ATOM     31  S   UNL     1      -2.496   3.641  -6.428  0.00  0.00    -0.100 S 
ENDBRANCH  19  27
ENDBRANCH  18  19
ENDBRANCH   2  18
TORSDOF 9
