REMARK  Name = ZINC36595769
REMARK  14 active torsions:
REMARK  status: ('A' for Active; 'I' for Inactive)
REMARK    1  A    between atoms: C_1  and  C_2
REMARK    2  A    between atoms: C_2  and  C_3
REMARK    3  A    between atoms: C_3  and  C_4
REMARK    4  A    between atoms: C_4  and  N_5
REMARK    5  A    between atoms: C_6  and  C_8
REMARK    6  A    between atoms: C_8  and  C_10
REMARK    7  A    between atoms: C_8  and  N_19
REMARK    8  A    between atoms: C_11  and  O_18
REMARK    9  A    between atoms: C_13  and  O_17
REMARK   10  A    between atoms: C_15  and  O_16
REMARK   11  A    between atoms: N_19  and  C_20
REMARK   12  A    between atoms: C_20  and  C_21
REMARK   13  A    between atoms: C_24  and  C_26
REMARK   14  A    between atoms: C_27  and  C_29
REMARK                            x       y       z     vdW  Elec       q    Type
REMARK                         _______ _______ _______ _____ _____    ______ ____
ROOT
ATOM      1  C   UNL     1       2.264  -4.559   4.121  0.00  0.00    +0.200 C 
ENDROOT
BRANCH   1   2
ATOM      2  C   UNL     1       1.494  -4.242   5.377  0.00  0.00    +0.065 A 
ATOM      3  C   UNL     1       0.405  -5.021   5.738  0.00  0.00    +0.129 A 
ATOM      4  C   UNL     1      -0.304  -4.729   6.894  0.00  0.00    +0.091 A 
ATOM      5  C   UNL     1       0.076  -3.659   7.688  0.00  0.00    +0.124 A 
ATOM      6  C   UNL     1       1.165  -2.880   7.328  0.00  0.00    +0.091 A 
ATOM      7  C   UNL     1       1.877  -3.174   6.174  0.00  0.00    +0.129 A 
BRANCH   7   8
ATOM      8  O   UNL     1       2.947  -2.414   5.824  0.00  0.00    -0.506 OA
ATOM      9  H   UNL     1       2.726  -1.659   5.261  0.00  0.00    +0.292 HD
ENDBRANCH   7   8
BRANCH   5  10
ATOM     10  O   UNL     1      -0.619  -3.372   8.820  0.00  0.00    -0.507 OA
ATOM     11  H   UNL     1      -0.287  -3.821   9.610  0.00  0.00    +0.292 HD
ENDBRANCH   5  10
BRANCH   3  12
ATOM     12  O   UNL     1       0.032  -6.071   4.959  0.00  0.00    -0.506 OA
ATOM     13  H   UNL     1       0.499  -6.894   5.159  0.00  0.00    +0.292 HD
ENDBRANCH   3  12
ENDBRANCH   1   2
BRANCH   1  15
ATOM     14  N   UNL     1       1.077  -2.763   2.902  0.00  0.00    -0.313 N 
ATOM     15  C   UNL     1       1.509  -4.040   2.924  0.00  0.00    +0.238 C 
ATOM     16  O   UNL     1       1.292  -4.770   1.981  0.00  0.00    -0.273 OA
ATOM     17  H   UNL     1       1.251  -2.179   3.657  0.00  0.00    +0.149 HD
BRANCH  14  18
ATOM     18  C   UNL     1       0.343  -2.258   1.739  0.00  0.00    +0.104 C 
BRANCH  18  19
ATOM     19  C   UNL     1      -0.030  -0.792   1.968  0.00  0.00    +0.018 C 
BRANCH  19  21
ATOM     20  C   UNL     1      -1.169   1.201   0.983  0.00  0.00    +0.004 C 
ATOM     21  C   UNL     1      -0.796  -0.265   0.753  0.00  0.00    -0.002 C 
ENDBRANCH  19  21
ENDBRANCH  18  19
ENDBRANCH  14  18
ENDBRANCH   1  15
BRANCH   1  22
ATOM     22  N   UNL     1       2.428  -6.010   4.002  0.00  0.00    -0.272 N 
ATOM     23  C   UNL     1       3.341  -6.649   4.761  0.00  0.00    +0.283 C 
ATOM     24  O   UNL     1       3.511  -7.847   4.628  0.00  0.00    -0.267 OA
BRANCH  23  25
ATOM     25  C   UNL     1       4.128  -5.901   5.746  0.00  0.00    +0.189 A 
ATOM     26  C   UNL     1       5.078  -6.423   6.578  0.00  0.00    +0.054 A 
ATOM     27  C   UNL     1       5.572  -5.356   7.345  0.00  0.00    +0.042 A 
ATOM     28  C   UNL     1       4.912  -4.245   6.953  0.00  0.00    +0.196 A 
ATOM     29  O   UNL     1       4.046  -4.576   5.986  0.00  0.00    -0.458 OA
ENDBRANCH  23  25
BRANCH  22  30
ATOM     30  C   UNL     1       1.601  -6.766   3.059  0.00  0.00    +0.183 C 
BRANCH  30  31
ATOM     31  C   UNL     1       2.400  -7.065   1.817  0.00  0.00    +0.122 A 
ATOM     32  C   UNL     1       3.158  -8.157   1.613  0.00  0.00    +0.046 A 
ATOM     33  C   UNL     1       3.724  -8.027   0.323  0.00  0.00    +0.045 A 
ATOM     34  C   UNL     1       3.278  -6.864  -0.183  0.00  0.00    +0.102 A 
ATOM     35  O   UNL     1       2.472  -6.288   0.724  0.00  0.00    -0.463 OA
ATOM     36  C   UNL     1       3.620  -6.304  -1.540  0.00  0.00    +0.086 C 
ENDBRANCH  30  31
ENDBRANCH  22  30
ENDBRANCH   1  22
TORSDOF 12
