REMARK  Name = ZINC09548850
REMARK  9 active torsions:
REMARK  status: ('A' for Active; 'I' for Inactive)
REMARK    1  A    between atoms: C_1  and  C_2
REMARK    2  A    between atoms: C_2  and  C_4
REMARK    3  A    between atoms: C_2  and  N_61
REMARK    4  A    between atoms: N_6  and  C_7
REMARK    5  A    between atoms: C_10  and  S_13
REMARK    6  A    between atoms: S_13  and  N_16
REMARK    7  A    between atoms: C_21  and  C_22
REMARK    8  A    between atoms: C_21  and  C_28
REMARK    9  A    between atoms: C_21  and  N_61
REMARK                            x       y       z     vdW  Elec       q    Type
REMARK                         _______ _______ _______ _____ _____    ______ ____
ROOT
ATOM      1  C   UNL     1       6.821  -1.032  -0.437  0.00  0.00    -0.004 C 
ATOM      2  C   UNL     1       5.672  -0.937  -1.443  0.00  0.00    +0.014 C 
ENDROOT
BRANCH   2   3
ATOM      3  C   UNL     1       6.198  -0.427  -2.760  0.00  0.00    +0.203 C 
ATOM      4  O   UNL     1       5.764   0.605  -3.227  0.00  0.00    -0.277 OA
ATOM      5  N   UNL     1       7.151  -1.116  -3.418  0.00  0.00    -0.287 N 
ATOM      6  H   UNL     1       7.546  -1.905  -3.013  0.00  0.00    +0.155 HD
BRANCH   5   7
ATOM      7  C   UNL     1       7.570  -0.695  -4.685  0.00  0.00    +0.033 A 
ATOM      8  C   UNL     1       7.930  -1.631  -5.645  0.00  0.00    +0.025 A 
ATOM      9  C   UNL     1       8.338  -1.213  -6.897  0.00  0.00    +0.030 A 
ATOM     10  C   UNL     1       8.399   0.137  -7.190  0.00  0.00    +0.106 A 
ATOM     11  C   UNL     1       8.047   1.072  -6.234  0.00  0.00    +0.030 A 
ATOM     12  C   UNL     1       7.633   0.660  -4.982  0.00  0.00    +0.025 A 
BRANCH  10  13
ATOM     13  S   UNL     1       8.926   0.667  -8.785  0.00  0.00    +0.061 S 
ATOM     14  O   UNL     1       8.678  -0.412  -9.675  0.00  0.00    -0.153 OA
ATOM     15  O   UNL     1       8.376   1.962  -8.986  0.00  0.00    -0.153 OA
BRANCH  13  16
ATOM     16  N   UNL     1      10.570   0.857  -8.720  0.00  0.00    -0.177 NA
ATOM     17  C   UNL     1      11.276   2.096  -8.361  0.00  0.00    +0.109 C 
ATOM     18  C   UNL     1      12.788   1.807  -8.459  0.00  0.00    +0.018 C 
ATOM     19  C   UNL     1      12.846   0.591  -9.421  0.00  0.00    +0.018 C 
ATOM     20  C   UNL     1      11.568  -0.186  -9.017  0.00  0.00    +0.109 C 
ENDBRANCH  13  16
ENDBRANCH  10  13
ENDBRANCH   5   7
ENDBRANCH   2   3
BRANCH   2  21
ATOM     21  N   UNL     1       4.649  -0.004  -0.935  0.00  0.00    +0.394 N 
ATOM     22  H   UNL     1       4.123   0.385  -1.727  0.00  0.00    -0.083 HD
ATOM     23  H   UNL     1       5.110   0.758  -0.423  0.00  0.00    -0.083 HD
BRANCH  21  24
ATOM     24  C   UNL     1       3.719  -0.706  -0.031  0.00  0.00    -0.009 C 
BRANCH  24  25
ATOM     25  C   UNL     1       2.401   0.024  -0.013  0.00  0.00    -0.057 A 
ATOM     26  C   UNL     1       1.217  -0.689   0.002  0.00  0.00    +0.002 A 
ATOM     27  C   UNL     1       0.007  -0.019   0.018  0.00  0.00    +0.000 A 
ATOM     28  C   UNL     1      -0.018   1.363   0.018  0.00  0.00    +0.000 A 
ATOM     29  C   UNL     1       1.166   2.075   0.003  0.00  0.00    +0.000 A 
ATOM     30  C   UNL     1       2.376   1.406  -0.013  0.00  0.00    +0.002 A 
ENDBRANCH  24  25
BRANCH  24  31
ATOM     31  C   UNL     1       4.296  -0.733   1.361  0.00  0.00    -0.057 A 
ATOM     32  C   UNL     1       4.961   0.374   1.856  0.00  0.00    +0.002 A 
ATOM     33  C   UNL     1       5.486   0.350   3.135  0.00  0.00    +0.000 A 
ATOM     34  C   UNL     1       5.356  -0.783   3.915  0.00  0.00    +0.000 A 
ATOM     35  C   UNL     1       4.696  -1.892   3.418  0.00  0.00    +0.000 A 
ATOM     36  C   UNL     1       4.167  -1.867   2.141  0.00  0.00    +0.002 A 
ENDBRANCH  24  31
ENDBRANCH  21  24
ENDBRANCH   2  21
TORSDOF 8
