REMARK  Name = ZINC01476465
REMARK  4 active torsions:
REMARK  status: ('A' for Active; 'I' for Inactive)
REMARK    1  A    between atoms: C_4  and  O_25
REMARK    2  A    between atoms: C_5  and  C_7
REMARK    3  A    between atoms: N_9  and  N_10
REMARK    4  A    between atoms: C_14  and  C_15
REMARK                            x       y       z     vdW  Elec       q    Type
REMARK                         _______ _______ _______ _____ _____    ______ ____
ROOT
ATOM      1  N   UNL     1      -4.045  -0.125   0.011  0.00  0.00    -0.169 N 
ATOM      2  C   UNL     1      -4.575  -0.514   1.158  0.00  0.00    +0.275 C 
ATOM      3  O   UNL     1      -4.110  -0.168   2.228  0.00  0.00    -0.267 OA
ATOM      4  C   UNL     1      -5.761  -1.392   1.075  0.00  0.00    +0.079 C 
ATOM      5  C   UNL     1      -6.504  -1.939   2.070  0.00  0.00    +0.028 C 
ATOM      6  S   UNL     1      -5.948  -1.535  -0.697  0.00  0.00    -0.059 S 
ATOM      7  C   UNL     1      -4.566  -0.508  -1.172  0.00  0.00    +0.138 C 
ATOM      8  S   UNL     1      -4.032  -0.107  -2.748  0.00  0.00    -0.026 S 
ENDROOT
BRANCH   5   9
ATOM      9  C   UNL     1      -7.749  -2.651   1.750  0.00  0.00    -0.024 A 
ATOM     10  C   UNL     1      -8.268  -2.612   0.451  0.00  0.00    +0.011 A 
ATOM     11  C   UNL     1      -9.432  -3.288   0.157  0.00  0.00    +0.039 A 
ATOM     12  C   UNL     1     -10.097  -3.994   1.148  0.00  0.00    +0.123 A 
ATOM     13  C   UNL     1      -9.592  -4.031   2.439  0.00  0.00    +0.039 A 
ATOM     14  C   UNL     1      -8.425  -3.366   2.746  0.00  0.00    +0.011 A 
ATOM     15  F   UNL     1     -11.241  -4.649   0.855  0.00  0.00    -0.205 F 
ENDBRANCH   5   9
BRANCH   1  18
ATOM     16  C   UNL     1      -1.704   0.204  -0.267  0.00  0.00    +0.264 C 
ATOM     17  O   UNL     1      -1.585  -0.975  -0.543  0.00  0.00    -0.269 OA
ATOM     18  N   UNL     1      -2.919   0.708   0.025  0.00  0.00    -0.222 N 
ATOM     19  H   UNL     1      -3.014   1.648   0.246  0.00  0.00    +0.174 HD
BRANCH  16  24
ATOM     20  C   UNL     1       0.462   3.249   0.077  0.00  0.00    +0.001 A 
ATOM     21  C   UNL     1       1.711   2.732  -0.224  0.00  0.00    +0.004 A 
ATOM     22  C   UNL     1       1.856   1.395  -0.539  0.00  0.00    +0.046 A 
ATOM     23  C   UNL     1       0.748   0.561  -0.556  0.00  0.00    +0.129 A 
ATOM     24  C   UNL     1      -0.518   1.081  -0.252  0.00  0.00    +0.079 A 
ATOM     25  C   UNL     1      -0.649   2.435   0.065  0.00  0.00    +0.017 A 
BRANCH  23  26
ATOM     26  O   UNL     1       0.888  -0.752  -0.865  0.00  0.00    -0.506 OA
ATOM     27  H   UNL     1       0.801  -0.946  -1.808  0.00  0.00    +0.292 HD
ENDBRANCH  23  26
ENDBRANCH  16  24
ENDBRANCH   1  18
TORSDOF 4
