REMARK  Name = ZINC20347695
REMARK  10 active torsions:
REMARK  status: ('A' for Active; 'I' for Inactive)
REMARK    1  A    between atoms: C_1  and  C_2
REMARK    2  A    between atoms: C_7  and  N_8
REMARK    3  A    between atoms: C_9  and  C_11
REMARK    4  A    between atoms: C_11  and  S_12
REMARK    5  A    between atoms: S_12  and  C_13
REMARK    6  A    between atoms: C_14  and  C_34
REMARK    7  A    between atoms: C_15  and  C_25
REMARK    8  A    between atoms: C_28  and  C_31
REMARK    9  A    between atoms: C_31  and  C_32
REMARK   10  A    between atoms: C_31  and  C_33
REMARK                            x       y       z     vdW  Elec       q    Type
REMARK                         _______ _______ _______ _____ _____    ______ ____
ROOT
ATOM      1  C   UNL     1       0.785  -2.047   3.026  0.00  0.00    +0.080 C 
ATOM      2  C   UNL     1       1.821  -1.398   3.623  0.00  0.00    +0.069 C 
ATOM      3  C   UNL     1       2.591  -0.336   2.895  0.00  0.00    +0.097 C 
ATOM      4  C   UNL     1       1.823   0.172   1.701  0.00  0.00    +0.024 C 
ATOM      5  C   UNL     1       0.799  -0.537   1.182  0.00  0.00    +0.016 C 
ATOM      6  N   UNL     1       0.423  -1.730   1.737  0.00  0.00    -0.311 N 
ATOM      7  C   UNL     1       0.038  -0.036  -0.021  0.00  0.00    +0.051 C 
ATOM      8  C   UNL     1       0.026   1.494  -0.021  0.00  0.00    +0.014 C 
ATOM      9  C   UNL     1       1.476   1.991  -0.033  0.00  0.00    +0.080 C 
ATOM     10  C   UNL     1       2.203   1.408   1.148  0.00  0.00    +0.162 C 
ATOM     11  O   UNL     1       3.136   2.016   1.633  0.00  0.00    -0.292 OA
ATOM     12  H   UNL     1      -0.172  -2.439   1.143  0.00  0.00    +0.152 HD
ENDROOT
BRANCH   3  13
ATOM     13  C   UNL     1       3.905  -0.910   2.429  0.00  0.00    -0.035 A 
ATOM     14  C   UNL     1       3.920  -1.973   1.545  0.00  0.00    +0.005 A 
ATOM     15  C   UNL     1       5.124  -2.496   1.114  0.00  0.00    +0.004 A 
ATOM     16  C   UNL     1       6.314  -1.964   1.575  0.00  0.00    -0.045 A 
ATOM     17  C   UNL     1       6.299  -0.905   2.464  0.00  0.00    +0.004 A 
ATOM     18  C   UNL     1       5.094  -0.379   2.891  0.00  0.00    +0.005 A 
BRANCH  16  19
ATOM     19  C   UNL     1       7.627  -2.538   1.110  0.00  0.00    +0.013 C 
ATOM     20  C   UNL     1       7.706  -4.015   1.502  0.00  0.00    +0.012 C 
ATOM     21  C   UNL     1       7.730  -2.408  -0.411  0.00  0.00    +0.012 C 
ENDBRANCH  16  19
ENDBRANCH   3  13
BRANCH   2  22
ATOM     22  C   UNL     1       2.181  -1.733   4.968  0.00  0.00    +0.098 C 
ATOM     23  N   UNL     1       2.467  -2.000   6.034  0.00  0.00    -0.191 NA
ENDBRANCH   2  22
BRANCH   1  24
ATOM     24  S   UNL     1      -0.095  -3.295   3.905  0.00  0.00    -0.100 S 
BRANCH  24  25
ATOM     25  C   UNL     1      -1.306  -3.771   2.647  0.00  0.00    +0.171 C 
BRANCH  25  27
ATOM     26  N   UNL     1      -3.177  -5.374   2.425  0.00  0.00    -0.285 N 
ATOM     27  C   UNL     1      -2.195  -4.860   3.191  0.00  0.00    +0.227 C 
ATOM     28  O   UNL     1      -2.026  -5.272   4.319  0.00  0.00    -0.275 OA
ATOM     29  H   UNL     1      -3.389  -4.939   1.437  0.00  0.00    +0.155 HD
BRANCH  26  36
ATOM     30  C   UNL     1      -5.794  -5.745   1.372  0.00  0.00    +0.045 C 
ATOM     31  C   UNL     1      -5.208  -6.679   2.399  0.00  0.00    -0.029 A 
ATOM     32  C   UNL     1      -5.946  -7.754   2.856  0.00  0.00    +0.005 A 
ATOM     33  C   UNL     1      -5.410  -8.613   3.797  0.00  0.00    +0.000 A 
ATOM     34  C   UNL     1      -4.133  -8.399   4.284  0.00  0.00    +0.002 A 
ATOM     35  C   UNL     1      -3.388  -7.329   3.828  0.00  0.00    +0.023 A 
ATOM     36  C   UNL     1      -3.927  -6.462   2.886  0.00  0.00    +0.036 A 
ENDBRANCH  26  36
ENDBRANCH  25  27
ENDBRANCH  24  25
ENDBRANCH   1  24
TORSDOF 7
