REMARK  Name = ZINC21226395
REMARK  12 active torsions:
REMARK  status: ('A' for Active; 'I' for Inactive)
REMARK    1  A    between atoms: C_1  and  C_2
REMARK    2  A    between atoms: C_2  and  O_3
REMARK    3  A    between atoms: O_3  and  C_4
REMARK    4  A    between atoms: C_5  and  C_12
REMARK    5  A    between atoms: C_9  and  O_10
REMARK    6  A    between atoms: O_10  and  C_11
REMARK    7  A    between atoms: C_17  and  C_22
REMARK    8  A    between atoms: C_25  and  O_28
REMARK    9  A    between atoms: O_28  and  C_29
REMARK   10  A    between atoms: C_29  and  C_30
REMARK   11  A    between atoms: C_30  and  C_31
REMARK   12  A    between atoms: C_30  and  C_32
REMARK                            x       y       z     vdW  Elec       q    Type
REMARK                         _______ _______ _______ _____ _____    ______ ____
ROOT
ATOM      1  C   UNL     1       1.206  -0.892   0.002  0.00  0.00    +0.140 C 
ATOM      2  C   UNL     1      -0.043  -0.044   0.016  0.00  0.00    +0.037 C 
ATOM      3  C   UNL     1      -0.085   1.300   0.022  0.00  0.00    +0.017 C 
ATOM      4  C   UNL     1      -1.417   2.029   0.028  0.00  0.00    +0.059 C 
ATOM      5  C   UNL     1      -2.455   1.212   0.796  0.00  0.00    +0.032 C 
ATOM      6  C   UNL     1      -2.594  -0.144   0.094  0.00  0.00    +0.088 C 
ATOM      7  C   UNL     1      -1.244  -0.793   0.037  0.00  0.00    +0.163 C 
ATOM      8  O   UNL     1      -1.178  -2.006   0.007  0.00  0.00    -0.292 OA
ATOM      9  N   UNL     1       1.007   2.106   0.010  0.00  0.00    -0.316 N 
ATOM     10  C   UNL     1       2.126   1.944   0.818  0.00  0.00    +0.052 A 
ATOM     11  C   UNL     1       2.517   2.899   1.740  0.00  0.00    +0.025 A 
ATOM     12  C   UNL     1       3.705   2.730   2.430  0.00  0.00    +0.002 A 
ATOM     13  C   UNL     1       4.493   1.616   2.201  0.00  0.00    +0.002 A 
ATOM     14  C   UNL     1       4.092   0.649   1.296  0.00  0.00    +0.025 A 
ATOM     15  C   UNL     1       2.894   0.807   0.617  0.00  0.00    +0.049 A 
ATOM     16  N   UNL     1       2.426  -0.162  -0.270  0.00  0.00    -0.331 N 
ATOM     17  H   UNL     1       1.050   2.963  -0.678  0.00  0.00    +0.152 HD
ATOM     18  H   UNL     1       2.997  -0.368  -1.187  0.00  0.00    +0.147 HD
ENDROOT
BRANCH   1  20
ATOM     19  C   UNL     1       2.125  -2.701   1.473  0.00  0.00    +0.167 A 
ATOM     20  C   UNL     1       1.341  -1.565   1.343  0.00  0.00    +0.023 A 
ATOM     21  C   UNL     1       0.679  -1.054   2.443  0.00  0.00    +0.009 A 
ATOM     22  C   UNL     1       0.801  -1.669   3.675  0.00  0.00    +0.004 A 
ATOM     23  C   UNL     1       1.586  -2.798   3.813  0.00  0.00    +0.049 A 
ATOM     24  C   UNL     1       2.253  -3.316   2.714  0.00  0.00    +0.162 A 
BRANCH  24  25
ATOM     25  O   UNL     1       3.025  -4.428   2.847  0.00  0.00    -0.491 OA
ATOM     26  C   UNL     1       3.105  -5.010   4.150  0.00  0.00    +0.277 C 
ENDBRANCH  24  25
BRANCH  19  27
ATOM     27  O   UNL     1       2.773  -3.208   0.390  0.00  0.00    -0.488 OA
BRANCH  27  29
ATOM     28  C   UNL     1       4.659  -3.394  -1.110  0.00  0.00    +0.048 C 
ATOM     29  C   UNL     1       4.137  -2.823   0.210  0.00  0.00    +0.226 C 
ENDBRANCH  27  29
ENDBRANCH  19  27
ENDBRANCH   1  20
BRANCH   5  30
ATOM     30  C   UNL     1      -3.780   1.930   0.787  0.00  0.00    -0.043 A 
ATOM     31  C   UNL     1      -4.386   2.247  -0.415  0.00  0.00    +0.007 A 
ATOM     32  C   UNL     1      -5.603   2.899  -0.425  0.00  0.00    +0.046 A 
ATOM     33  C   UNL     1      -6.212   3.248   0.771  0.00  0.00    +0.121 A 
ATOM     34  C   UNL     1      -5.600   2.934   1.976  0.00  0.00    +0.046 A 
ATOM     35  C   UNL     1      -4.385   2.276   1.981  0.00  0.00    +0.007 A 
BRANCH  33  36
ATOM     36  O   UNL     1      -7.408   3.894   0.764  0.00  0.00    -0.492 OA
BRANCH  36  37
ATOM     37  C   UNL     1      -7.980   4.185  -0.513  0.00  0.00    +0.232 C 
BRANCH  37  38
ATOM     38  C   UNL     1      -9.313   4.910  -0.321  0.00  0.00    +0.020 C 
ATOM     39  C   UNL     1      -9.065   6.272   0.330  0.00  0.00    +0.010 C 
ATOM     40  C   UNL     1      -9.985   5.110  -1.681  0.00  0.00    +0.010 C 
ENDBRANCH  37  38
ENDBRANCH  36  37
ENDBRANCH  33  36
ENDBRANCH   5  30
TORSDOF 8
