REMARK  Name = ZINC37813008
REMARK  6 active torsions:
REMARK  status: ('A' for Active; 'I' for Inactive)
REMARK    1  A    between atoms: C_1  and  C_2
REMARK    2  A    between atoms: C_2  and  C_3
REMARK    3  A    between atoms: C_3  and  C_4
REMARK    4  A    between atoms: C_4  and  C_5
REMARK    5  A    between atoms: C_4  and  C_6
REMARK    6  A    between atoms: C_4  and  N_21
REMARK                            x       y       z     vdW  Elec       q    Type
REMARK                         _______ _______ _______ _____ _____    ______ ____
ROOT
ATOM      1  C   UNL     1      -2.900  -2.660   0.141  0.00  0.00    +0.204 C 
ATOM      2  O   UNL     1      -1.766  -2.255   0.286  0.00  0.00    -0.277 OA
ATOM      3  N   UNL     1      -3.228  -3.904   0.542  0.00  0.00    -0.300 N 
ATOM      4  C   UNL     1      -2.202  -4.813   1.074  0.00  0.00    +0.126 C 
ATOM      5  C   UNL     1      -2.643  -5.291   2.463  0.00  0.00    +0.127 C 
ATOM      6  N   UNL     1      -4.032  -5.763   2.378  0.00  0.00    -0.297 N 
ATOM      7  C   UNL     1      -5.058  -4.853   1.847  0.00  0.00    +0.127 C 
ATOM      8  C   UNL     1      -4.618  -4.374   0.463  0.00  0.00    +0.126 C 
ATOM      9  C   UNL     1      -4.369  -7.040   2.792  0.00  0.00    +0.218 A 
ATOM     10  N   UNL     1      -3.424  -7.835   3.270  0.00  0.00    -0.222 NA
ATOM     11  C   UNL     1      -3.711  -9.062   3.674  0.00  0.00    +0.131 A 
ATOM     12  C   UNL     1      -5.021  -9.511   3.590  0.00  0.00    +0.054 A 
ATOM     13  C   UNL     1      -5.985  -8.653   3.084  0.00  0.00    +0.131 A 
ATOM     14  N   UNL     1      -5.630  -7.437   2.703  0.00  0.00    -0.222 NA
ATOM     15 BR   UNL     1      -5.480 -11.257   4.154  0.00  0.00    -0.047 Br
ENDROOT
BRANCH   1  16
ATOM     16  C   UNL     1      -3.942  -1.773  -0.490  0.00  0.00    +0.004 C 
ATOM     17  C   UNL     1      -3.285  -0.479  -0.975  0.00  0.00    -0.001 C 
BRANCH  16  18
ATOM     18  N   UNL     1      -4.978  -1.454   0.501  0.00  0.00    +0.387 N 
ATOM     19  H   UNL     1      -5.353  -2.310   0.883  0.00  0.00    -0.089 HD
ATOM     20  H   UNL     1      -4.575  -0.902   1.244  0.00  0.00    -0.089 HD
ATOM     21  H   UNL     1      -5.719  -0.931   0.058  0.00  0.00    -0.089 HD
ENDBRANCH  16  18
BRANCH  16  22
ATOM     22  C   UNL     1      -4.578  -2.498  -1.678  0.00  0.00    -0.004 C 
BRANCH  22  24
ATOM     23  C   UNL     1      -6.358  -2.375  -3.427  0.00  0.00    +0.004 C 
ATOM     24  C   UNL     1      -5.721  -1.650  -2.240  0.00  0.00    -0.004 C 
ENDBRANCH  22  24
ENDBRANCH  16  22
ENDBRANCH   1  16
TORSDOF 4
