REMARK  Name = ZINC03039850
REMARK  5 active torsions:
REMARK  status: ('A' for Active; 'I' for Inactive)
REMARK    1  A    between atoms: C_1  and  O_2
REMARK    2  A    between atoms: O_2  and  C_3
REMARK    3  A    between atoms: C_6  and  C_9
REMARK    4  A    between atoms: N_13  and  C_29
REMARK    5  A    between atoms: N_17  and  C_18
REMARK                            x       y       z     vdW  Elec       q    Type
REMARK                         _______ _______ _______ _____ _____    ______ ____
ROOT
ATOM      1  C   UNL     1      -3.656   3.424   3.873  0.00  0.00    +0.193 C 
ATOM      2  C   UNL     1      -2.967   2.839   2.677  0.00  0.00    +0.241 C 
ATOM      3  O   UNL     1      -2.500   3.593   1.849  0.00  0.00    -0.273 OA
ATOM      4  N   UNL     1      -2.850   1.522   2.483  0.00  0.00    -0.288 N 
ATOM      5  C   UNL     1      -3.369   0.536   3.421  0.00  0.00    +0.204 C 
ATOM      6  C   UNL     1      -4.415   1.133   4.315  0.00  0.00    +0.234 C 
ATOM      7  O   UNL     1      -5.185   0.389   4.884  0.00  0.00    -0.274 OA
ATOM      8  N   UNL     1      -4.532   2.450   4.510  0.00  0.00    -0.278 N 
ENDROOT
BRANCH   8   9
ATOM      9  C   UNL     1      -5.589   2.934   5.401  0.00  0.00    +0.108 C 
ATOM     10  C   UNL     1      -5.371   2.359   6.800  0.00  0.00    +0.027 C 
ATOM     11  C   UNL     1      -6.595   2.698   7.658  0.00  0.00    +0.007 C 
ATOM     12  C   UNL     1      -7.778   1.874   7.154  0.00  0.00    +0.035 C 
ATOM     13  C   UNL     1      -7.937   2.033   5.665  0.00  0.00    -0.042 A 
ATOM     14  C   UNL     1      -6.929   2.513   4.859  0.00  0.00    -0.024 A 
ATOM     15  C   UNL     1      -7.136   2.621   3.490  0.00  0.00    +0.006 A 
ATOM     16  C   UNL     1      -8.344   2.256   2.932  0.00  0.00    +0.000 A 
ATOM     17  C   UNL     1      -9.357   1.778   3.742  0.00  0.00    +0.000 A 
ATOM     18  C   UNL     1      -9.153   1.668   5.102  0.00  0.00    +0.004 A 
ENDBRANCH   8   9
BRANCH   1  22
ATOM     19  C   UNL     1      -0.701   4.696   6.687  0.00  0.00    +0.120 A 
ATOM     20  C   UNL     1      -1.282   5.615   5.826  0.00  0.00    +0.046 A 
ATOM     21  C   UNL     1      -2.237   5.202   4.917  0.00  0.00    +0.009 A 
ATOM     22  C   UNL     1      -2.614   3.872   4.865  0.00  0.00    -0.018 A 
ATOM     23  C   UNL     1      -2.040   2.955   5.726  0.00  0.00    +0.009 A 
ATOM     24  C   UNL     1      -1.081   3.362   6.633  0.00  0.00    +0.046 A 
BRANCH  19  26
ATOM     25  C   UNL     1       0.793   4.099   8.437  0.00  0.00    +0.277 C 
ATOM     26  O   UNL     1       0.238   5.100   7.582  0.00  0.00    -0.495 OA
ENDBRANCH  19  26
ENDBRANCH   1  22
BRANCH   4  27
ATOM     27  C   UNL     1      -2.164   1.050   1.278  0.00  0.00    +0.077 C 
ATOM     28  C   UNL     1      -0.729   1.579   1.267  0.00  0.00    +0.022 C 
ATOM     29  C   UNL     1      -0.013   1.086   0.008  0.00  0.00    +0.002 C 
ATOM     30  C   UNL     1      -0.753   1.593  -1.232  0.00  0.00    +0.000 C 
ATOM     31  C   UNL     1      -2.188   1.063  -1.221  0.00  0.00    +0.002 C 
ATOM     32  C   UNL     1      -2.904   1.556   0.038  0.00  0.00    +0.022 C 
ENDBRANCH   4  27
TORSDOF 4
