REMARK  Name = ZINC51171698
REMARK  5 active torsions:
REMARK  status: ('A' for Active; 'I' for Inactive)
REMARK    1  A    between atoms: C_1  and  C_2
REMARK    2  A    between atoms: C_2  and  N_3
REMARK    3  A    between atoms: N_3  and  C_4
REMARK    4  A    between atoms: C_4  and  C_6
REMARK    5  A    between atoms: C_4  and  C_17
REMARK                            x       y       z     vdW  Elec       q    Type
REMARK                         _______ _______ _______ _____ _____    ______ ____
ROOT
ATOM      1  C   UNL     1      -1.356  -1.981   0.004  0.00  0.00    -0.003 C 
ENDROOT
BRANCH   1   2
ATOM      2  C   UNL     1      -0.737  -2.482   1.284  0.00  0.00    -0.055 A 
ATOM      3  C   UNL     1      -1.033  -1.861   2.483  0.00  0.00    +0.006 A 
ATOM      4  C   UNL     1      -0.469  -2.315   3.661  0.00  0.00    +0.048 A 
ATOM      5  C   UNL     1       0.395  -3.396   3.640  0.00  0.00    +0.142 A 
ATOM      6  C   UNL     1       0.694  -4.022   2.432  0.00  0.00    +0.076 A 
ATOM      7  C   UNL     1       0.122  -3.566   1.256  0.00  0.00    +0.029 A 
ATOM      8  N   UNL     1       1.573  -5.115   2.424  0.00  0.00    -0.280 N 
ATOM      9  C   UNL     1       1.859  -5.732   3.591  0.00  0.00    +0.255 C 
ATOM     10  O   UNL     1       2.641  -6.659   3.614  0.00  0.00    -0.272 OA
ATOM     11  C   UNL     1       1.204  -5.263   4.866  0.00  0.00    +0.325 C 
ATOM     12  O   UNL     1       0.957  -3.857   4.790  0.00  0.00    -0.481 OA
ATOM     13  H   UNL     1       1.968  -5.423   1.594  0.00  0.00    +0.155 HD
ENDBRANCH   1   2
BRANCH   1  14
ATOM     14  C   UNL     1      -2.766  -2.502  -0.109  0.00  0.00    -0.019 A 
ATOM     15  C   UNL     1      -3.232  -3.553  -0.827  0.00  0.00    +0.011 A 
ATOM     16  C   UNL     1      -4.581  -3.851  -0.780  0.00  0.00    +0.028 A 
ATOM     17  C   UNL     1      -5.398  -3.083  -0.016  0.00  0.00    +0.078 A 
ATOM     18  S   UNL     1      -4.253  -1.900   0.674  0.00  0.00    -0.083 S 
ATOM     19 CL   UNL     1      -7.111  -3.219   0.231  0.00  0.00    -0.076 Cl
ENDBRANCH   1  14
BRANCH   1  20
ATOM     20  N   UNL     1      -1.376  -0.512   0.012  0.00  0.00    +0.386 N 
ATOM     21  H   UNL     1      -1.848  -0.187   0.843  0.00  0.00    -0.085 HD
ATOM     22  H   UNL     1      -1.864  -0.178  -0.805  0.00  0.00    -0.085 HD
BRANCH  20  24
ATOM     23  C   UNL     1      -0.019   1.526   0.010  0.00  0.00    -0.017 C 
ATOM     24  C   UNL     1       0.002  -0.004   0.002  0.00  0.00    -0.085 C 
ENDBRANCH  20  24
ENDBRANCH   1  20
TORSDOF 4
