REMARK  Name = ZINC39357549
REMARK  4 active torsions:
REMARK  status: ('A' for Active; 'I' for Inactive)
REMARK    1  A    between atoms: C_4  and  C_7
REMARK    2  A    between atoms: C_15  and  C_17
REMARK    3  A    between atoms: N_19  and  N_20
REMARK    4  A    between atoms: C_21  and  C_22
REMARK                            x       y       z     vdW  Elec       q    Type
REMARK                         _______ _______ _______ _____ _____    ______ ____
ROOT
ATOM      1  C   UNL     1       3.696  -0.685  -0.037  0.00  0.00    +0.020 A 
ATOM      2  C   UNL     1       4.233  -1.552   1.018  0.00  0.00    +0.010 A 
ATOM      3  C   UNL     1       3.758  -1.953   2.269  0.00  0.00    +0.030 A 
ATOM      4  C   UNL     1       4.510  -2.791   3.045  0.00  0.00    +0.042 A 
ATOM      5  C   UNL     1       5.744  -3.247   2.597  0.00  0.00    +0.022 A 
ATOM      6  C   UNL     1       6.231  -2.864   1.368  0.00  0.00    +0.027 A 
ATOM      7  C   UNL     1       5.482  -2.011   0.560  0.00  0.00    +0.048 A 
ATOM      8  N   UNL     1       5.703  -1.469  -0.685  0.00  0.00    -0.350 N 
ATOM      9  C   UNL     1       4.636  -0.678  -1.054  0.00  0.00    +0.112 A 
ATOM     10  H   UNL     1       6.493  -1.625  -1.226  0.00  0.00    +0.166 HD
ATOM     11 CL   UNL     1       3.919  -3.289   4.599  0.00  0.00    -0.084 Cl
ENDROOT
BRANCH   1  15
ATOM     12  C   UNL     1      -0.017   1.379   0.010  0.00  0.00    +0.000 A 
ATOM     13  C   UNL     1       1.168   2.094   0.002  0.00  0.00    +0.001 A 
ATOM     14  C   UNL     1       2.377   1.429  -0.013  0.00  0.00    +0.008 A 
ATOM     15  C   UNL     1       2.403   0.034  -0.021  0.00  0.00    -0.015 A 
ATOM     16  C   UNL     1       1.204  -0.680  -0.013  0.00  0.00    +0.008 A 
ATOM     17  C   UNL     1       0.002  -0.004   0.002  0.00  0.00    +0.001 A 
ENDBRANCH   1  15
BRANCH   9  18
ATOM     18  C   UNL     1       4.516   0.055  -2.317  0.00  0.00    +0.280 C 
ATOM     19  O   UNL     1       3.527   0.729  -2.539  0.00  0.00    -0.267 OA
ATOM     20  N   UNL     1       5.502  -0.017  -3.234  0.00  0.00    -0.202 N 
ATOM     21  H   UNL     1       6.290  -0.553  -3.057  0.00  0.00    +0.178 HD
BRANCH  20  22
ATOM     22  N   UNL     1       5.388   0.684  -4.442  0.00  0.00    -0.188 NA
ATOM     23  C   UNL     1       6.347   0.614  -5.332  0.00  0.00    +0.136 C 
BRANCH  23  24
ATOM     24  C   UNL     1       6.233   1.315  -6.540  0.00  0.00    +0.000 C 
ATOM     25  C   UNL     1       7.151   1.343  -7.588  0.00  0.00    +0.004 A 
ATOM     26  C   UNL     1       8.408   0.725  -7.772  0.00  0.00    +0.010 A 
ATOM     27  C   UNL     1       9.099   0.935  -8.921  0.00  0.00    +0.001 A 
ATOM     28  C   UNL     1       8.599   1.754  -9.937  0.00  0.00    +0.002 A 
ATOM     29  C   UNL     1       7.402   2.379  -9.829  0.00  0.00    +0.026 A 
ATOM     30  C   UNL     1       6.620   2.207  -8.656  0.00  0.00    +0.043 A 
ATOM     31  N   UNL     1       5.446   2.695  -8.312  0.00  0.00    -0.380 N 
ATOM     32  C   UNL     1       5.084   2.194  -6.983  0.00  0.00    +0.150 C 
ATOM     33  H   UNL     1       4.904   3.289  -8.855  0.00  0.00    +0.160 HD
ENDBRANCH  23  24
ENDBRANCH  20  22
ENDBRANCH   9  18
TORSDOF 4
