REMARK  Name = ZINC33937371
REMARK  14 active torsions:
REMARK  status: ('A' for Active; 'I' for Inactive)
REMARK    1  A    between atoms: C_1  and  C_2
REMARK    2  A    between atoms: C_2  and  C_3
REMARK    3  A    between atoms: C_3  and  C_4
REMARK    4  A    between atoms: C_4  and  C_6
REMARK    5  A    between atoms: C_4  and  N_18
REMARK    6  A    between atoms: N_10  and  C_11
REMARK    7  A    between atoms: C_11  and  C_12
REMARK    8  A    between atoms: N_18  and  C_19
REMARK    9  A    between atoms: N_18  and  C_28
REMARK   10  A    between atoms: C_19  and  C_20
REMARK   11  A    between atoms: C_20  and  C_21
REMARK   12  A    between atoms: C_25  and  C_27
REMARK   13  A    between atoms: C_28  and  C_29
REMARK   14  A    between atoms: C_33  and  C_41
REMARK                            x       y       z     vdW  Elec       q    Type
REMARK                         _______ _______ _______ _____ _____    ______ ____
ROOT
ATOM      1  N   UNL     1      -0.708  -1.871   1.236  0.00  0.00    +0.389 N 
ATOM      2  H   UNL     1      -1.202  -2.156   2.068  0.00  0.00    -0.080 HD
ENDROOT
BRANCH   1   3
ATOM      3  C   UNL     1      -0.510  -0.416   1.258  0.00  0.00    +0.003 C 
BRANCH   3   4
ATOM      4  C   UNL     1       0.389  -0.013   0.118  0.00  0.00    +0.138 A 
ATOM      5  N   UNL     1       0.867  -0.798  -0.817  0.00  0.00    -0.115 NA
ATOM      6  N   UNL     1       1.590  -0.082  -1.606  0.00  0.00    -0.023 NA
ATOM      7  N   UNL     1       1.586   1.139  -1.200  0.00  0.00    -0.044 NA
ATOM      8  N   UNL     1       0.852   1.223  -0.143  0.00  0.00    -0.228 N 
BRANCH   8   9
ATOM      9  C   UNL     1       0.577   2.437   0.631  0.00  0.00    +0.178 C 
BRANCH   9  10
ATOM     10  C   UNL     1       1.534   2.509   1.823  0.00  0.00    +0.140 C 
ATOM     11  C   UNL     1       1.304   3.819   2.618  0.00  0.00    +0.035 C 
ATOM     12  C   UNL     1       1.831   3.409   4.020  0.00  0.00    +0.031 C 
ATOM     13  C   UNL     1       1.438   1.917   4.095  0.00  0.00    +0.160 C 
ATOM     14  O   UNL     1       1.255   1.450   2.752  0.00  0.00    -0.375 OA
ENDBRANCH   9  10
ENDBRANCH   8   9
ENDBRANCH   3   4
BRANCH   3  15
ATOM     15  C   UNL     1      -1.863   0.285   1.113  0.00  0.00    -0.008 C 
BRANCH  15  17
ATOM     16  C   UNL     1      -4.048   0.746   2.234  0.00  0.00    +0.004 C 
ATOM     17  C   UNL     1      -2.738  -0.039   2.326  0.00  0.00    -0.005 C 
ENDBRANCH  15  17
ENDBRANCH   3  15
ENDBRANCH   1   3
BRANCH   1  18
ATOM     18  C   UNL     1       0.598  -2.542   1.188  0.00  0.00    -0.073 C 
BRANCH  18  19
ATOM     19  C   UNL     1       1.539  -1.901   2.209  0.00  0.00    +0.016 C 
BRANCH  19  20
ATOM     20  C   UNL     1       2.872  -2.601   2.174  0.00  0.00    -0.049 A 
ATOM     21  C   UNL     1       3.238  -3.446   3.205  0.00  0.00    +0.003 A 
ATOM     22  C   UNL     1       4.461  -4.089   3.172  0.00  0.00    +0.001 A 
ATOM     23  C   UNL     1       5.319  -3.887   2.107  0.00  0.00    +0.003 A 
ATOM     24  C   UNL     1       4.953  -3.044   1.075  0.00  0.00    -0.050 A 
ATOM     25  C   UNL     1       3.728  -2.404   1.106  0.00  0.00    +0.007 A 
ATOM     26  C   UNL     1       5.889  -2.824  -0.086  0.00  0.00    +0.044 C 
ENDBRANCH  19  20
ENDBRANCH  18  19
ENDBRANCH   1  18
BRANCH   1  27
ATOM     27  C   UNL     1      -1.493  -2.241   0.050  0.00  0.00    -0.037 C 
BRANCH  27  28
ATOM     28  C   UNL     1      -1.816  -3.712   0.100  0.00  0.00    +0.001 A 
ATOM     29  C   UNL     1      -3.003  -4.125   0.609  0.00  0.00    +0.017 A 
ATOM     30  C   UNL     1      -3.287  -5.561   0.643  0.00  0.00    -0.001 A 
ATOM     31  C   UNL     1      -4.494  -6.048   1.155  0.00  0.00    +0.013 A 
ATOM     32  C   UNL     1      -4.728  -7.394   1.173  0.00  0.00    -0.050 A 
ATOM     33  C   UNL     1      -3.779  -8.283   0.686  0.00  0.00    +0.005 A 
ATOM     34  C   UNL     1      -2.583  -7.825   0.177  0.00  0.00    +0.026 A 
ATOM     35  C   UNL     1      -2.322  -6.459   0.148  0.00  0.00    +0.049 A 
ATOM     36  N   UNL     1      -1.135  -5.974  -0.356  0.00  0.00    -0.322 N 
ATOM     37  H   UNL     1      -0.471  -6.594  -0.697  0.00  0.00    +0.169 HD
ATOM     38  C   UNL     1      -0.885  -4.653  -0.388  0.00  0.00    +0.251 A 
ATOM     39  O   UNL     1       0.174  -4.260  -0.846  0.00  0.00    -0.268 OA
ATOM     40  C   UNL     1      -6.029  -7.918   1.725  0.00  0.00    +0.044 C 
ENDBRANCH  27  28
ENDBRANCH   1  27
TORSDOF 11
