REMARK  Name = ZINC09319407
REMARK  4 active torsions:
REMARK  status: ('A' for Active; 'I' for Inactive)
REMARK    1  A    between atoms: C_10  and  N_11
REMARK    2  A    between atoms: C_26  and  C_32
REMARK    3  A    between atoms: C_32  and  C_34
REMARK    4  A    between atoms: C_38  and  N_40
REMARK                            x       y       z     vdW  Elec       q    Type
REMARK                         _______ _______ _______ _____ _____    ______ ____
ROOT
ATOM      1  N   UNL     1       4.219   3.810  -2.069  0.00  0.00    -0.209 N 
ATOM      2  C   UNL     1       3.795   3.529  -0.800  0.00  0.00    +0.232 C 
ATOM      3  O   UNL     1       3.590   4.319   0.096  0.00  0.00    -0.274 OA
ATOM      4  C   UNL     1       3.636   2.030  -0.746  0.00  0.00    +0.113 C 
ATOM      5  C   UNL     1       2.456   1.396  -0.008  0.00  0.00    +0.100 C 
ATOM      6  C   UNL     1       1.182   2.217   0.003  0.00  0.00    -0.021 A 
ATOM      7  C   UNL     1       1.142   3.581   0.028  0.00  0.00    +0.006 A 
ATOM      8  C   UNL     1      -0.071   4.251   0.052  0.00  0.00    +0.000 A 
ATOM      9  C   UNL     1      -1.256   3.536   0.049  0.00  0.00    +0.001 A 
ATOM     10  C   UNL     1      -1.235   2.157   0.031  0.00  0.00    +0.008 A 
ATOM     11  C   UNL     1      -0.018   1.476   0.010  0.00  0.00    -0.019 A 
ATOM     12  C   UNL     1       0.002  -0.004   0.002  0.00  0.00    +0.022 C 
ATOM     13  C   UNL     1       1.094  -0.632  -0.520  0.00  0.00    +0.054 C 
ATOM     14  C   UNL     1       2.584   0.522  -2.292  0.00  0.00    +0.141 C 
ATOM     15  C   UNL     1       3.130   1.881  -2.230  0.00  0.00    +0.116 C 
ATOM     16  C   UNL     1       4.051   2.750  -2.932  0.00  0.00    +0.232 C 
ATOM     17  O   UNL     1       4.555   2.584  -4.021  0.00  0.00    -0.274 OA
ATOM     18  N   UNL     1       2.336   0.204  -0.837  0.00  0.00    -0.384 NA
ATOM     19  H   UNL     1       3.125  -0.393  -0.562  0.00  0.00    +0.127 HD
ENDROOT
BRANCH   1  29
ATOM     20  C   UNL     1       2.326   8.133  -3.863  0.00  0.00    +0.001 A 
ATOM     21  C   UNL     1       1.763   6.915  -3.490  0.00  0.00    +0.001 A 
ATOM     22  C   UNL     1       2.539   5.896  -3.027  0.00  0.00    +0.010 A 
ATOM     23  C   UNL     1       3.928   6.073  -2.924  0.00  0.00    +0.004 A 
ATOM     24  C   UNL     1       4.502   7.311  -3.304  0.00  0.00    -0.016 A 
ATOM     25  C   UNL     1       3.669   8.340  -3.777  0.00  0.00    +0.008 A 
ATOM     26  C   UNL     1       5.892   7.490  -3.201  0.00  0.00    +0.008 A 
ATOM     27  C   UNL     1       6.675   6.477  -2.738  0.00  0.00    +0.002 A 
ATOM     28  C   UNL     1       6.122   5.258  -2.358  0.00  0.00    +0.024 A 
ATOM     29  C   UNL     1       4.764   5.041  -2.449  0.00  0.00    +0.052 A 
ENDBRANCH   1  29
BRANCH  14  30
ATOM     30  C   UNL     1       3.676  -0.470  -2.595  0.00  0.00    +0.183 C 
ATOM     31  O   UNL     1       4.151  -1.141  -1.704  0.00  0.00    -0.290 OA
BRANCH  30  32
ATOM     32  C   UNL     1       4.168  -0.625  -3.974  0.00  0.00    +0.021 A 
ATOM     33  C   UNL     1       3.623   0.147  -5.005  0.00  0.00    +0.011 A 
ATOM     34  C   UNL     1       4.089  -0.003  -6.294  0.00  0.00    +0.003 A 
ATOM     35  C   UNL     1       5.093  -0.916  -6.569  0.00  0.00    +0.033 A 
ATOM     36  C   UNL     1       5.637  -1.684  -5.554  0.00  0.00    +0.127 A 
ATOM     37  C   UNL     1       5.185  -1.541  -4.259  0.00  0.00    +0.044 A 
BRANCH  36  38
ATOM     38  N   UNL     1       6.710  -2.656  -5.859  0.00  0.00    +0.056 N 
ATOM     39  O   UNL     1       7.113  -2.780  -7.001  0.00  0.00    -0.126 OA
ATOM     40  O   UNL     1       7.189  -3.333  -4.967  0.00  0.00    -0.126 OA
ENDBRANCH  36  38
ENDBRANCH  30  32
ENDBRANCH  14  30
TORSDOF 4
