REMARK  Name = ZINC16688581
REMARK  13 active torsions:
REMARK  status: ('A' for Active; 'I' for Inactive)
REMARK    1  A    between atoms: C_1  and  C_2
REMARK    2  A    between atoms: C_2  and  O_3
REMARK    3  A    between atoms: O_3  and  C_4
REMARK    4  A    between atoms: C_6  and  C_21
REMARK    5  A    between atoms: C_9  and  O_10
REMARK    6  A    between atoms: O_10  and  C_11
REMARK    7  A    between atoms: C_11  and  C_12
REMARK    8  A    between atoms: C_21  and  N_57
REMARK    9  A    between atoms: C_22  and  C_23
REMARK   10  A    between atoms: C_22  and  N_57
REMARK   11  A    between atoms: C_23  and  C_24
REMARK   12  A    between atoms: C_27  and  O_30
REMARK   13  A    between atoms: O_30  and  C_31
REMARK                            x       y       z     vdW  Elec       q    Type
REMARK                         _______ _______ _______ _____ _____    ______ ____
ROOT
ATOM      1  C   UNL     1       0.070  -8.274  -2.759  0.00  0.00    +0.164 A 
ATOM      2  C   UNL     1       0.055  -6.888  -2.789  0.00  0.00    +0.051 A 
ATOM      3  C   UNL     1       1.245  -6.185  -2.815  0.00  0.00    -0.059 A 
ATOM      4  C   UNL     1       2.451  -6.860  -2.818  0.00  0.00    +0.025 A 
ATOM      5  C   UNL     1       2.473  -8.243  -2.783  0.00  0.00    +0.086 A 
ATOM      6  C   UNL     1       1.283  -8.954  -2.756  0.00  0.00    +0.181 A 
ATOM      7 CL   UNL     1       3.990  -9.088  -2.779  0.00  0.00    -0.080 Cl
ENDROOT
BRANCH   1   8
ATOM      8  O   UNL     1      -1.100  -8.966  -2.733  0.00  0.00    -0.489 OA
BRANCH   8  10
ATOM      9  C   UNL     1      -3.510  -9.147  -2.705  0.00  0.00    +0.048 C 
ATOM     10  C   UNL     1      -2.308  -8.202  -2.737  0.00  0.00    +0.226 C 
ENDBRANCH   8  10
ENDBRANCH   1   8
BRANCH   6  11
ATOM     11  O   UNL     1       1.302 -10.314  -2.727  0.00  0.00    -0.482 OA
BRANCH  11  12
ATOM     12  C   UNL     1       1.298 -10.990  -3.986  0.00  0.00    +0.266 C 
BRANCH  12  13
ATOM     13  C   UNL     1       1.321 -12.479  -3.757  0.00  0.00    +0.008 A 
ATOM     14  C   UNL     1       1.341 -12.980  -2.468  0.00  0.00    +0.010 A 
ATOM     15  C   UNL     1       1.361 -14.345  -2.257  0.00  0.00    +0.020 A 
ATOM     16  C   UNL     1       1.361 -15.213  -3.335  0.00  0.00    +0.042 A 
ATOM     17  C   UNL     1       1.341 -14.713  -4.624  0.00  0.00    +0.040 A 
ATOM     18  C   UNL     1       1.316 -13.345  -4.835  0.00  0.00    +0.049 A 
ATOM     19 CL   UNL     1       1.284 -12.717  -6.453  0.00  0.00    -0.083 Cl
ATOM     20 CL   UNL     1       1.387 -16.928  -3.069  0.00  0.00    -0.083 Cl
ENDBRANCH  12  13
ENDBRANCH  11  12
ENDBRANCH   6  11
BRANCH   3  21
ATOM     21  C   UNL     1       1.227  -4.678  -2.848  0.00  0.00    -0.047 C 
BRANCH  21  22
ATOM     22  N   UNL     1       1.235  -4.165  -1.465  0.00  0.00    +0.382 N 
ATOM     23  H   UNL     1       2.082  -4.493  -0.986  0.00  0.00    -0.085 HD
ATOM     24  H   UNL     1       0.405  -4.513  -0.970  0.00  0.00    -0.085 HD
BRANCH  22  25
ATOM     25  C   UNL     1       1.217  -2.690  -1.466  0.00  0.00    -0.077 C 
BRANCH  25  26
ATOM     26  C   UNL     1       1.226  -2.187  -0.021  0.00  0.00    +0.016 C 
BRANCH  26  27
ATOM     27  C   UNL     1       1.208  -0.680  -0.013  0.00  0.00    -0.049 A 
ATOM     28  C   UNL     1       0.002  -0.004   0.002  0.00  0.00    +0.007 A 
ATOM     29  C   UNL     1      -0.017   1.377   0.010  0.00  0.00    +0.046 A 
ATOM     30  C   UNL     1       1.176   2.086   0.002  0.00  0.00    +0.120 A 
ATOM     31  C   UNL     1       2.385   1.405  -0.013  0.00  0.00    +0.046 A 
ATOM     32  C   UNL     1       2.398   0.024  -0.021  0.00  0.00    +0.007 A 
BRANCH  30  33
ATOM     33  O   UNL     1       1.160   3.445   0.009  0.00  0.00    -0.495 OA
ATOM     34  C   UNL     1       2.426   4.108   0.001  0.00  0.00    +0.277 C 
ENDBRANCH  30  33
ENDBRANCH  26  27
ENDBRANCH  25  26
ENDBRANCH  22  25
ENDBRANCH  21  22
ENDBRANCH   3  21
TORSDOF 11
