REMARK  Name = ZINC66739098
REMARK  10 active torsions:
REMARK  status: ('A' for Active; 'I' for Inactive)
REMARK    1  A    between atoms: C_1  and  C_2
REMARK    2  A    between atoms: C_2  and  C_3
REMARK    3  A    between atoms: C_2  and  C_4
REMARK    4  A    between atoms: C_2  and  S_5
REMARK    5  A    between atoms: S_5  and  C_6
REMARK    6  A    between atoms: C_6  and  C_7
REMARK    7  A    between atoms: C_7  and  N_8
REMARK    8  A    between atoms: C_9  and  C_11
REMARK    9  A    between atoms: C_11  and  N_12
REMARK   10  A    between atoms: C_13  and  C_15
REMARK                            x       y       z     vdW  Elec       q    Type
REMARK                         _______ _______ _______ _____ _____    ______ ____
ROOT
ATOM      1  N   UNL     1       7.793   0.209  -4.460  0.00  0.00    -0.306 N 
ATOM      2  C   UNL     1       9.072   0.618  -4.573  0.00  0.00    +0.220 C 
ATOM      3  O   UNL     1       9.562   1.321  -3.714  0.00  0.00    -0.275 OA
ATOM      4  H   UNL     1       7.401  -0.353  -5.147  0.00  0.00    +0.149 HD
ENDROOT
BRANCH   2   5
ATOM      5  C   UNL     1       9.893   0.204  -5.766  0.00  0.00    +0.048 C 
ATOM      6  C   UNL     1       9.988  -1.323  -5.815  0.00  0.00    +0.019 C 
ATOM      7  C   UNL     1      10.822  -1.744  -7.026  0.00  0.00    -0.009 C 
ATOM      8  C   UNL     1      12.226  -1.149  -6.910  0.00  0.00    +0.007 C 
ATOM      9  C   UNL     1      12.132   0.378  -6.862  0.00  0.00    -0.009 C 
ATOM     10  C   UNL     1      11.298   0.798  -5.650  0.00  0.00    +0.019 C 
ATOM     11  C   UNL     1      11.466   0.888  -8.141  0.00  0.00    +0.007 C 
ATOM     12  C   UNL     1      10.061   0.293  -8.258  0.00  0.00    -0.009 C 
ATOM     13  C   UNL     1      10.156  -1.233  -8.306  0.00  0.00    +0.007 C 
ATOM     14  C   UNL     1       9.227   0.714  -7.046  0.00  0.00    +0.019 C 
ENDBRANCH   2   5
BRANCH   1  15
ATOM     15  C   UNL     1       6.994   0.612  -3.300  0.00  0.00    +0.200 C 
BRANCH  15  17
ATOM     16  N   UNL     1       4.696   0.265  -2.453  0.00  0.00    -0.313 N 
ATOM     17  C   UNL     1       5.610   0.026  -3.414  0.00  0.00    +0.230 C 
ATOM     18  O   UNL     1       5.320  -0.661  -4.370  0.00  0.00    -0.274 OA
ATOM     19  H   UNL     1       4.928   0.814  -1.688  0.00  0.00    +0.149 HD
BRANCH  16  20
ATOM     20  C   UNL     1       3.351  -0.305  -2.564  0.00  0.00    +0.115 C 
BRANCH  20  21
ATOM     21  C   UNL     1       2.517   0.116  -1.353  0.00  0.00    +0.088 C 
BRANCH  21  22
ATOM     22  S   UNL     1       0.851  -0.589  -1.490  0.00  0.00    -0.153 S 
BRANCH  22  24
ATOM     23  C   UNL     1      -0.019   1.526   0.010  0.00  0.00    +0.022 C 
ATOM     24  C   UNL     1       0.002  -0.004   0.002  0.00  0.00    +0.008 C 
ATOM     25  C   UNL     1       0.742  -0.511   1.242  0.00  0.00    +0.022 C 
ATOM     26  C   UNL     1      -1.433  -0.534   0.013  0.00  0.00    +0.022 C 
ENDBRANCH  22  24
ENDBRANCH  21  22
ENDBRANCH  20  21
ENDBRANCH  16  20
ENDBRANCH  15  17
ENDBRANCH   1  15
TORSDOF 7
