REMARK  Name = ZINC32398628
REMARK  8 active torsions:
REMARK  status: ('A' for Active; 'I' for Inactive)
REMARK    1  A    between atoms: C_1  and  C_2
REMARK    2  A    between atoms: C_2  and  C_3
REMARK    3  A    between atoms: C_2  and  C_4
REMARK    4  A    between atoms: C_2  and  N_11
REMARK    5  A    between atoms: C_12  and  C_14
REMARK    6  A    between atoms: C_14  and  C_15
REMARK    7  A    between atoms: C_15  and  N_16
REMARK    8  A    between atoms: C_17  and  C_19
REMARK                            x       y       z     vdW  Elec       q    Type
REMARK                         _______ _______ _______ _____ _____    ______ ____
ROOT
ATOM      1  C   UNL     1       1.288  -0.679  -0.678  0.00  0.00    +0.114 C 
ENDROOT
BRANCH   1   3
ATOM      2  N   UNL     1      -0.028   1.367  -0.234  0.00  0.00    -0.306 N 
ATOM      3  C   UNL     1      -0.014   0.031  -0.412  0.00  0.00    +0.215 C 
ATOM      4  O   UNL     1      -1.049  -0.599  -0.357  0.00  0.00    -0.276 OA
ATOM      5  H   UNL     1       0.911   1.938  -0.279  0.00  0.00    +0.150 HD
BRANCH   2   7
ATOM      6  C   UNL     1      -2.255   1.806  -1.144  0.00  0.00    +0.036 C 
ATOM      7  C   UNL     1      -1.295   2.059   0.019  0.00  0.00    +0.054 C 
ATOM      8  C   UNL     1      -1.914   1.531   1.315  0.00  0.00    +0.036 C 
BRANCH   7   9
ATOM      9  C   UNL     1      -1.042   3.538   0.150  0.00  0.00    -0.025 A 
ATOM     10  C   UNL     1      -1.921   4.329   0.866  0.00  0.00    +0.007 A 
ATOM     11  C   UNL     1      -1.686   5.686   0.990  0.00  0.00    +0.015 A 
ATOM     12  C   UNL     1      -0.578   6.254   0.389  0.00  0.00    +0.018 A 
ATOM     13  C   UNL     1       0.299   5.463  -0.332  0.00  0.00    +0.015 A 
ATOM     14  C   UNL     1       0.067   4.106  -0.451  0.00  0.00    +0.007 A 
ATOM     15 BR   UNL     1      -0.260   8.111   0.553  0.00  0.00    -0.050 Br
ENDBRANCH   7   9
ENDBRANCH   2   7
ENDBRANCH   1   3
BRANCH   1  16
ATOM     16  C   UNL     1       1.027  -2.178  -0.841  0.00  0.00    +0.113 C 
BRANCH  16  17
ATOM     17  N   UNL     1       2.292  -2.869  -1.100  0.00  0.00    -0.314 N 
ATOM     18  C   UNL     1       2.307  -4.205  -1.278  0.00  0.00    +0.219 C 
ATOM     19  O   UNL     1       1.272  -4.835  -1.223  0.00  0.00    -0.275 OA
ATOM     20  H   UNL     1       3.231  -2.297  -1.150  0.00  0.00    +0.149 HD
BRANCH  18  21
ATOM     21  C   UNL     1       3.609  -4.916  -1.545  0.00  0.00    +0.048 C 
ATOM     22  C   UNL     1       4.237  -4.365  -2.827  0.00  0.00    +0.019 C 
ATOM     23  C   UNL     1       5.558  -5.087  -3.098  0.00  0.00    -0.009 C 
ATOM     24  C   UNL     1       5.297  -6.586  -3.260  0.00  0.00    +0.007 C 
ATOM     25  C   UNL     1       4.670  -7.136  -1.978  0.00  0.00    -0.009 C 
ATOM     26  C   UNL     1       3.348  -6.414  -1.707  0.00  0.00    +0.019 C 
ATOM     27  C   UNL     1       5.624  -6.909  -0.804  0.00  0.00    +0.007 C 
ATOM     28  C   UNL     1       5.886  -5.410  -0.642  0.00  0.00    -0.009 C 
ATOM     29  C   UNL     1       6.513  -4.860  -1.924  0.00  0.00    +0.007 C 
ATOM     30  C   UNL     1       4.564  -4.688  -0.371  0.00  0.00    +0.019 C 
ENDBRANCH  18  21
ENDBRANCH  16  17
ENDBRANCH   1  16
TORSDOF 6
