REMARK  Name = ZINC12558489
REMARK  6 active torsions:
REMARK  status: ('A' for Active; 'I' for Inactive)
REMARK    1  A    between atoms: C_1  and  C_2
REMARK    2  A    between atoms: C_5  and  S_8
REMARK    3  A    between atoms: S_8  and  N_11
REMARK    4  A    between atoms: C_20  and  C_22
REMARK    5  A    between atoms: C_22  and  N_24
REMARK    6  A    between atoms: N_33  and  C_34
REMARK                            x       y       z     vdW  Elec       q    Type
REMARK                         _______ _______ _______ _____ _____    ______ ____
ROOT
ATOM      1  N   UNL     1       0.047  -3.717   0.478  0.00  0.00    -0.160 NA
ATOM      2  C   UNL     1       0.288  -3.761  -0.968  0.00  0.00    +0.145 C 
ATOM      3  C   UNL     1       1.639  -3.166  -1.277  0.00  0.00    -0.028 A 
ATOM      4  C   UNL     1       1.941  -2.898  -2.605  0.00  0.00    +0.005 A 
ATOM      5  C   UNL     1       3.164  -2.363  -2.951  0.00  0.00    +0.000 A 
ATOM      6  C   UNL     1       4.097  -2.092  -1.967  0.00  0.00    +0.000 A 
ATOM      7  C   UNL     1       3.797  -2.354  -0.647  0.00  0.00    +0.004 A 
ATOM      8  C   UNL     1       2.563  -2.887  -0.295  0.00  0.00    -0.041 A 
ATOM      9  C   UNL     1       2.295  -3.121   1.169  0.00  0.00    +0.065 C 
ATOM     10  C   UNL     1       1.157  -4.114   1.361  0.00  0.00    +0.172 C 
ENDROOT
BRANCH   1  11
ATOM     11  S   UNL     1      -1.412  -3.233   1.093  0.00  0.00    +0.062 S 
ATOM     12  O   UNL     1      -1.540  -3.849   2.367  0.00  0.00    -0.153 OA
ATOM     13  O   UNL     1      -2.369  -3.415   0.059  0.00  0.00    -0.153 OA
BRANCH  11  18
ATOM     14  C   UNL     1      -1.053   2.708   2.082  0.00  0.00    +0.044 C 
ATOM     15  C   UNL     1      -1.143   1.224   1.835  0.00  0.00    -0.050 A 
ATOM     16  C   UNL     1      -1.582   0.753   0.612  0.00  0.00    +0.005 A 
ATOM     17  C   UNL     1      -1.664  -0.609   0.386  0.00  0.00    +0.029 A 
ATOM     18  C   UNL     1      -1.306  -1.498   1.382  0.00  0.00    +0.106 A 
ATOM     19  C   UNL     1      -0.866  -1.026   2.604  0.00  0.00    +0.029 A 
ATOM     20  C   UNL     1      -0.780   0.335   2.829  0.00  0.00    +0.005 A 
ENDBRANCH  11  18
ENDBRANCH   1  11
BRANCH  10  21
ATOM     21  C   UNL     1       0.700  -4.089   2.796  0.00  0.00    +0.257 C 
ATOM     22  O   UNL     1       0.795  -3.066   3.446  0.00  0.00    -0.272 OA
BRANCH  21  23
ATOM     23  N   UNL     1       0.192  -5.188   3.354  0.00  0.00    -0.163 NA
ATOM     24  C   UNL     1       0.676  -5.632   4.505  0.00  0.00    +0.126 C 
ATOM     25  C   UNL     1       0.124  -6.760   5.274  0.00  0.00    +0.018 A 
ATOM     26  C   UNL     1      -0.962  -7.611   5.045  0.00  0.00    +0.011 A 
ATOM     27  C   UNL     1      -1.258  -8.605   5.954  0.00  0.00    +0.001 A 
ATOM     28  C   UNL     1      -0.485  -8.764   7.091  0.00  0.00    +0.000 A 
ATOM     29  C   UNL     1       0.592  -7.926   7.325  0.00  0.00    +0.006 A 
ATOM     30  C   UNL     1       0.897  -6.930   6.426  0.00  0.00    -0.020 A 
ATOM     31  C   UNL     1       1.974  -5.875   6.384  0.00  0.00    +0.148 C 
ATOM     32  N   UNL     1       1.760  -5.115   5.147  0.00  0.00    -0.282 N 
BRANCH  32  33
ATOM     33  C   UNL     1       2.536  -4.040   4.705  0.00  0.00    +0.035 A 
ATOM     34  C   UNL     1       2.329  -2.770   5.227  0.00  0.00    +0.023 A 
ATOM     35  C   UNL     1       3.098  -1.710   4.787  0.00  0.00    +0.002 A 
ATOM     36  C   UNL     1       4.073  -1.913   3.828  0.00  0.00    +0.000 A 
ATOM     37  C   UNL     1       4.282  -3.176   3.306  0.00  0.00    +0.002 A 
ATOM     38  C   UNL     1       3.520  -4.242   3.745  0.00  0.00    +0.023 A 
ENDBRANCH  32  33
ENDBRANCH  21  23
ENDBRANCH  10  21
TORSDOF 5
