REMARK  Name = ZINC64714326
REMARK  6 active torsions:
REMARK  status: ('A' for Active; 'I' for Inactive)
REMARK    1  A    between atoms: C_1  and  C_2
REMARK    2  A    between atoms: C_2  and  C_3
REMARK    3  A    between atoms: C_6  and  C_9
REMARK    4  A    between atoms: C_17  and  S_21
REMARK    5  A    between atoms: S_21  and  C_22
REMARK    6  A    between atoms: C_22  and  C_23
REMARK                            x       y       z     vdW  Elec       q    Type
REMARK                         _______ _______ _______ _____ _____    ______ ____
ROOT
ATOM      1  C   UNL     1       2.787  -1.910   4.666  0.00  0.00    +0.047 C 
ATOM      2  C   UNL     1       2.212  -2.195   5.858  0.00  0.00    +0.027 C 
ATOM      3  C   UNL     1       3.354  -2.664   6.718  0.00  0.00    +0.193 C 
ATOM      4  C   UNL     1       3.360  -2.191   8.140  0.00  0.00    +0.276 C 
ATOM      5  O   UNL     1       2.336  -1.977   8.744  0.00  0.00    -0.270 OA
ATOM      6  N   UNL     1       4.579  -2.018   8.711  0.00  0.00    -0.081 NA
ATOM      7  N   UNL     1       5.643  -2.120   8.096  0.00  0.00    -0.163 NA
ATOM      8  C   UNL     1       5.723  -2.404   6.652  0.00  0.00    +0.272 C 
ATOM      9  N   UNL     1       4.491  -1.954   6.046  0.00  0.00    -0.178 NA
ATOM     10  N   UNL     1       4.178  -2.160   4.743  0.00  0.00    -0.274 N 
ATOM     11  H   UNL     1       4.773  -2.420   4.023  0.00  0.00    +0.167 HD
ENDROOT
BRANCH   1  15
ATOM     12  C   UNL     1       0.731  -0.503   1.223  0.00  0.00    -0.048 A 
ATOM     13  C   UNL     1       2.098  -0.709   1.173  0.00  0.00    +0.004 A 
ATOM     14  C   UNL     1       2.771  -1.165   2.288  0.00  0.00    +0.010 A 
ATOM     15  C   UNL     1       2.070  -1.420   3.466  0.00  0.00    -0.003 A 
ATOM     16  C   UNL     1       0.692  -1.211   3.510  0.00  0.00    +0.010 A 
ATOM     17  C   UNL     1       0.031  -0.749   2.391  0.00  0.00    +0.004 A 
BRANCH  12  19
ATOM     18  C   UNL     1      -0.019   1.526   0.010  0.00  0.00    +0.009 C 
ATOM     19  C   UNL     1       0.002  -0.004   0.002  0.00  0.00    +0.032 C 
ENDBRANCH  12  19
ENDBRANCH   1  15
BRANCH   8  20
ATOM     20  S   UNL     1       7.132  -1.523   5.924  0.00  0.00    -0.111 S 
BRANCH  20  21
ATOM     21  C   UNL     1       6.774   0.225   6.252  0.00  0.00    +0.107 C 
BRANCH  21  22
ATOM     22  C   UNL     1       7.882   1.078   5.692  0.00  0.00    -0.034 A 
ATOM     23  C   UNL     1       8.978   1.388   6.476  0.00  0.00    +0.008 A 
ATOM     24  C   UNL     1       9.997   2.170   5.966  0.00  0.00    +0.050 A 
ATOM     25  C   UNL     1       9.923   2.646   4.667  0.00  0.00    +0.166 A 
ATOM     26  C   UNL     1       8.819   2.334   3.877  0.00  0.00    +0.167 A 
ATOM     27  C   UNL     1       7.804   1.544   4.393  0.00  0.00    +0.054 A 
ATOM     28  O   UNL     1       8.981   2.914   2.652  0.00  0.00    -0.453 OA
ATOM     29  C   UNL     1       9.995   3.920   2.835  0.00  0.00    +0.466 C 
ATOM     30  O   UNL     1      10.776   3.422   3.937  0.00  0.00    -0.453 OA
ENDBRANCH  21  22
ENDBRANCH  20  21
ENDBRANCH   8  20
TORSDOF 5
