REMARK  Name = ZINC39922379
REMARK  8 active torsions:
REMARK  status: ('A' for Active; 'I' for Inactive)
REMARK    1  A    between atoms: C_4  and  C_10
REMARK    2  A    between atoms: N_11  and  N_12
REMARK    3  A    between atoms: C_13  and  C_15
REMARK    4  A    between atoms: C_15  and  C_16
REMARK    5  A    between atoms: C_16  and  C_17
REMARK    6  A    between atoms: C_17  and  C_18
REMARK    7  A    between atoms: N_20  and  N_21
REMARK    8  A    between atoms: C_22  and  C_23
REMARK                            x       y       z     vdW  Elec       q    Type
REMARK                         _______ _______ _______ _____ _____    ______ ____
ROOT
ATOM      1  C   UNL     1       9.116   6.658  -0.050  0.00  0.00    +0.018 C 
ENDROOT
BRANCH   1   2
ATOM      2  C   UNL     1       7.586   6.608  -0.036  0.00  0.00    +0.098 C 
BRANCH   2   4
ATOM      3  N   UNL     1       5.815   4.882  -0.028  0.00  0.00    -0.207 N 
ATOM      4  C   UNL     1       7.131   5.171  -0.039  0.00  0.00    +0.232 C 
ATOM      5  O   UNL     1       7.949   4.276  -0.051  0.00  0.00    -0.274 OA
ATOM      6  H   UNL     1       5.161   5.598  -0.018  0.00  0.00    +0.177 HD
BRANCH   3   8
ATOM      7  C   UNL     1       4.113   3.265  -0.020  0.00  0.00    +0.136 C 
ATOM      8  N   UNL     1       5.391   3.546  -0.031  0.00  0.00    -0.188 NA
BRANCH   7  12
ATOM      9  C   UNL     1      -0.017   1.394   0.010  0.00  0.00    +0.001 A 
ATOM     10  C   UNL     1       1.129   2.121   0.003  0.00  0.00    +0.010 A 
ATOM     11  C   UNL     1       2.377   1.460  -0.013  0.00  0.00    +0.004 A 
ATOM     12  C   UNL     1       3.689   1.928  -0.023  0.00  0.00    +0.000 C 
ATOM     13  C   UNL     1       4.561   0.692  -0.038  0.00  0.00    +0.150 C 
ATOM     14  N   UNL     1       3.644  -0.451  -0.035  0.00  0.00    -0.380 N 
ATOM     15  C   UNL     1       2.403  -0.013  -0.021  0.00  0.00    +0.043 A 
ATOM     16  C   UNL     1       1.162  -0.704  -0.012  0.00  0.00    +0.026 A 
ATOM     17  C   UNL     1       0.002  -0.004   0.002  0.00  0.00    +0.002 A 
ATOM     18  H   UNL     1       3.909  -1.384  -0.043  0.00  0.00    +0.160 HD
ENDBRANCH   7  12
ENDBRANCH   3   8
ENDBRANCH   2   4
ENDBRANCH   1   2
BRANCH   1  19
ATOM     19  C   UNL     1       9.578   8.117  -0.047  0.00  0.00    +0.098 C 
BRANCH  19  20
ATOM     20  C   UNL     1      11.084   8.166  -0.061  0.00  0.00    +0.232 C 
ATOM     21  O   UNL     1      11.724   7.137  -0.072  0.00  0.00    -0.274 OA
ATOM     22  N   UNL     1      11.719   9.355  -0.061  0.00  0.00    -0.207 N 
ATOM     23  H   UNL     1      11.207  10.179  -0.052  0.00  0.00    +0.177 HD
BRANCH  22  24
ATOM     24  N   UNL     1      13.119   9.401  -0.074  0.00  0.00    -0.188 NA
ATOM     25  C   UNL     1      13.736  10.556  -0.074  0.00  0.00    +0.136 C 
BRANCH  25  26
ATOM     26  C   UNL     1      15.138  10.602  -0.087  0.00  0.00    +0.000 C 
ATOM     27  C   UNL     1      15.943  11.739  -0.083  0.00  0.00    +0.004 A 
ATOM     28  C   UNL     1      17.354  11.315  -0.101  0.00  0.00    +0.043 A 
ATOM     29  N   UNL     1      17.440  10.002  -0.114  0.00  0.00    -0.380 N 
ATOM     30  C   UNL     1      16.091   9.428  -0.101  0.00  0.00    +0.150 C 
ATOM     31  C   UNL     1      18.355  12.323  -0.100  0.00  0.00    +0.026 A 
ATOM     32  C   UNL     1      17.996  13.629  -0.083  0.00  0.00    +0.002 A 
ATOM     33  C   UNL     1      16.655  14.025  -0.066  0.00  0.00    +0.001 A 
ATOM     34  C   UNL     1      15.645  13.119  -0.067  0.00  0.00    +0.010 A 
ATOM     35  H   UNL     1      18.267   9.493  -0.128  0.00  0.00    +0.160 HD
ENDBRANCH  25  26
ENDBRANCH  22  24
ENDBRANCH  19  20
ENDBRANCH   1  19
TORSDOF 8
