REMARK  Name = ZINC60374250
REMARK  7 active torsions:
REMARK  status: ('A' for Active; 'I' for Inactive)
REMARK    1  A    between atoms: C_1  and  C_2
REMARK    2  A    between atoms: C_2  and  C_3
REMARK    3  A    between atoms: C_3  and  C_4
REMARK    4  A    between atoms: C_3  and  C_5
REMARK    5  A    between atoms: C_3  and  O_26
REMARK    6  A    between atoms: C_5  and  N_6
REMARK    7  A    between atoms: C_14  and  C_16
REMARK                            x       y       z     vdW  Elec       q    Type
REMARK                         _______ _______ _______ _____ _____    ______ ____
ROOT
ATOM      1  N   UNL     1       1.365  -2.528   2.477  0.00  0.00    -0.326 N 
ATOM      2  C   UNL     1       1.492  -3.888   2.697  0.00  0.00    +0.131 A 
ATOM      3  C   UNL     1       2.166  -4.369   3.856  0.00  0.00    +0.051 A 
ATOM      4  C   UNL     1       2.796  -3.603   4.932  0.00  0.00    -0.025 A 
ATOM      5  C   UNL     1       3.373  -4.307   5.928  0.00  0.00    -0.004 A 
ATOM      6  S   UNL     1       3.117  -6.008   5.501  0.00  0.00    -0.073 S 
ATOM      7  C   UNL     1       2.235  -5.772   3.980  0.00  0.00    +0.114 A 
ATOM      8  N   UNL     1       1.709  -6.572   3.075  0.00  0.00    -0.220 NA
ATOM      9  C   UNL     1       1.094  -6.068   2.013  0.00  0.00    +0.164 A 
ATOM     10  N   UNL     1       0.986  -4.754   1.838  0.00  0.00    -0.212 NA
ATOM     11  C   UNL     1       4.078  -3.763   7.133  0.00  0.00    +0.043 C 
ATOM     12  C   UNL     1       4.379  -2.277   6.889  0.00  0.00    +0.005 C 
ATOM     13  C   UNL     1       3.109  -1.599   6.367  0.00  0.00    +0.005 C 
ATOM     14  C   UNL     1       2.811  -2.077   4.946  0.00  0.00    +0.037 C 
ATOM     15  H   UNL     1       1.806  -1.897   3.068  0.00  0.00    +0.148 HD
ENDROOT
BRANCH   9  16
ATOM     16  C   UNL     1       0.509  -6.986   1.007  0.00  0.00    +0.037 A 
ATOM     17  C   UNL     1       0.598  -8.372   1.173  0.00  0.00    +0.014 A 
ATOM     18  C   UNL     1       0.036  -9.186   0.205  0.00  0.00    +0.020 A 
ATOM     19  C   UNL     1      -0.590  -8.608  -0.885  0.00  0.00    +0.111 A 
ATOM     20  N   UNL     1      -0.658  -7.298  -1.015  0.00  0.00    -0.263 NA
ATOM     21  C   UNL     1      -0.142  -6.482  -0.118  0.00  0.00    +0.122 A 
ENDBRANCH   9  16
BRANCH   1  22
ATOM     22  C   UNL     1       0.565  -2.040   1.351  0.00  0.00    +0.137 C 
BRANCH  22  23
ATOM     23  C   UNL     1       0.588  -0.510   1.333  0.00  0.00    +0.078 C 
ATOM     24  C   UNL     1       0.121   0.022   2.689  0.00  0.00    +0.043 C 
BRANCH  23  26
ATOM     25  C   UNL     1      -0.324   1.531   0.218  0.00  0.00    +0.007 C 
ATOM     26  C   UNL     1      -0.347   0.001   0.235  0.00  0.00    +0.032 C 
ENDBRANCH  23  26
BRANCH  23  27
ATOM     27  O   UNL     1       1.918  -0.057   1.076  0.00  0.00    -0.387 OA
ATOM     28  H   UNL     1       2.279  -0.357   0.231  0.00  0.00    +0.210 HD
ENDBRANCH  23  27
ENDBRANCH  22  23
ENDBRANCH   1  22
TORSDOF 5
