REMARK  Name = ZINC36066409
REMARK  13 active torsions:
REMARK  status: ('A' for Active; 'I' for Inactive)
REMARK    1  A    between atoms: C_1  and  C_2
REMARK    2  A    between atoms: C_2  and  C_3
REMARK    3  A    between atoms: C_3  and  C_4
REMARK    4  A    between atoms: C_4  and  N_5
REMARK    5  A    between atoms: N_5  and  C_6
REMARK    6  A    between atoms: N_5  and  C_7
REMARK    7  A    between atoms: C_7  and  C_8
REMARK    8  A    between atoms: C_8  and  N_9
REMARK    9  A    between atoms: C_10  and  C_34
REMARK   10  A    between atoms: C_18  and  C_24
REMARK   11  A    between atoms: N_26  and  C_27
REMARK   12  A    between atoms: C_30  and  C_33
REMARK   13  A    between atoms: N_36  and  C_37
REMARK                            x       y       z     vdW  Elec       q    Type
REMARK                         _______ _______ _______ _____ _____    ______ ____
ROOT
ATOM      1  N   UNL     1      -4.763  -6.112   0.018  0.00  0.00    -0.288 N 
ATOM      2  C   UNL     1      -4.747  -7.158  -1.053  0.00  0.00    +0.198 C 
ATOM      3  C   UNL     1      -5.129  -8.388  -0.289  0.00  0.00    +0.127 C 
ATOM      4  C   UNL     1      -6.588  -8.393   0.129  0.00  0.00    +0.009 C 
ATOM      5  C   UNL     1      -6.771  -9.533   0.779  0.00  0.00    +0.004 C 
ATOM      6  C   UNL     1      -5.391 -10.201   0.808  0.00  0.00    +0.155 C 
ATOM      7  O   UNL     1      -4.820  -9.747  -0.490  0.00  0.00    -0.358 OA
ATOM      8  C   UNL     1      -4.616  -9.316   1.860  0.00  0.00    +0.123 C 
ATOM      9  C   UNL     1      -4.238  -8.118   0.989  0.00  0.00    +0.128 C 
ATOM     10  C   UNL     1      -4.558  -6.702   1.242  0.00  0.00    +0.223 C 
ATOM     11  O   UNL     1      -4.630  -6.161   2.325  0.00  0.00    -0.275 OA
ENDROOT
BRANCH   8  12
ATOM     12  C   UNL     1      -5.518  -8.917   3.000  0.00  0.00    +0.224 C 
ATOM     13  O   UNL     1      -5.746  -7.745   3.211  0.00  0.00    -0.275 OA
ATOM     14  N   UNL     1      -6.070  -9.863   3.784  0.00  0.00    -0.285 N 
ATOM     15  H   UNL     1      -5.950 -10.802   3.571  0.00  0.00    +0.155 HD
BRANCH  14  16
ATOM     16  C   UNL     1      -6.817  -9.492   4.908  0.00  0.00    +0.033 A 
ATOM     17  C   UNL     1      -7.898 -10.264   5.312  0.00  0.00    +0.023 A 
ATOM     18  C   UNL     1      -8.633  -9.895   6.421  0.00  0.00    +0.005 A 
ATOM     19  C   UNL     1      -8.294  -8.757   7.130  0.00  0.00    -0.050 A 
ATOM     20  C   UNL     1      -7.218  -7.985   6.730  0.00  0.00    +0.005 A 
ATOM     21  C   UNL     1      -6.475  -8.353   5.625  0.00  0.00    +0.023 A 
ATOM     22  C   UNL     1      -9.098  -8.357   8.340  0.00  0.00    +0.044 C 
ENDBRANCH  14  16
ENDBRANCH   8  12
BRANCH   2  23
ATOM     23  C   UNL     1      -3.370  -7.298  -1.648  0.00  0.00    +0.237 C 
ATOM     24  O   UNL     1      -2.404  -6.878  -1.048  0.00  0.00    -0.274 OA
ATOM     25  N   UNL     1      -3.212  -7.891  -2.848  0.00  0.00    -0.311 N 
ATOM     26  H   UNL     1      -3.985  -8.228  -3.329  0.00  0.00    +0.149 HD
BRANCH  25  27
ATOM     27  C   UNL     1      -1.873  -8.028  -3.427  0.00  0.00    +0.073 C 
ATOM     28  C   UNL     1      -1.509  -6.745  -4.177  0.00  0.00    +0.022 C 
ATOM     29  C   UNL     1      -0.111  -6.887  -4.782  0.00  0.00    +0.002 C 
ATOM     30  C   UNL     1      -0.093  -8.069  -5.754  0.00  0.00    +0.000 C 
ATOM     31  C   UNL     1      -0.458  -9.352  -5.004  0.00  0.00    +0.002 C 
ATOM     32  C   UNL     1      -1.856  -9.209  -4.399  0.00  0.00    +0.022 C 
ENDBRANCH  25  27
ENDBRANCH   2  23
BRANCH   1  33
ATOM     33  C   UNL     1      -4.960  -4.678  -0.206  0.00  0.00    +0.090 C 
BRANCH  33  34
ATOM     34  C   UNL     1      -3.605  -4.007  -0.438  0.00  0.00    -0.060 C 
BRANCH  34  35
ATOM     35  N   UNL     1      -3.803  -2.569  -0.663  0.00  0.00    +0.379 N 
ATOM     36  C   UNL     1      -4.556  -2.366  -1.908  0.00  0.00    -0.096 C 
ATOM     37  H   UNL     1      -4.319  -2.176   0.110  0.00  0.00    -0.082 HD
BRANCH  35  38
ATOM     38  C   UNL     1      -2.496  -1.905  -0.767  0.00  0.00    -0.079 C 
BRANCH  38  39
ATOM     39  C   UNL     1      -2.700  -0.393  -0.876  0.00  0.00    -0.019 C 
BRANCH  39  41
ATOM     40  C   UNL     1      -1.543   1.811  -1.093  0.00  0.00    +0.004 C 
ATOM     41  C   UNL     1      -1.339   0.298  -0.984  0.00  0.00    -0.005 C 
ENDBRANCH  39  41
ENDBRANCH  38  39
ENDBRANCH  35  38
ENDBRANCH  34  35
ENDBRANCH  33  34
ENDBRANCH   1  33
TORSDOF 10
