REMARK  Name = ZINC14533157
REMARK  5 active torsions:
REMARK  status: ('A' for Active; 'I' for Inactive)
REMARK    1  A    between atoms: C_2  and  C_3
REMARK    2  A    between atoms: C_3  and  N_4
REMARK    3  A    between atoms: C_7  and  C_9
REMARK    4  A    between atoms: C_18  and  N_61
REMARK    5  A    between atoms: C_22  and  N_61
REMARK                            x       y       z     vdW  Elec       q    Type
REMARK                         _______ _______ _______ _____ _____    ______ ____
ROOT
ATOM      1  N   UNL     1      -4.800  -1.434   3.382  0.00  0.00    -0.264 N 
ATOM      2  C   UNL     1      -3.614  -0.874   3.090  0.00  0.00    +0.043 A 
ATOM      3  C   UNL     1      -3.787   0.471   3.118  0.00  0.00    +0.004 A 
ATOM      4  C   UNL     1      -5.138   0.679   3.445  0.00  0.00    +0.151 A 
ATOM      5  N   UNL     1      -5.682  -0.517   3.589  0.00  0.00    -0.166 NA
ATOM      6  C   UNL     1      -2.705   1.478   2.841  0.00  0.00    +0.023 C 
ATOM      7  C   UNL     1      -1.544   0.757   2.144  0.00  0.00    -0.067 C 
ATOM      8  C   UNL     1      -1.181  -0.507   2.928  0.00  0.00    -0.009 C 
ATOM      9  C   UNL     1      -2.301  -1.545   2.780  0.00  0.00    +0.054 C 
ENDROOT
BRANCH   4  10
ATOM     10  C   UNL     1      -5.817   1.981   3.599  0.00  0.00    +0.267 C 
ATOM     11  O   UNL     1      -5.229   3.010   3.329  0.00  0.00    -0.268 OA
ATOM     12  N   UNL     1      -7.090   2.029   4.040  0.00  0.00    -0.292 N 
ATOM     13  C   UNL     1      -7.778   0.814   4.504  0.00  0.00    +0.136 C 
ATOM     14  C   UNL     1      -8.393   1.108   5.881  0.00  0.00    +0.179 C 
ATOM     15  O   UNL     1      -9.189   2.293   5.796  0.00  0.00    -0.377 OA
ATOM     16  C   UNL     1      -8.451   3.470   5.458  0.00  0.00    +0.179 C 
ATOM     17  C   UNL     1      -7.836   3.297   4.064  0.00  0.00    +0.136 C 
ENDBRANCH   4  10
BRANCH   7  18
ATOM     18  N   UNL     1      -0.376   1.657   2.093  0.00  0.00    +0.383 N 
ATOM     19  H   UNL     1       0.146   1.584   2.974  0.00  0.00    -0.085 HD
ATOM     20  H   UNL     1      -0.699   2.623   1.965  0.00  0.00    -0.085 HD
BRANCH  18  21
ATOM     21  C   UNL     1       0.508   1.286   0.972  0.00  0.00    -0.071 C 
ATOM     22  C   UNL     1       0.035   1.953  -0.292  0.00  0.00    -0.016 C 
ATOM     23  C   UNL     1       0.281   1.087  -1.542  0.00  0.00    -0.002 C 
ATOM     24  C   UNL     1       1.657   0.394  -1.528  0.00  0.00    -0.000 C 
ATOM     25  C   UNL     1       2.753   1.301  -1.037  0.00  0.00    -0.000 C 
ATOM     26  C   UNL     1       2.940   1.069   0.476  0.00  0.00    -0.002 C 
ATOM     27  C   UNL     1       1.942   1.768   1.272  0.00  0.00    -0.016 C 
ENDBRANCH  18  21
ENDBRANCH   7  18
BRANCH   1  28
ATOM     28  C   UNL     1      -5.052  -2.875   3.455  0.00  0.00    +0.170 C 
BRANCH  28  30
ATOM     29  C   UNL     1      -5.742  -4.006   5.506  0.00  0.00    +0.006 C 
ATOM     30  C   UNL     1      -4.804  -3.357   4.861  0.00  0.00    -0.012 C 
ENDBRANCH  28  30
ENDBRANCH   1  28
TORSDOF 5
