REMARK  Name = ZINC53628697
REMARK  9 active torsions:
REMARK  status: ('A' for Active; 'I' for Inactive)
REMARK    1  A    between atoms: C_1  and  C_2
REMARK    2  A    between atoms: C_3  and  C_31
REMARK    3  A    between atoms: C_14  and  C_19
REMARK    4  A    between atoms: C_16  and  C_18
REMARK    5  A    between atoms: C_19  and  C_20
REMARK    6  A    between atoms: C_20  and  C_21
REMARK    7  A    between atoms: N_23  and  C_24
REMARK    8  A    between atoms: C_24  and  C_25
REMARK    9  A    between atoms: C_25  and  C_26
REMARK                            x       y       z     vdW  Elec       q    Type
REMARK                         _______ _______ _______ _____ _____    ______ ____
ROOT
ATOM      1  C   UNL     1      -0.018   1.503   0.010  0.00  0.00    +0.087 C 
ATOM      2  C   UNL     1       0.002  -0.004   0.002  0.00  0.00    +0.111 A 
ATOM      3  C   UNL     1      -1.095  -0.795   0.003  0.00  0.00    +0.031 A 
ATOM      4  C   UNL     1      -0.593  -2.182  -0.008  0.00  0.00    +0.029 A 
ATOM      5  C   UNL     1      -1.197  -3.435  -0.009  0.00  0.00    +0.019 A 
ATOM      6  C   UNL     1      -0.429  -4.572  -0.022  0.00  0.00    -0.001 A 
ATOM      7  C   UNL     1       0.957  -4.474  -0.037  0.00  0.00    +0.139 A 
ATOM      8  C   UNL     1       1.572  -3.231  -0.030  0.00  0.00    +0.093 A 
ATOM      9  C   UNL     1       0.807  -2.074  -0.016  0.00  0.00    +0.139 A 
ATOM     10  O   UNL     1       1.113  -0.760  -0.013  0.00  0.00    -0.459 OA
ATOM     11  O   UNL     1       1.751  -5.580  -0.070  0.00  0.00    -0.425 OA
ATOM     12  C   UNL     1       1.164  -6.775   0.135  0.00  0.00    +0.316 C 
ATOM     13  O   UNL     1       1.687  -7.630   0.810  0.00  0.00    -0.250 OA
ATOM     14  C   UNL     1      -0.185  -6.997  -0.520  0.00  0.00    +0.106 C 
ATOM     15  C   UNL     1      -1.132  -5.906  -0.011  0.00  0.00    +0.033 C 
ATOM     16  C   UNL     1      -1.571  -6.238   1.416  0.00  0.00    +0.013 C 
ENDROOT
BRANCH   3  17
ATOM     17  C   UNL     1      -2.511  -0.358   0.013  0.00  0.00    -0.014 A 
ATOM     18  C   UNL     1      -3.323  -0.641   1.111  0.00  0.00    +0.008 A 
ATOM     19  C   UNL     1      -4.640  -0.231   1.116  0.00  0.00    +0.001 A 
ATOM     20  C   UNL     1      -5.157   0.458   0.034  0.00  0.00    +0.000 A 
ATOM     21  C   UNL     1      -4.357   0.741  -1.059  0.00  0.00    +0.001 A 
ATOM     22  C   UNL     1      -3.036   0.341  -1.072  0.00  0.00    +0.008 A 
ENDBRANCH   3  17
BRANCH  14  23
ATOM     23  C   UNL     1      -0.046  -6.899  -2.040  0.00  0.00    +0.024 C 
BRANCH  23  24
ATOM     24  C   UNL     1       0.838  -8.040  -2.547  0.00  0.00    +0.096 C 
BRANCH  24  25
ATOM     25  C   UNL     1       0.975  -7.943  -4.044  0.00  0.00    +0.213 C 
ATOM     26  O   UNL     1       0.420  -7.049  -4.647  0.00  0.00    -0.276 OA
ATOM     27  N   UNL     1       1.713  -8.850  -4.714  0.00  0.00    -0.315 N 
ATOM     28  H   UNL     1       2.157  -9.566  -4.231  0.00  0.00    +0.149 HD
BRANCH  27  29
ATOM     29  C   UNL     1       1.847  -8.756  -6.170  0.00  0.00    +0.110 C 
BRANCH  29  30
ATOM     30  C   UNL     1       2.730  -9.898  -6.676  0.00  0.00    +0.073 C 
BRANCH  30  31
ATOM     31  C   UNL     1       2.867  -9.801  -8.174  0.00  0.00    +0.035 A 
ATOM     32  N   UNL     1       3.883  -9.195  -8.862  0.00  0.00    -0.350 N 
ATOM     33  C   UNL     1       3.615  -9.339 -10.178  0.00  0.00    +0.171 A 
ATOM     34  N   UNL     1       2.495  -9.997 -10.307  0.00  0.00    -0.352 N 
ATOM     35  C   UNL     1       2.017 -10.299  -9.091  0.00  0.00    +0.105 A 
ATOM     36  H   UNL     1       4.652  -8.745  -8.477  0.00  0.00    +0.166 HD
ATOM     37  H   UNL     1       2.078 -10.235 -11.150  0.00  0.00    +0.166 HD
ENDBRANCH  30  31
ENDBRANCH  29  30
ENDBRANCH  27  29
ENDBRANCH  24  25
ENDBRANCH  23  24
ENDBRANCH  14  23
TORSDOF 7
