REMARK  Name = ZINC66203646
REMARK  7 active torsions:
REMARK  status: ('A' for Active; 'I' for Inactive)
REMARK    1  A    between atoms: C_1  and  C_2
REMARK    2  A    between atoms: C_2  and  C_3
REMARK    3  A    between atoms: C_3  and  C_4
REMARK    4  A    between atoms: C_4  and  C_6
REMARK    5  A    between atoms: C_4  and  N_17
REMARK    6  A    between atoms: C_24  and  C_27
REMARK    7  A    between atoms: C_27  and  C_28
REMARK                            x       y       z     vdW  Elec       q    Type
REMARK                         _______ _______ _______ _____ _____    ______ ____
ROOT
ATOM      1  C   UNL     1       0.720  -2.025  -1.140  0.00  0.00    +0.161 C 
ENDROOT
BRANCH   1   2
ATOM      2  C   UNL     1       1.412  -2.506  -2.389  0.00  0.00    +0.236 C 
ATOM      3  O   UNL     1       0.759  -2.811  -3.365  0.00  0.00    -0.274 OA
ATOM      4  N   UNL     1       2.756  -2.598  -2.423  0.00  0.00    -0.295 N 
ATOM      5  C   UNL     1       3.448  -2.955  -3.670  0.00  0.00    +0.113 C 
ATOM      6  C   UNL     1       4.302  -1.755  -4.108  0.00  0.00    +0.061 C 
ATOM      7  C   UNL     1       4.992  -1.194  -2.907  0.00  0.00    -0.004 A 
ATOM      8  C   UNL     1       4.700  -1.414  -1.596  0.00  0.00    -0.020 A 
ATOM      9  C   UNL     1       5.497  -0.759  -0.659  0.00  0.00    +0.013 A 
ATOM     10  C   UNL     1       6.506   0.043  -1.071  0.00  0.00    +0.046 A 
ATOM     11  S   UNL     1       6.378  -0.089  -2.848  0.00  0.00    -0.101 S 
ATOM     12  C   UNL     1       3.550  -2.338  -1.214  0.00  0.00    +0.143 C 
ENDBRANCH   1   2
BRANCH   1  13
ATOM     13  N   UNL     1      -0.652  -2.539  -1.113  0.00  0.00    -0.288 N 
ATOM     14  C   UNL     1      -1.292  -2.687   0.064  0.00  0.00    +0.303 C 
ATOM     15  O   UNL     1      -0.703  -2.478   1.107  0.00  0.00    -0.253 OA
ATOM     16  N   UNL     1      -2.585  -3.067   0.084  0.00  0.00    -0.285 N 
ATOM     17  C   UNL     1      -3.277  -3.434  -1.159  0.00  0.00    +0.109 C 
ATOM     18  C   UNL     1      -4.558  -2.601  -1.275  0.00  0.00    +0.019 C 
ATOM     19  C   UNL     1      -5.398  -2.786  -0.009  0.00  0.00    +0.006 C 
ATOM     20  C   UNL     1      -4.609  -2.293   1.206  0.00  0.00    +0.006 C 
ATOM     21  C   UNL     1      -3.328  -3.127   1.351  0.00  0.00    +0.112 C 
ATOM     22  H   UNL     1      -1.099  -2.772  -1.941  0.00  0.00    +0.151 HD
BRANCH  20  23
ATOM     23  C   UNL     1      -5.463  -2.447   2.466  0.00  0.00    +0.002 C 
ATOM     24  C   UNL     1      -4.724  -1.839   3.660  0.00  0.00    +0.004 C 
ENDBRANCH  20  23
ENDBRANCH   1  13
BRANCH   1  25
ATOM     25  C   UNL     1       0.691  -0.495  -1.130  0.00  0.00    +0.031 C 
BRANCH  25  27
ATOM     26  C   UNL     1       0.079   1.525   0.206  0.00  0.00    +0.004 C 
ATOM     27  C   UNL     1       0.107  -0.004   0.196  0.00  0.00    -0.001 C 
ENDBRANCH  25  27
ENDBRANCH   1  25
TORSDOF 5
