REMARK  Name = ZINC13757598
REMARK  15 active torsions:
REMARK  status: ('A' for Active; 'I' for Inactive)
REMARK    1  A    between atoms: C_1  and  C_2
REMARK    2  A    between atoms: C_2  and  C_3
REMARK    3  A    between atoms: C_6  and  C_9
REMARK    4  A    between atoms: C_12  and  C_14
REMARK    5  A    between atoms: C_14  and  C_36
REMARK    6  A    between atoms: C_15  and  N_16
REMARK    7  A    between atoms: N_16  and  C_17
REMARK    8  A    between atoms: C_18  and  C_31
REMARK    9  A    between atoms: C_23  and  C_27
REMARK   10  A    between atoms: C_27  and  C_28
REMARK   11  A    between atoms: C_27  and  C_29
REMARK   12  A    between atoms: C_27  and  C_30
REMARK   13  A    between atoms: C_31  and  O_33
REMARK   14  A    between atoms: O_33  and  C_34
REMARK   15  A    between atoms: C_34  and  C_35
REMARK                            x       y       z     vdW  Elec       q    Type
REMARK                         _______ _______ _______ _____ _____    ______ ____
ROOT
ATOM      1  N   UNL     1      -9.895  -3.550   0.933  0.00  0.00    -0.313 N 
ATOM      2  H   UNL     1      -9.299  -3.486   0.171  0.00  0.00    +0.152 HD
ENDROOT
BRANCH   1   3
ATOM      3  C   UNL     1     -11.237  -3.825   0.740  0.00  0.00    +0.084 A 
ATOM      4  C   UNL     1     -11.899  -4.042  -0.461  0.00  0.00    +0.091 A 
ATOM      5  C   UNL     1     -13.325  -4.315  -0.391  0.00  0.00    -0.021 A 
ATOM      6  C   UNL     1     -13.826  -4.322   0.862  0.00  0.00    -0.004 A 
ATOM      7  S   UNL     1     -12.437  -3.981   1.904  0.00  0.00    -0.077 S 
ATOM      8  C   UNL     1     -15.247  -4.572   1.262  0.00  0.00    +0.046 C 
ATOM      9  C   UNL     1     -15.982  -5.192   0.064  0.00  0.00    -0.000 C 
ATOM     10  C   UNL     1     -15.672  -4.368  -1.189  0.00  0.00    +0.009 C 
ATOM     11  C   UNL     1     -14.213  -4.574  -1.599  0.00  0.00    +0.037 C 
BRANCH   9  12
ATOM     12  C   UNL     1     -17.490  -5.182   0.327  0.00  0.00    -0.035 C 
ATOM     13  C   UNL     1     -17.963  -3.740   0.524  0.00  0.00    +0.011 C 
ATOM     14  C   UNL     1     -18.220  -5.800  -0.867  0.00  0.00    +0.011 C 
ATOM     15  C   UNL     1     -17.793  -5.995   1.587  0.00  0.00    +0.011 C 
ENDBRANCH   9  12
BRANCH   4  16
ATOM     16  C   UNL     1     -11.192  -3.996  -1.742  0.00  0.00    +0.342 C 
ATOM     17  O   UNL     1     -10.697  -5.009  -2.200  0.00  0.00    -0.245 OA
BRANCH  16  18
ATOM     18  O   UNL     1     -11.090  -2.832  -2.415  0.00  0.00    -0.461 OA
BRANCH  18  19
ATOM     19  C   UNL     1     -10.386  -2.860  -3.658  0.00  0.00    +0.229 C 
ATOM     20  C   UNL     1     -10.374  -1.458  -4.270  0.00  0.00    +0.048 C 
ENDBRANCH  18  19
ENDBRANCH  16  18
ENDBRANCH   4  16
ENDBRANCH   1   3
BRANCH   1  22
ATOM     21  C   UNL     1      -8.102  -3.036   2.385  0.00  0.00    +0.098 C 
ATOM     22  C   UNL     1      -9.409  -3.370   2.198  0.00  0.00    +0.094 C 
BRANCH  21  26
ATOM     23  C   UNL     1      -6.173  -3.130  -0.793  0.00  0.00    +0.079 A 
ATOM     24  C   UNL     1      -5.578  -1.901  -0.700  0.00  0.00    +0.075 A 
ATOM     25  S   UNL     1      -6.243  -1.327   0.857  0.00  0.00    -0.074 S 
ATOM     26  C   UNL     1      -7.235  -2.768   1.221  0.00  0.00    +0.120 A 
ATOM     27  N   UNL     1      -6.989  -3.531   0.166  0.00  0.00    -0.238 NA
BRANCH  23  31
ATOM     28  C   UNL     1      -5.415  -5.631  -4.147  0.00  0.00    -0.048 A 
ATOM     29  C   UNL     1      -6.270  -6.059  -3.148  0.00  0.00    +0.004 A 
ATOM     30  C   UNL     1      -6.520  -5.252  -2.057  0.00  0.00    +0.010 A 
ATOM     31  C   UNL     1      -5.908  -4.003  -1.963  0.00  0.00    +0.001 A 
ATOM     32  C   UNL     1      -5.048  -3.576  -2.973  0.00  0.00    +0.010 A 
ATOM     33  C   UNL     1      -4.801  -4.395  -4.057  0.00  0.00    +0.004 A 
BRANCH  28  35
ATOM     34  C   UNL     1      -3.947  -7.419  -5.039  0.00  0.00    +0.009 C 
ATOM     35  C   UNL     1      -5.146  -6.517  -5.336  0.00  0.00    +0.032 C 
ENDBRANCH  28  35
ENDBRANCH  23  31
ENDBRANCH  21  26
BRANCH  21  36
ATOM     36  C   UNL     1      -7.569  -2.945   3.711  0.00  0.00    +0.103 C 
ATOM     37  N   UNL     1      -7.146  -2.872   4.763  0.00  0.00    -0.191 NA
ENDBRANCH  21  36
ENDBRANCH   1  22
TORSDOF 10
