REMARK  Name = ZINC11335425
REMARK  7 active torsions:
REMARK  status: ('A' for Active; 'I' for Inactive)
REMARK    1  A    between atoms: C_4  and  C_7
REMARK    2  A    between atoms: C_16  and  C_18
REMARK    3  A    between atoms: C_18  and  N_61
REMARK    4  A    between atoms: C_19  and  C_20
REMARK    5  A    between atoms: C_19  and  N_61
REMARK    6  A    between atoms: C_32  and  C_33
REMARK    7  A    between atoms: C_32  and  N_61
REMARK                            x       y       z     vdW  Elec       q    Type
REMARK                         _______ _______ _______ _____ _____    ______ ____
ROOT
ATOM      1  N   UNL     1       2.250   3.901  -0.046  0.00  0.00    +0.391 N 
ATOM      2  H   UNL     1       2.776   3.453  -0.806  0.00  0.00    -0.080 HD
ENDROOT
BRANCH   1   3
ATOM      3  C   UNL     1       0.869   3.374  -0.043  0.00  0.00    -0.003 C 
BRANCH   3  13
ATOM      4  C   UNL     1       1.291  -2.310  -0.003  0.00  0.00    +0.004 A 
ATOM      5  C   UNL     1       2.577  -2.734   0.019  0.00  0.00    +0.056 A 
ATOM      6  S   UNL     1       3.513  -1.217   0.024  0.00  0.00    -0.076 S 
ATOM      7  C   UNL     1       2.168  -0.059  -0.003  0.00  0.00    +0.116 A 
ATOM      8  C   UNL     1       1.026  -0.876  -0.015  0.00  0.00    +0.080 A 
ATOM      9  C   UNL     1      -0.229  -0.187  -0.038  0.00  0.00    +0.260 A 
ATOM     10  O   UNL     1      -1.277  -0.810  -0.049  0.00  0.00    -0.267 OA
ATOM     11  N   UNL     1      -0.234   1.159  -0.046  0.00  0.00    -0.312 N 
ATOM     12  H   UNL     1      -1.081   1.631  -0.065  0.00  0.00    +0.170 HD
ATOM     13  C   UNL     1       0.924   1.869  -0.033  0.00  0.00    +0.094 A 
ATOM     14  N   UNL     1       2.083   1.268  -0.012  0.00  0.00    -0.229 NA
BRANCH   4  18
ATOM     15  C   UNL     1      -1.912  -5.105  -0.033  0.00  0.00    +0.000 A 
ATOM     16  C   UNL     1      -0.873  -5.238  -0.936  0.00  0.00    +0.001 A 
ATOM     17  C   UNL     1       0.170  -4.334  -0.931  0.00  0.00    +0.008 A 
ATOM     18  C   UNL     1       0.174  -3.284  -0.013  0.00  0.00    -0.017 A 
ATOM     19  C   UNL     1      -0.874  -3.158   0.898  0.00  0.00    +0.008 A 
ATOM     20  C   UNL     1      -1.913  -4.065   0.880  0.00  0.00    +0.001 A 
ENDBRANCH   4  18
ENDBRANCH   3  13
ENDBRANCH   1   3
BRANCH   1  21
ATOM     21  C   UNL     1       2.233   5.362  -0.272  0.00  0.00    -0.003 C 
BRANCH  21  22
ATOM     22  C   UNL     1       1.991   5.621  -1.737  0.00  0.00    +0.094 A 
ATOM     23  N   UNL     1       1.833   6.907  -2.146  0.00  0.00    -0.312 N 
ATOM     24  H   UNL     1       1.878   7.627  -1.498  0.00  0.00    +0.170 HD
ATOM     25  C   UNL     1       1.620   7.193  -3.452  0.00  0.00    +0.259 A 
ATOM     26  O   UNL     1       1.481   8.341  -3.833  0.00  0.00    -0.267 OA
ATOM     27  C   UNL     1       1.556   6.063  -4.391  0.00  0.00    +0.065 A 
ATOM     28  C   UNL     1       1.336   6.249  -5.754  0.00  0.00    +0.015 A 
ATOM     29  C   UNL     1       1.286   5.155  -6.589  0.00  0.00    +0.001 A 
ATOM     30  C   UNL     1       1.453   3.872  -6.083  0.00  0.00    +0.002 A 
ATOM     31  C   UNL     1       1.671   3.667  -4.739  0.00  0.00    +0.028 A 
ATOM     32  C   UNL     1       1.726   4.761  -3.873  0.00  0.00    +0.078 A 
ATOM     33  N   UNL     1       1.940   4.604  -2.542  0.00  0.00    -0.236 NA
ENDBRANCH  21  22
ENDBRANCH   1  21
BRANCH   1  34
ATOM     34  C   UNL     1       2.911   3.597   1.240  0.00  0.00    -0.046 C 
BRANCH  34  35
ATOM     35  C   UNL     1       4.421   3.767   1.069  0.00  0.00    +0.102 C 
ATOM     36  C   UNL     1       5.165   3.280   2.332  0.00  0.00    +0.032 C 
ATOM     37  C   UNL     1       6.336   4.276   2.487  0.00  0.00    +0.030 C 
ATOM     38  C   UNL     1       6.162   5.247   1.298  0.00  0.00    +0.160 C 
ATOM     39  O   UNL     1       4.760   5.167   0.958  0.00  0.00    -0.378 OA
ENDBRANCH  34  35
ENDBRANCH   1  34
TORSDOF 7
