REMARK  Name = ZINC58491061
REMARK  4 active torsions:
REMARK  status: ('A' for Active; 'I' for Inactive)
REMARK    1  A    between atoms: C_1  and  C_2
REMARK    2  A    between atoms: C_2  and  C_3
REMARK    3  A    between atoms: C_3  and  C_4
REMARK    4  A    between atoms: C_5  and  C_6
REMARK                            x       y       z     vdW  Elec       q    Type
REMARK                         _______ _______ _______ _____ _____    ______ ____
ROOT
ATOM      1  C   UNL     1       1.940  -4.138   1.311  0.00  0.00    +0.239 C 
ATOM      2  O   UNL     1       1.932  -2.925   1.230  0.00  0.00    -0.271 OA
ATOM      3  N   UNL     1       3.102  -4.794   1.499  0.00  0.00    -0.293 N 
ATOM      4  C   UNL     1       4.357  -4.059   1.720  0.00  0.00    +0.114 C 
ATOM      5  C   UNL     1       4.877  -4.367   3.129  0.00  0.00    +0.072 C 
ATOM      6  C   UNL     1       4.791  -5.856   3.370  0.00  0.00    +0.023 A 
ATOM      7  C   UNL     1       4.022  -6.698   2.645  0.00  0.00    -0.002 A 
ATOM      8  C   UNL     1       4.211  -8.026   3.187  0.00  0.00    +0.006 A 
ATOM      9  C   UNL     1       3.680  -9.275   2.848  0.00  0.00    +0.030 A 
ATOM     10  C   UNL     1       4.094 -10.350   3.597  0.00  0.00    +0.042 A 
ATOM     11  C   UNL     1       4.996 -10.216   4.642  0.00  0.00    +0.022 A 
ATOM     12  C   UNL     1       5.536  -8.992   4.998  0.00  0.00    +0.027 A 
ATOM     13  C   UNL     1       5.134  -7.884   4.255  0.00  0.00    +0.047 A 
ATOM     14  N   UNL     1       5.462  -6.561   4.335  0.00  0.00    -0.358 N 
ATOM     15  H   UNL     1       6.078  -6.177   4.979  0.00  0.00    +0.166 HD
ATOM     16 CL   UNL     1       3.469 -11.925   3.223  0.00  0.00    -0.084 Cl
ATOM     17  C   UNL     1       3.150  -6.267   1.496  0.00  0.00    +0.145 C 
ENDROOT
BRANCH   1  19
ATOM     18  C   UNL     1      -0.477  -4.241   1.122  0.00  0.00    -0.022 C 
ATOM     19  C   UNL     1       0.680  -4.891   1.204  0.00  0.00    +0.063 C 
BRANCH  18  20
ATOM     20  C   UNL     1      -1.768  -5.012   1.013  0.00  0.00    +0.027 C 
BRANCH  20  22
ATOM     21  C   UNL     1      -4.029  -5.359   2.018  0.00  0.00    +0.004 C 
ATOM     22  C   UNL     1      -2.719  -4.577   2.130  0.00  0.00    +0.001 C 
ENDBRANCH  20  22
ENDBRANCH  18  20
ENDBRANCH   1  19
TORSDOF 3
