REMARK  Name = ZINC36206249
REMARK  10 active torsions:
REMARK  status: ('A' for Active; 'I' for Inactive)
REMARK    1  A    between atoms: C_1  and  C_2
REMARK    2  A    between atoms: C_2  and  C_3
REMARK    3  A    between atoms: C_2  and  C_4
REMARK    4  A    between atoms: C_2  and  O_32
REMARK    5  A    between atoms: C_4  and  N_5
REMARK    6  A    between atoms: N_5  and  C_6
REMARK    7  A    between atoms: N_5  and  C_13
REMARK    8  A    between atoms: C_6  and  C_7
REMARK    9  A    between atoms: C_13  and  C_14
REMARK   10  A    between atoms: C_20  and  C_25
REMARK                            x       y       z     vdW  Elec       q    Type
REMARK                         _______ _______ _______ _____ _____    ______ ____
ROOT
ATOM      1  C   UNL     1      -3.056  -2.231  -1.707  0.00  0.00    +0.094 A 
ATOM      2  N   UNL     1      -4.263  -2.710  -2.103  0.00  0.00    -0.312 N 
ATOM      3  H   UNL     1      -4.774  -3.269  -1.498  0.00  0.00    +0.170 HD
ATOM      4  C   UNL     1      -4.764  -2.422  -3.318  0.00  0.00    +0.260 A 
ATOM      5  O   UNL     1      -5.851  -2.859  -3.659  0.00  0.00    -0.267 OA
ATOM      6  C   UNL     1      -4.003  -1.596  -4.205  0.00  0.00    +0.080 A 
ATOM      7  C   UNL     1      -4.326  -1.149  -5.555  0.00  0.00    +0.006 A 
ATOM      8  C   UNL     1      -3.440  -0.360  -6.210  0.00  0.00    +0.056 A 
ATOM      9  S   UNL     1      -2.110  -0.174  -5.038  0.00  0.00    -0.076 S 
ATOM     10  C   UNL     1      -2.768  -1.149  -3.710  0.00  0.00    +0.116 A 
ATOM     11  N   UNL     1      -2.340  -1.471  -2.492  0.00  0.00    -0.229 NA
ENDROOT
BRANCH   7  12
ATOM     12  C   UNL     1      -5.600  -1.549  -6.199  0.00  0.00    +0.019 A 
ATOM     13  C   UNL     1      -5.587  -2.367  -7.327  0.00  0.00    +0.011 A 
ATOM     14  C   UNL     1      -6.776  -2.737  -7.922  0.00  0.00    +0.001 A 
ATOM     15  C   UNL     1      -7.981  -2.298  -7.401  0.00  0.00    +0.003 A 
ATOM     16  C   UNL     1      -8.002  -1.486  -6.282  0.00  0.00    +0.039 A 
ATOM     17  C   UNL     1      -6.818  -1.113  -5.674  0.00  0.00    +0.131 A 
ATOM     18  F   UNL     1      -6.840  -0.324  -4.578  0.00  0.00    -0.205 F 
ENDBRANCH   7  12
BRANCH   1  19
ATOM     19  C   UNL     1      -2.535  -2.578  -0.336  0.00  0.00    -0.003 C 
BRANCH  19  20
ATOM     20  N   UNL     1      -1.271  -1.868  -0.098  0.00  0.00    +0.389 N 
ATOM     21  H   UNL     1      -0.887  -1.562  -0.979  0.00  0.00    -0.081 HD
BRANCH  20  22
ATOM     22  C   UNL     1      -1.519  -0.703   0.761  0.00  0.00    -0.043 C 
BRANCH  22  24
ATOM     23  C   UNL     1      -2.631   1.530   0.898  0.00  0.00    +0.039 C 
ATOM     24  C   UNL     1      -2.346   0.330  -0.007  0.00  0.00    +0.046 C 
ATOM     25  C   UNL     1      -1.566   0.794  -1.239  0.00  0.00    +0.039 C 
BRANCH  24  26
ATOM     26  O   UNL     1      -3.580  -0.260  -0.419  0.00  0.00    -0.391 OA
ATOM     27  H   UNL     1      -4.129   0.319  -0.967  0.00  0.00    +0.210 HD
ENDBRANCH  24  26
ENDBRANCH  22  24
ENDBRANCH  20  22
BRANCH  20  28
ATOM     28  C   UNL     1      -0.320  -2.771   0.564  0.00  0.00    -0.042 C 
BRANCH  28  29
ATOM     29  C   UNL     1       1.018  -2.087   0.689  0.00  0.00    -0.064 A 
ATOM     30  C   UNL     1       1.909  -2.114  -0.368  0.00  0.00    +0.002 A 
ATOM     31  C   UNL     1       3.135  -1.487  -0.253  0.00  0.00    +0.000 A 
ATOM     32  C   UNL     1       3.470  -0.833   0.917  0.00  0.00    +0.000 A 
ATOM     33  C   UNL     1       2.579  -0.805   1.973  0.00  0.00    +0.000 A 
ATOM     34  C   UNL     1       1.351  -1.428   1.857  0.00  0.00    +0.002 A 
ENDBRANCH  28  29
ENDBRANCH  20  28
ENDBRANCH  19  20
ENDBRANCH   1  19
TORSDOF 8
