REMARK  Name = ZINC40111188
REMARK  10 active torsions:
REMARK  status: ('A' for Active; 'I' for Inactive)
REMARK    1  A    between atoms: C_1  and  C_2
REMARK    2  A    between atoms: C_2  and  C_9
REMARK    3  A    between atoms: C_13  and  N_15
REMARK    4  A    between atoms: C_16  and  C_18
REMARK    5  A    between atoms: C_18  and  C_19
REMARK    6  A    between atoms: C_19  and  C_20
REMARK    7  A    between atoms: C_22  and  O_28
REMARK    8  A    between atoms: C_24  and  O_26
REMARK    9  A    between atoms: O_26  and  C_27
REMARK   10  A    between atoms: O_28  and  C_29
REMARK                            x       y       z     vdW  Elec       q    Type
REMARK                         _______ _______ _______ _____ _____    ______ ____
ROOT
ATOM      1  C   UNL     1      -1.826  -0.110   0.435  0.00  0.00    -0.014 A 
ATOM      2  C   UNL     1      -1.846  -1.386   0.967  0.00  0.00    +0.006 A 
ATOM      3  C   UNL     1      -2.704  -2.340   0.452  0.00  0.00    +0.002 A 
ATOM      4  C   UNL     1      -3.544  -2.021  -0.597  0.00  0.00    +0.023 A 
ATOM      5  C   UNL     1      -3.527  -0.740  -1.134  0.00  0.00    +0.034 A 
ATOM      6  C   UNL     1      -2.667   0.217  -0.610  0.00  0.00    +0.029 A 
ENDROOT
BRANCH   1   8
ATOM      7  C   UNL     1      -1.675   2.130   1.526  0.00  0.00    +0.047 C 
ATOM      8  C   UNL     1      -0.889   0.927   1.000  0.00  0.00    +0.135 C 
ATOM      9  C   UNL     1       0.120   1.364  -0.043  0.00  0.00    +0.248 C 
ATOM     10  O   UNL     1      -0.110   1.900  -1.106  0.00  0.00    -0.273 OA
ATOM     11  N   UNL     1       1.327   1.032   0.457  0.00  0.00    -0.238 N 
ATOM     12  C   UNL     1       1.222   0.453   1.658  0.00  0.00    +0.307 C 
ATOM     13  O   UNL     1       2.173   0.067   2.308  0.00  0.00    -0.252 OA
ATOM     14  N   UNL     1      -0.056   0.346   2.066  0.00  0.00    -0.282 N 
ATOM     15  H   UNL     1       2.168   1.194   0.001  0.00  0.00    +0.159 HD
ATOM     16  H   UNL     1      -0.367  -0.039   2.901  0.00  0.00    +0.152 HD
ENDBRANCH   1   8
BRANCH   5  17
ATOM     17  N   UNL     1      -4.376  -0.414  -2.196  0.00  0.00    -0.285 N 
ATOM     18  C   UNL     1      -5.595  -0.983  -2.285  0.00  0.00    +0.218 C 
ATOM     19  O   UNL     1      -5.993  -1.705  -1.395  0.00  0.00    -0.275 OA
ATOM     20  H   UNL     1      -4.089   0.223  -2.869  0.00  0.00    +0.155 HD
BRANCH  18  21
ATOM     21  C   UNL     1      -6.462  -0.724  -3.489  0.00  0.00    +0.101 C 
BRANCH  21  22
ATOM     22  C   UNL     1      -7.782  -1.484  -3.340  0.00  0.00    +0.044 C 
BRANCH  22  23
ATOM     23  C   UNL     1      -8.649  -1.224  -4.545  0.00  0.00    -0.040 A 
ATOM     24  C   UNL     1      -9.525  -0.156  -4.547  0.00  0.00    +0.049 A 
ATOM     25  C   UNL     1     -10.325   0.085  -5.655  0.00  0.00    +0.124 A 
ATOM     26  C   UNL     1     -10.245  -0.748  -6.760  0.00  0.00    +0.091 A 
ATOM     27  C   UNL     1      -9.366  -1.819  -6.756  0.00  0.00    +0.124 A 
ATOM     28  C   UNL     1      -8.564  -2.053  -5.648  0.00  0.00    +0.049 A 
BRANCH  27  29
ATOM     29  O   UNL     1      -9.286  -2.637  -7.838  0.00  0.00    -0.495 OA
ATOM     30  C   UNL     1     -10.136  -2.334  -8.945  0.00  0.00    +0.277 C 
ENDBRANCH  27  29
BRANCH  25  31
ATOM     31  O   UNL     1     -11.187   1.136  -5.656  0.00  0.00    -0.495 OA
ATOM     32  C   UNL     1     -11.979   1.324  -6.830  0.00  0.00    +0.277 C 
ENDBRANCH  25  31
ENDBRANCH  22  23
ENDBRANCH  21  22
ENDBRANCH  18  21
ENDBRANCH   5  17
TORSDOF 7
