REMARK  Name = ZINC43759669
REMARK  10 active torsions:
REMARK  status: ('A' for Active; 'I' for Inactive)
REMARK    1  A    between atoms: C_1  and  C_2
REMARK    2  A    between atoms: C_2  and  O_4
REMARK    3  A    between atoms: O_4  and  C_5
REMARK    4  A    between atoms: C_11  and  C_35
REMARK    5  A    between atoms: C_22  and  C_34
REMARK    6  A    between atoms: C_25  and  O_30
REMARK    7  A    between atoms: C_27  and  C_28
REMARK    8  A    between atoms: C_27  and  C_29
REMARK    9  A    between atoms: O_30  and  C_31
REMARK   10  A    between atoms: C_31  and  C_33
REMARK                            x       y       z     vdW  Elec       q    Type
REMARK                         _______ _______ _______ _____ _____    ______ ____
ROOT
ATOM      1  C   UNL     1      -1.057  -2.114   0.001  0.00  0.00    +0.183 C 
ATOM      2  C   UNL     1      -1.119  -2.672   1.447  0.00  0.00    +0.045 C 
ATOM      3  C   UNL     1      -2.249  -3.746   1.453  0.00  0.00    +0.008 C 
ATOM      4  C   UNL     1      -2.331  -4.110  -0.036  0.00  0.00    +0.009 C 
ATOM      5  C   UNL     1      -2.297  -2.714  -0.688  0.00  0.00    +0.008 C 
ATOM      6  C   UNL     1      -2.207  -2.865  -2.187  0.00  0.00    +0.011 C 
ATOM      7  C   UNL     1      -3.415  -3.687  -2.679  0.00  0.00    +0.006 C 
ATOM      8  C   UNL     1      -3.442  -5.063  -2.036  0.00  0.00    +0.010 C 
ATOM      9  C   UNL     1      -3.455  -4.980  -0.502  0.00  0.00    +0.067 C 
ATOM     10  C   UNL     1      -4.819  -4.550  -0.038  0.00  0.00    +0.160 C 
ATOM     11  O   UNL     1      -5.002  -3.789   0.894  0.00  0.00    -0.292 OA
ATOM     12  C   UNL     1      -5.983  -5.151  -0.707  0.00  0.00    +0.047 C 
ATOM     13  C   UNL     1      -5.848  -5.866  -1.817  0.00  0.00    -0.051 C 
ATOM     14  C   UNL     1      -4.544  -5.963  -2.558  0.00  0.00    -0.006 C 
ATOM     15  C   UNL     1      -4.096  -7.428  -2.567  0.00  0.00    +0.015 C 
ATOM     16  C   UNL     1      -5.261  -8.356  -2.246  0.00  0.00    +0.046 C 
ATOM     17  C   UNL     1      -6.559  -7.947  -2.928  0.00  0.00    +0.186 C 
ATOM     18  C   UNL     1      -7.052  -6.604  -2.369  0.00  0.00    +0.024 C 
ATOM     19  C   UNL     1      -7.800  -5.799  -3.427  0.00  0.00    +0.019 C 
ATOM     20  C   UNL     1      -8.040  -6.925  -1.226  0.00  0.00    +0.019 C 
ATOM     21  C   UNL     1      -4.767  -5.588  -4.027  0.00  0.00    +0.016 C 
ATOM     22  C   UNL     1      -3.489  -1.830  -0.327  0.00  0.00    +0.015 C 
ENDROOT
BRANCH   1  23
ATOM     23  O   UNL     1      -1.151  -0.691   0.009  0.00  0.00    -0.461 OA
BRANCH  23  25
ATOM     24  C   UNL     1      -0.018   1.503   0.010  0.00  0.00    +0.136 C 
ATOM     25  C   UNL     1       0.002  -0.004   0.002  0.00  0.00    +0.304 C 
ATOM     26  O   UNL     1       1.056  -0.594  -0.011  0.00  0.00    -0.251 OA
ENDBRANCH  23  25
ENDBRANCH   1  23
BRANCH  17  27
ATOM     27  O   UNL     1      -6.412  -7.901  -4.340  0.00  0.00    -0.461 OA
BRANCH  27  28
ATOM     28  C   UNL     1      -6.673  -9.030  -5.018  0.00  0.00    +0.304 C 
ATOM     29  O   UNL     1      -7.015 -10.025  -4.424  0.00  0.00    -0.251 OA
ATOM     30  C   UNL     1      -6.538  -9.056  -6.519  0.00  0.00    +0.136 C 
ENDBRANCH  27  28
ENDBRANCH  17  27
TORSDOF 4
