REMARK  Name = ZINC23882081
REMARK  5 active torsions:
REMARK  status: ('A' for Active; 'I' for Inactive)
REMARK    1  A    between atoms: N_13  and  C_17
REMARK    2  A    between atoms: C_17  and  N_18
REMARK    3  A    between atoms: N_21  and  S_24
REMARK    4  A    between atoms: S_24  and  C_27
REMARK    5  A    between atoms: C_32  and  C_33
REMARK                            x       y       z     vdW  Elec       q    Type
REMARK                         _______ _______ _______ _____ _____    ______ ____
ROOT
ATOM      1  C   UNL     1      -2.219   1.182   0.082  0.00  0.00    +0.205 C 
ENDROOT
BRANCH   1  14
ATOM      2  C   UNL     1       2.007   5.210   3.768  0.00  0.00    +0.000 A 
ATOM      3  C   UNL     1       0.979   4.287   3.766  0.00  0.00    +0.000 A 
ATOM      4  C   UNL     1       0.641   3.639   2.595  0.00  0.00    +0.006 A 
ATOM      5  C   UNL     1       1.326   3.908   1.417  0.00  0.00    -0.012 A 
ATOM      6  C   UNL     1       2.349   4.831   1.419  0.00  0.00    -0.042 A 
ATOM      7  C   UNL     1       2.688   5.480   2.599  0.00  0.00    +0.004 A 
ATOM      8  C   UNL     1       3.124   5.179   0.176  0.00  0.00    +0.035 C 
ATOM      9  C   UNL     1       2.954   4.095  -0.887  0.00  0.00    +0.008 C 
ATOM     10  C   UNL     1       1.455   3.837  -1.080  0.00  0.00    +0.040 C 
ATOM     11  C   UNL     1       0.914   3.167   0.177  0.00  0.00    +0.138 C 
ATOM     12  C   UNL     1      -0.594   3.064   0.108  0.00  0.00    +0.252 C 
ATOM     13  O   UNL     1      -1.389   3.977   0.038  0.00  0.00    -0.272 OA
ATOM     14  N   UNL     1      -0.867   1.744   0.134  0.00  0.00    -0.210 N 
ATOM     15  C   UNL     1       0.249   1.010   0.219  0.00  0.00    +0.311 C 
ATOM     16  O   UNL     1       0.259  -0.204   0.261  0.00  0.00    -0.252 OA
ATOM     17  N   UNL     1       1.361   1.769   0.246  0.00  0.00    -0.281 N 
ATOM     18  H   UNL     1       2.435   1.538   0.305  0.00  0.00    +0.152 HD
ENDBRANCH   1  14
BRANCH   1  19
ATOM     19  N   UNL     1      -2.745   1.042   1.446  0.00  0.00    -0.284 NA
ATOM     20  C   UNL     1      -2.228  -0.175   2.087  0.00  0.00    +0.103 C 
ATOM     21  C   UNL     1      -2.651  -0.191   3.560  0.00  0.00    +0.125 C 
ATOM     22  N   UNL     1      -4.110  -0.024   3.629  0.00  0.00    -0.174 NA
ATOM     23  C   UNL     1      -4.718   1.097   2.896  0.00  0.00    +0.125 C 
ATOM     24  C   UNL     1      -4.214   1.063   1.449  0.00  0.00    +0.103 C 
BRANCH  22  25
ATOM     25  S   UNL     1      -5.045  -1.069   4.510  0.00  0.00    +0.062 S 
ATOM     26  O   UNL     1      -4.164  -1.768   5.378  0.00  0.00    -0.153 OA
ATOM     27  O   UNL     1      -6.152  -0.319   4.990  0.00  0.00    -0.153 OA
BRANCH  25  28
ATOM     28  C   UNL     1      -5.694  -2.261   3.385  0.00  0.00    +0.123 A 
ATOM     29  C   UNL     1      -7.047  -2.293   3.117  0.00  0.00    +0.030 A 
ATOM     30  C   UNL     1      -7.557  -3.225   2.231  0.00  0.00    +0.002 A 
ATOM     31  C   UNL     1      -6.718  -4.137   1.616  0.00  0.00    +0.001 A 
ATOM     32  C   UNL     1      -5.364  -4.120   1.879  0.00  0.00    +0.021 A 
ATOM     33  C   UNL     1      -4.841  -3.178   2.769  0.00  0.00    +0.078 A 
BRANCH  33  34
ATOM     34  C   UNL     1      -3.437  -3.154   3.047  0.00  0.00    +0.101 C 
ATOM     35  N   UNL     1      -2.322  -3.135   3.268  0.00  0.00    -0.191 NA
ENDBRANCH  33  34
ENDBRANCH  25  28
ENDBRANCH  22  25
ENDBRANCH   1  19
TORSDOF 5
