REMARK  Name = ZINC12858074
REMARK  8 active torsions:
REMARK  status: ('A' for Active; 'I' for Inactive)
REMARK    1  A    between atoms: C_1  and  C_2
REMARK    2  A    between atoms: C_2  and  C_3
REMARK    3  A    between atoms: C_9  and  C_29
REMARK    4  A    between atoms: C_11  and  N_28
REMARK    5  A    between atoms: C_12  and  C_16
REMARK    6  A    between atoms: N_18  and  C_19
REMARK    7  A    between atoms: C_22  and  C_25
REMARK    8  A    between atoms: C_25  and  C_27
REMARK                            x       y       z     vdW  Elec       q    Type
REMARK                         _______ _______ _______ _____ _____    ______ ____
ROOT
ATOM      1  C   UNL     1      -5.460  -2.043   1.458  0.00  0.00    -0.007 C 
ATOM      2  C   UNL     1      -5.298  -3.279   0.566  0.00  0.00    +0.010 C 
ATOM      3  C   UNL     1      -3.847  -3.748   0.650  0.00  0.00    +0.056 C 
ATOM      4  C   UNL     1      -2.905  -2.602   0.387  0.00  0.00    +0.046 A 
ATOM      5  C   UNL     1      -3.301  -1.280   0.468  0.00  0.00    -0.013 A 
ATOM      6  C   UNL     1      -2.391  -0.269   0.225  0.00  0.00    +0.071 A 
ATOM      7  C   UNL     1      -1.057  -0.595  -0.110  0.00  0.00    +0.041 A 
ATOM      8  C   UNL     1       0.055   0.296  -0.404  0.00  0.00    +0.054 A 
ATOM      9  C   UNL     1       1.279  -0.262  -0.704  0.00  0.00    +0.097 A 
ATOM     10  S   UNL     1       0.968  -2.014  -0.607  0.00  0.00    -0.062 S 
ATOM     11  C   UNL     1      -0.754  -1.974  -0.176  0.00  0.00    +0.112 A 
ATOM     12  N   UNL     1      -1.655  -2.900   0.060  0.00  0.00    -0.244 NA
ATOM     13  C   UNL     1      -4.714  -0.879   0.809  0.00  0.00    +0.041 C 
ENDROOT
BRANCH   9  14
ATOM     14  C   UNL     1       2.493   0.398  -1.014  0.00  0.00    +0.257 C 
ATOM     15  O   UNL     1       2.535   1.615  -1.037  0.00  0.00    -0.269 OA
ATOM     16  N   UNL     1       3.601  -0.320  -1.283  0.00  0.00    -0.281 N 
ATOM     17  H   UNL     1       3.552  -1.288  -1.331  0.00  0.00    +0.155 HD
BRANCH  16  18
ATOM     18  C   UNL     1       4.816   0.327  -1.493  0.00  0.00    +0.034 A 
ATOM     19  C   UNL     1       5.731  -0.194  -2.405  0.00  0.00    +0.024 A 
ATOM     20  C   UNL     1       6.922   0.440  -2.617  0.00  0.00    +0.013 A 
ATOM     21  C   UNL     1       7.226   1.610  -1.909  0.00  0.00    +0.017 A 
ATOM     22  C   UNL     1       6.305   2.127  -0.989  0.00  0.00    +0.013 A 
ATOM     23  C   UNL     1       5.114   1.489  -0.786  0.00  0.00    +0.024 A 
BRANCH  21  24
ATOM     24  C   UNL     1       8.507   2.292  -2.131  0.00  0.00    +0.160 C 
ATOM     25  O   UNL     1       8.730   3.355  -1.590  0.00  0.00    -0.292 OA
ATOM     26  C   UNL     1       9.545   1.673  -3.031  0.00  0.00    +0.091 C 
ENDBRANCH  21  24
ENDBRANCH  16  18
ENDBRANCH   9  14
BRANCH   6  27
ATOM     27  C   UNL     1      -2.818   1.174   0.317  0.00  0.00    +0.418 C 
ATOM     28  F   UNL     1      -2.557   1.816  -0.898  0.00  0.00    -0.166 F 
ATOM     29  F   UNL     1      -4.188   1.238   0.593  0.00  0.00    -0.166 F 
ATOM     30  F   UNL     1      -2.106   1.806   1.342  0.00  0.00    -0.166 F 
ENDBRANCH   6  27
BRANCH   8  31
ATOM     31  N   UNL     1      -0.111   1.673  -0.377  0.00  0.00    -0.356 N 
ATOM     32  H   UNL     1       0.656   2.257  -0.491  0.00  0.00    +0.142 HD
ATOM     33  H   UNL     1      -0.994   2.053  -0.248  0.00  0.00    +0.142 HD
ENDBRANCH   8  31
BRANCH   1  35
ATOM     34  C   UNL     1      -7.669  -2.820   2.329  0.00  0.00    +0.004 C 
ATOM     35  C   UNL     1      -6.944  -1.694   1.590  0.00  0.00    +0.000 C 
ENDBRANCH   1  35
TORSDOF 6
