REMARK  Name = ZINC03542712
REMARK  5 active torsions:
REMARK  status: ('A' for Active; 'I' for Inactive)
REMARK    1  A    between atoms: C_7  and  C_16
REMARK    2  A    between atoms: C_9  and  C_11
REMARK    3  A    between atoms: C_16  and  O_18
REMARK    4  A    between atoms: O_18  and  C_19
REMARK    5  A    between atoms: C_19  and  C_20
REMARK                            x       y       z     vdW  Elec       q    Type
REMARK                         _______ _______ _______ _____ _____    ______ ____
ROOT
ATOM      1  C   UNL     1       1.338  -6.039  -2.019  0.00  0.00    +0.001 A 
ATOM      2  C   UNL     1       1.881  -6.504  -3.214  0.00  0.00    +0.002 A 
ATOM      3  C   UNL     1       2.213  -5.645  -4.217  0.00  0.00    +0.028 A 
ATOM      4  C   UNL     1       2.006  -4.263  -4.049  0.00  0.00    +0.073 A 
ATOM      5  C   UNL     1       1.458  -3.795  -2.828  0.00  0.00    +0.014 A 
ATOM      6  C   UNL     1       1.123  -4.707  -1.821  0.00  0.00    +0.011 A 
ATOM      7  C   UNL     1       1.239  -2.357  -2.661  0.00  0.00    +0.070 A 
ATOM      8  C   UNL     1       1.597  -1.532  -3.716  0.00  0.00    +0.047 A 
ATOM      9  C   UNL     1       2.138  -2.099  -4.883  0.00  0.00    +0.107 A 
ATOM     10  N   UNL     1       2.322  -3.398  -5.014  0.00  0.00    -0.244 NA
ENDROOT
BRANCH   9  11
ATOM     11  C   UNL     1       2.515  -1.210  -5.999  0.00  0.00    +0.153 A 
ATOM     12  C   UNL     1       3.053  -1.602  -7.186  0.00  0.00    +0.051 A 
ATOM     13  C   UNL     1       3.249  -0.435  -7.947  0.00  0.00    +0.042 A 
ATOM     14  C   UNL     1       2.833   0.604  -7.194  0.00  0.00    +0.196 A 
ATOM     15  O   UNL     1       2.391   0.132  -6.018  0.00  0.00    -0.461 OA
ENDBRANCH   9  11
BRANCH   7  16
ATOM     16  C   UNL     1       0.666  -1.807  -1.415  0.00  0.00    +0.340 C 
ATOM     17  O   UNL     1       0.267  -2.557  -0.547  0.00  0.00    -0.245 OA
BRANCH  16  18
ATOM     18  O   UNL     1       0.588  -0.473  -1.241  0.00  0.00    -0.455 OA
BRANCH  18  19
ATOM     19  C   UNL     1       0.013  -0.004   0.007  0.00  0.00    +0.288 C 
BRANCH  19  20
ATOM     20  C   UNL     1       0.008   1.503   0.022  0.00  0.00    +0.087 A 
ATOM     21  C   UNL     1      -1.182   2.200   0.029  0.00  0.00    +0.097 A 
ATOM     22  C   UNL     1      -1.167   3.595   0.049  0.00  0.00    +0.259 A 
ATOM     23  O   UNL     1      -2.217   4.217   0.060  0.00  0.00    -0.267 OA
ATOM     24  N   UNL     1       0.024   4.264   0.049  0.00  0.00    -0.262 N 
ATOM     25  C   UNL     1       0.202   5.627   0.060  0.00  0.00    +0.104 A 
ATOM     26  C   UNL     1       1.423   6.161   0.058  0.00  0.00    +0.067 A 
ATOM     27  S   UNL     1       2.459   4.707   0.040  0.00  0.00    -0.058 S 
ATOM     28  C   UNL     1       1.157   3.494   0.036  0.00  0.00    +0.180 A 
ATOM     29  N   UNL     1       1.151   2.184   0.023  0.00  0.00    -0.224 NA
ENDBRANCH  19  20
ENDBRANCH  18  19
ENDBRANCH  16  18
ENDBRANCH   7  16
TORSDOF 5
