REMARK  Name = ZINC15830914
REMARK  2 active torsions:
REMARK  status: ('A' for Active; 'I' for Inactive)
REMARK    1  A    between atoms: C_1  and  C_2
REMARK    2  A    between atoms: C_12  and  C_16
REMARK                            x       y       z     vdW  Elec       q    Type
REMARK                         _______ _______ _______ _____ _____    ______ ____
ROOT
ATOM      1  C   UNL     1      -0.018   1.503   0.010  0.00  0.00    +0.044 C 
ATOM      2  C   UNL     1       0.002  -0.004   0.002  0.00  0.00    -0.050 A 
ATOM      3  C   UNL     1       0.006  -0.689  -1.200  0.00  0.00    +0.007 A 
ATOM      4  C   UNL     1       0.024  -2.069  -1.207  0.00  0.00    +0.047 A 
ATOM      5  C   UNL     1       0.038  -2.774  -0.009  0.00  0.00    +0.134 A 
ATOM      6  C   UNL     1       0.036  -2.085   1.193  0.00  0.00    -0.000 A 
ATOM      7  C   UNL     1       0.023  -0.701   1.195  0.00  0.00    +0.011 A 
ATOM      8  C   UNL     1       0.056  -2.824   2.504  0.00  0.00    +0.082 C 
ATOM      9  C   UNL     1      -0.344  -4.258   2.304  0.00  0.00    +0.052 A 
ATOM     10  C   UNL     1      -0.326  -4.835   1.045  0.00  0.00    +0.229 A 
ATOM     11  N   UNL     1      -0.690  -6.109   0.914  0.00  0.00    -0.191 NA
ATOM     12  C   UNL     1      -1.062  -6.820   1.968  0.00  0.00    +0.183 A 
ATOM     13  N   UNL     1      -1.088  -6.301   3.187  0.00  0.00    -0.218 NA
ATOM     14  C   UNL     1      -0.739  -5.034   3.393  0.00  0.00    +0.119 A 
ATOM     15  S   UNL     1      -0.776  -4.347   5.016  0.00  0.00    -0.030 SA
ATOM     16  O   UNL     1       0.053  -4.128  -0.040  0.00  0.00    -0.437 OA
ENDROOT
BRANCH  12  17
ATOM     17  C   UNL     1      -1.460  -8.238   1.779  0.00  0.00    +0.108 A 
ATOM     18  C   UNL     1      -1.858  -8.995   2.877  0.00  0.00    +0.031 A 
ATOM     19  C   UNL     1      -2.227 -10.316   2.685  0.00  0.00    +0.004 A 
ATOM     20  C   UNL     1      -2.184 -10.835   1.399  0.00  0.00    +0.020 A 
ATOM     21  C   UNL     1      -1.778 -10.025   0.354  0.00  0.00    +0.111 A 
ATOM     22  N   UNL     1      -1.438  -8.770   0.564  0.00  0.00    -0.252 NA
ENDBRANCH  12  17
TORSDOF 1
