REMARK  Name = ZINC22698182
REMARK  7 active torsions:
REMARK  status: ('A' for Active; 'I' for Inactive)
REMARK    1  A    between atoms: C_1  and  O_2
REMARK    2  A    between atoms: O_2  and  C_3
REMARK    3  A    between atoms: C_8  and  N_9
REMARK    4  A    between atoms: N_9  and  S_10
REMARK    5  A    between atoms: S_10  and  C_13
REMARK    6  A    between atoms: C_26  and  C_29
REMARK    7  A    between atoms: C_32  and  C_35
REMARK                            x       y       z     vdW  Elec       q    Type
REMARK                         _______ _______ _______ _____ _____    ______ ____
ROOT
ATOM      1  C   UNL     1       0.227   3.578   5.174  0.00  0.00    +0.109 A 
ATOM      2  C   UNL     1      -0.498   4.496   4.435  0.00  0.00    +0.030 A 
ATOM      3  C   UNL     1       0.024   5.747   4.181  0.00  0.00    +0.025 A 
ATOM      4  C   UNL     1       1.277   6.098   4.668  0.00  0.00    +0.031 A 
ATOM      5  C   UNL     1       2.001   5.168   5.422  0.00  0.00    -0.018 A 
ATOM      6  C   UNL     1       1.472   3.919   5.669  0.00  0.00    +0.034 A 
ATOM      7  C   UNL     1       3.320   5.588   5.941  0.00  0.00    +0.049 C 
ATOM      8  C   UNL     1       4.397   4.608   6.234  0.00  0.00    -0.023 C 
ATOM      9  C   UNL     1       5.571   5.192   6.023  0.00  0.00    -0.030 C 
ATOM     10  C   UNL     1       5.361   6.625   5.530  0.00  0.00    +0.033 C 
ATOM     11  C   UNL     1       3.972   6.529   4.884  0.00  0.00    +0.029 C 
ATOM     12  C   UNL     1       3.120   7.786   4.882  0.00  0.00    +0.105 C 
ATOM     13  N   UNL     1       1.793   7.367   4.380  0.00  0.00    -0.336 N 
ATOM     14  H   UNL     1       1.193   8.058   3.769  0.00  0.00    +0.147 HD
ENDROOT
BRANCH  12  15
ATOM     15  C   UNL     1       2.999   8.335   6.280  0.00  0.00    -0.027 A 
ATOM     16  C   UNL     1       1.935   7.955   7.079  0.00  0.00    +0.006 A 
ATOM     17  C   UNL     1       1.820   8.449   8.362  0.00  0.00    +0.015 A 
ATOM     18  C   UNL     1       2.775   9.343   8.850  0.00  0.00    +0.063 A 
ATOM     19  C   UNL     1       3.843   9.727   8.037  0.00  0.00    +0.015 A 
ATOM     20  C   UNL     1       3.949   9.220   6.758  0.00  0.00    +0.006 A 
BRANCH  18  21
ATOM     21  C   UNL     1       2.655   9.882  10.220  0.00  0.00    +0.387 C 
ATOM     22  O   UNL     1       3.488  10.659  10.642  0.00  0.00    -0.241 OA
ATOM     23  O   UNL     1       1.624   9.510  11.002  0.00  0.00    -0.241 OA
ENDBRANCH  18  21
ENDBRANCH  12  15
BRANCH   1  24
ATOM     24  S   UNL     1      -0.440   1.978   5.491  0.00  0.00    +0.072 S 
ATOM     25  O   UNL     1      -1.852   2.099   5.387  0.00  0.00    -0.150 OA
ATOM     26  O   UNL     1       0.199   1.498   6.666  0.00  0.00    -0.150 OA
BRANCH  24  27
ATOM     27  N   UNL     1       0.043   0.992   4.252  0.00  0.00    -0.213 N 
ATOM     28  H   UNL     1      -0.707   0.503   3.613  0.00  0.00    +0.174 HD
BRANCH  27  34
ATOM     29  C   UNL     1       1.876   0.632   2.714  0.00  0.00    +0.142 A 
ATOM     30  C   UNL     1       3.227   0.428   2.487  0.00  0.00    +0.047 A 
ATOM     31  C   UNL     1       4.106   0.368   3.552  0.00  0.00    +0.004 A 
ATOM     32  C   UNL     1       3.640   0.510   4.846  0.00  0.00    +0.002 A 
ATOM     33  C   UNL     1       2.294   0.714   5.081  0.00  0.00    +0.028 A 
ATOM     34  C   UNL     1       1.407   0.781   4.017  0.00  0.00    +0.090 A 
BRANCH  29  36
ATOM     35  C   UNL     1       1.563   0.536   0.358  0.00  0.00    +0.277 C 
ATOM     36  O   UNL     1       1.010   0.692   1.666  0.00  0.00    -0.493 OA
ENDBRANCH  29  36
ENDBRANCH  27  34
ENDBRANCH  24  27
ENDBRANCH   1  24
TORSDOF 6
