REMARK  Name = ZINC43527419
REMARK  8 active torsions:
REMARK  status: ('A' for Active; 'I' for Inactive)
REMARK    1  A    between atoms: C_4  and  N_7
REMARK    2  A    between atoms: N_7  and  C_8
REMARK    3  A    between atoms: C_8  and  N_10
REMARK    4  A    between atoms: N_10  and  C_11
REMARK    5  A    between atoms: C_11  and  C_12
REMARK    6  A    between atoms: C_21  and  C_23
REMARK    7  A    between atoms: C_23  and  N_24
REMARK    8  A    between atoms: N_27  and  C_30
REMARK                            x       y       z     vdW  Elec       q    Type
REMARK                         _______ _______ _______ _____ _____    ______ ____
ROOT
ATOM      1  C   UNL     1       6.311  -4.556   0.356  0.00  0.00    -0.051 C 
ATOM      2  C   UNL     1       6.341  -6.086   0.366  0.00  0.00    -0.010 C 
ATOM      3  C   UNL     1       7.147  -6.573  -0.845  0.00  0.00    -0.015 C 
ATOM      4  C   UNL     1       6.468  -6.055  -2.119  0.00  0.00    -0.015 C 
ATOM      5  C   UNL     1       6.412  -4.527  -2.063  0.00  0.00    -0.078 C 
ATOM      6  N   UNL     1       7.056  -4.049  -0.799  0.00  0.00    +0.383 N 
ATOM      7  C   UNL     1       8.460  -4.461  -0.728  0.00  0.00    -0.076 C 
ATOM      8  C   UNL     1       8.562  -5.985  -0.753  0.00  0.00    -0.041 C 
ATOM      9  H   UNL     1       7.025  -3.041  -0.781  0.00  0.00    -0.081 HD
ENDROOT
BRANCH   1  10
ATOM     10  C   UNL     1       4.861  -4.077   0.275  0.00  0.00    +0.088 C 
BRANCH  10  11
ATOM     11  N   UNL     1       4.834  -2.618   0.150  0.00  0.00    -0.328 N 
ATOM     12  H   UNL     1       5.665  -2.118   0.132  0.00  0.00    +0.148 HD
BRANCH  11  13
ATOM     13  C   UNL     1       3.656  -1.970   0.062  0.00  0.00    +0.134 C 
ATOM     14  S   UNL     1       2.189  -2.852   0.096  0.00  0.00    -0.019 S 
BRANCH  13  15
ATOM     15  N   UNL     1       3.632  -0.627  -0.052  0.00  0.00    -0.297 N 
ATOM     16  H   UNL     1       4.461  -0.134  -0.153  0.00  0.00    +0.154 HD
BRANCH  15  20
ATOM     17  C   UNL     1      -0.003   1.406   0.032  0.00  0.00    +0.000 A 
ATOM     18  C   UNL     1       0.217   0.350   0.897  0.00  0.00    +0.002 A 
ATOM     19  C   UNL     1       1.421  -0.326   0.872  0.00  0.00    +0.023 A 
ATOM     20  C   UNL     1       2.411   0.056  -0.024  0.00  0.00    +0.033 A 
ATOM     21  C   UNL     1       2.187   1.117  -0.891  0.00  0.00    +0.023 A 
ATOM     22  C   UNL     1       0.981   1.789  -0.861  0.00  0.00    +0.002 A 
ENDBRANCH  15  20
ENDBRANCH  13  15
ENDBRANCH  11  13
ENDBRANCH  10  11
ENDBRANCH   1  10
BRANCH   8  23
ATOM     23  C   UNL     1       9.380  -6.424  -1.970  0.00  0.00    -0.077 C 
BRANCH  23  24
ATOM     24  N   UNL     1      10.766  -5.960  -1.821  0.00  0.00    +0.382 N 
ATOM     25  C   UNL     1      11.381  -6.626  -0.665  0.00  0.00    -0.060 C 
ATOM     26  C   UNL     1      12.787  -6.060  -0.440  0.00  0.00    +0.086 C 
ATOM     27  N   UNL     1      13.548  -6.189  -1.692  0.00  0.00    -0.333 N 
ATOM     28  C   UNL     1      12.932  -5.694  -2.932  0.00  0.00    +0.086 C 
ATOM     29  C   UNL     1      11.519  -6.277  -3.040  0.00  0.00    -0.060 C 
ATOM     30  H   UNL     1      10.771  -4.962  -1.673  0.00  0.00    -0.082 HD
BRANCH  27  31
ATOM     31  C   UNL     1      14.821  -6.768  -1.703  0.00  0.00    +0.030 A 
ATOM     32  C   UNL     1      15.576  -6.765  -2.868  0.00  0.00    +0.026 A 
ATOM     33  C   UNL     1      16.834  -7.337  -2.876  0.00  0.00    +0.040 A 
ATOM     34  C   UNL     1      17.341  -7.913  -1.724  0.00  0.00    +0.124 A 
ATOM     35  C   UNL     1      16.590  -7.917  -0.561  0.00  0.00    +0.040 A 
ATOM     36  C   UNL     1      15.334  -7.341  -0.546  0.00  0.00    +0.026 A 
ATOM     37  F   UNL     1      18.571  -8.472  -1.734  0.00  0.00    -0.205 F 
ENDBRANCH  27  31
ENDBRANCH  23  24
ENDBRANCH   8  23
TORSDOF 8
