REMARK  Name = ZINC25260394
REMARK  9 active torsions:
REMARK  status: ('A' for Active; 'I' for Inactive)
REMARK    1  A    between atoms: C_1  and  O_2
REMARK    2  A    between atoms: O_2  and  C_3
REMARK    3  A    between atoms: C_8  and  C_9
REMARK    4  A    between atoms: N_11  and  N_12
REMARK    5  A    between atoms: C_13  and  C_15
REMARK    6  A    between atoms: C_15  and  C_16
REMARK    7  A    between atoms: C_16  and  N_17
REMARK    8  A    between atoms: N_17  and  S_18
REMARK    9  A    between atoms: S_18  and  C_21
REMARK                            x       y       z     vdW  Elec       q    Type
REMARK                         _______ _______ _______ _____ _____    ______ ____
ROOT
ATOM      1  C   UNL     1      -1.622   3.491  -3.009  0.00  0.00    +0.114 C 
ENDROOT
BRANCH   1   3
ATOM      2  N   UNL     1      -2.298   5.356  -4.487  0.00  0.00    -0.234 N 
ATOM      3  C   UNL     1      -1.855   4.955  -3.279  0.00  0.00    +0.230 C 
ATOM      4  O   UNL     1      -1.645   5.772  -2.408  0.00  0.00    -0.274 OA
ATOM      5  H   UNL     1      -2.489   4.614  -5.276  0.00  0.00    +0.173 HD
BRANCH   2   8
ATOM      6  C   UNL     1      -2.958   7.118  -5.945  0.00  0.00    +0.264 C 
ATOM      7  O   UNL     1      -3.169   6.298  -6.818  0.00  0.00    -0.269 OA
ATOM      8  N   UNL     1      -2.515   6.717  -4.737  0.00  0.00    -0.230 N 
ATOM      9  H   UNL     1      -2.325   7.459  -3.947  0.00  0.00    +0.173 HD
BRANCH   6  15
ATOM     10  C   UNL     1      -3.647   8.972  -7.463  0.00  0.00    +0.132 A 
ATOM     11  C   UNL     1      -3.859  10.322  -7.701  0.00  0.00    +0.048 A 
ATOM     12  C   UNL     1      -3.617  11.247  -6.704  0.00  0.00    +0.023 A 
ATOM     13  C   UNL     1      -3.162  10.835  -5.461  0.00  0.00    +0.042 A 
ATOM     14  C   UNL     1      -2.952   9.496  -5.207  0.00  0.00    +0.036 A 
ATOM     15  C   UNL     1      -3.187   8.551  -6.209  0.00  0.00    +0.081 A 
ATOM     16 CL   UNL     1      -2.862  12.009  -4.218  0.00  0.00    -0.084 Cl
BRANCH  10  18
ATOM     17  C   UNL     1      -4.352   8.566  -9.695  0.00  0.00    +0.277 C 
ATOM     18  O   UNL     1      -3.884   8.063  -8.442  0.00  0.00    -0.494 OA
ENDBRANCH  10  18
ENDBRANCH   6  15
ENDBRANCH   2   8
ENDBRANCH   1   3
BRANCH   1  19
ATOM     19  C   UNL     1      -1.125   3.309  -1.574  0.00  0.00    +0.115 C 
BRANCH  19  20
ATOM     20  N   UNL     1      -0.897   1.885  -1.312  0.00  0.00    -0.189 NA
ATOM     21  H   UNL     1      -1.442   1.126  -1.892  0.00  0.00    +0.148 HD
BRANCH  20  22
ATOM     22  S   UNL     1      -0.017   1.417   0.010  0.00  0.00    +0.059 S 
ATOM     23  O   UNL     1       0.002  -0.004   0.002  0.00  0.00    -0.153 OA
ATOM     24  O   UNL     1       1.172   2.195   0.003  0.00  0.00    -0.153 OA
BRANCH  22  25
ATOM     25  C   UNL     1      -0.927   1.900   1.439  0.00  0.00    +0.109 A 
ATOM     26  C   UNL     1      -0.715   3.145   2.002  0.00  0.00    +0.032 A 
ATOM     27  C   UNL     1      -1.429   3.534   3.122  0.00  0.00    +0.051 A 
ATOM     28  C   UNL     1      -2.350   2.666   3.683  0.00  0.00    +0.162 A 
ATOM     29  C   UNL     1      -2.559   1.414   3.122  0.00  0.00    +0.164 A 
ATOM     30  C   UNL     1      -1.846   1.030   1.998  0.00  0.00    +0.078 A 
ATOM     31  O   UNL     1      -3.469   0.567   3.683  0.00  0.00    -0.488 OA
ATOM     32  C   UNL     1      -3.130   0.048   4.970  0.00  0.00    +0.232 C 
ATOM     33  C   UNL     1      -3.529   1.024   6.067  0.00  0.00    +0.082 C 
ATOM     34  C   UNL     1      -2.750   2.328   5.993  0.00  0.00    +0.232 C 
ATOM     35  O   UNL     1      -3.058   3.035   4.790  0.00  0.00    -0.488 OA
ENDBRANCH  22  25
ENDBRANCH  20  22
ENDBRANCH  19  20
ENDBRANCH   1  19
TORSDOF 8
