REMARK  Name = ZINC41585924
REMARK  6 active torsions:
REMARK  status: ('A' for Active; 'I' for Inactive)
REMARK    1  A    between atoms: C_4  and  O_32
REMARK    2  A    between atoms: C_5  and  C_7
REMARK    3  A    between atoms: C_14  and  O_31
REMARK    4  A    between atoms: C_15  and  C_18
REMARK    5  A    between atoms: C_18  and  N_19
REMARK    6  A    between atoms: O_32  and  C_33
REMARK                            x       y       z     vdW  Elec       q    Type
REMARK                         _______ _______ _______ _____ _____    ______ ____
ROOT
ATOM      1  C   UNL     1       0.742  -1.420  -1.029  0.00  0.00    +0.061 C 
ATOM      2  C   UNL     1      -0.299  -2.248  -0.758  0.00  0.00    +0.176 C 
ATOM      3  C   UNL     1      -0.249  -3.715  -0.697  0.00  0.00    +0.231 C 
ATOM      4  O   UNL     1       0.717  -4.437  -0.875  0.00  0.00    -0.283 OA
ATOM      5  C   UNL     1      -1.629  -4.120  -0.371  0.00  0.00    +0.068 A 
ATOM      6  C   UNL     1      -2.239  -5.359  -0.176  0.00  0.00    +0.019 A 
ATOM      7  C   UNL     1      -3.571  -5.422   0.122  0.00  0.00    +0.046 A 
ATOM      8  C   UNL     1      -4.320  -4.253   0.230  0.00  0.00    +0.125 A 
ATOM      9  C   UNL     1      -3.727  -3.016   0.039  0.00  0.00    +0.051 A 
ATOM     10  C   UNL     1      -2.373  -2.934  -0.265  0.00  0.00    +0.147 A 
ATOM     11  O   UNL     1      -1.571  -1.871  -0.488  0.00  0.00    -0.451 OA
ENDROOT
BRANCH   1  16
ATOM     12  C   UNL     1      -0.779   1.941  -0.374  0.00  0.00    +0.001 A 
ATOM     13  C   UNL     1       0.210   2.785  -0.855  0.00  0.00    +0.004 A 
ATOM     14  C   UNL     1       1.372   2.266  -1.393  0.00  0.00    +0.046 A 
ATOM     15  C   UNL     1       1.558   0.894  -1.455  0.00  0.00    +0.134 A 
ATOM     16  C   UNL     1       0.559   0.035  -0.969  0.00  0.00    +0.020 A 
ATOM     17  C   UNL     1      -0.614   0.575  -0.427  0.00  0.00    +0.011 A 
BRANCH  15  18
ATOM     18  O   UNL     1       2.699   0.384  -1.983  0.00  0.00    -0.434 OA
BRANCH  18  19
ATOM     19  C   UNL     1       3.669   1.320  -2.458  0.00  0.00    +0.541 C 
ATOM     20  F   UNL     1       3.105   2.104  -3.469  0.00  0.00    -0.166 F 
ATOM     21  F   UNL     1       4.078   2.143  -1.403  0.00  0.00    -0.166 F 
ENDBRANCH  18  19
ENDBRANCH  15  18
ENDBRANCH   1  16
BRANCH   8  22
ATOM     22  O   UNL     1      -5.643  -4.327   0.526  0.00  0.00    -0.506 OA
ATOM     23  H   UNL     1      -5.836  -4.306   1.474  0.00  0.00    +0.292 HD
ENDBRANCH   8  22
BRANCH   9  24
ATOM     24  C   UNL     1      -4.550  -1.760   0.159  0.00  0.00    +0.127 C 
BRANCH  24  25
ATOM     25  N   UNL     1      -4.519  -1.285   1.549  0.00  0.00    -0.295 NA
ATOM     26  C   UNL     1      -3.165  -0.862   1.931  0.00  0.00    +0.103 C 
ATOM     27  C   UNL     1      -3.136  -0.548   3.430  0.00  0.00    +0.122 C 
ATOM     28  N   UNL     1      -4.197   0.427   3.724  0.00  0.00    -0.314 N 
ATOM     29  C   UNL     1      -5.559   0.136   3.251  0.00  0.00    +0.122 C 
ATOM     30  C   UNL     1      -5.493  -0.205   1.758  0.00  0.00    +0.103 C 
ATOM     31  C   UNL     1      -3.921   1.592   4.430  0.00  0.00    +0.099 A 
ATOM     32  C   UNL     1      -4.908   2.562   4.574  0.00  0.00    +0.042 A 
ATOM     33  C   UNL     1      -4.620   3.716   5.279  0.00  0.00    +0.005 A 
ATOM     34  C   UNL     1      -3.349   3.862   5.819  0.00  0.00    +0.018 A 
ATOM     35  C   UNL     1      -2.417   2.860   5.637  0.00  0.00    +0.084 A 
ATOM     36  N   UNL     1      -2.723   1.766   4.965  0.00  0.00    -0.350 N 
ATOM     37  H   UNL     1      -2.051   1.075   4.855  0.00  0.00    +0.166 HD
ENDBRANCH  24  25
ENDBRANCH   9  24
TORSDOF 6
