REMARK  Name = ZINC59818992
REMARK  9 active torsions:
REMARK  status: ('A' for Active; 'I' for Inactive)
REMARK    1  A    between atoms: C_1  and  N_2
REMARK    2  A    between atoms: N_2  and  C_3
REMARK    3  A    between atoms: C_4  and  C_6
REMARK    4  A    between atoms: C_6  and  C_7
REMARK    5  A    between atoms: C_7  and  S_8
REMARK    6  A    between atoms: S_8  and  C_9
REMARK    7  A    between atoms: N_14  and  N_15
REMARK    8  A    between atoms: C_16  and  C_17
REMARK    9  A    between atoms: C_20  and  O_24
REMARK                            x       y       z     vdW  Elec       q    Type
REMARK                         _______ _______ _______ _____ _____    ______ ____
ROOT
ATOM      1  C   UNL     1      -4.250  -4.994   0.016  0.00  0.00    +0.210 A 
ATOM      2  N   UNL     1      -4.723  -6.244   0.019  0.00  0.00    -0.186 NA
ATOM      3  C   UNL     1      -6.040  -6.219   0.030  0.00  0.00    +0.232 A 
ATOM      4  N   UNL     1      -6.432  -4.927   0.034  0.00  0.00    -0.245 N 
ATOM      5  N   UNL     1      -5.259  -4.155   0.030  0.00  0.00    -0.144 NA
ATOM      6  N   UNL     1      -6.874  -7.322   0.036  0.00  0.00    -0.205 N 
ATOM      7  H   UNL     1      -7.836  -7.202   0.044  0.00  0.00    +0.177 HD
ATOM      8  H   UNL     1      -7.344  -4.598   0.042  0.00  0.00    +0.192 HD
ENDROOT
BRANCH   6   9
ATOM      9  N   UNL     1      -6.328  -8.613   0.031  0.00  0.00    -0.188 NA
ATOM     10  C   UNL     1      -7.111  -9.648   0.037  0.00  0.00    +0.138 C 
BRANCH  10  11
ATOM     11  C   UNL     1      -6.537 -11.006   0.032  0.00  0.00    -0.003 A 
ATOM     12  C   UNL     1      -5.151 -11.181   0.027  0.00  0.00    +0.028 A 
ATOM     13  C   UNL     1      -4.619 -12.453   0.022  0.00  0.00    +0.061 A 
ATOM     14  C   UNL     1      -5.458 -13.560   0.022  0.00  0.00    +0.145 A 
ATOM     15  C   UNL     1      -6.837 -13.391   0.027  0.00  0.00    +0.061 A 
ATOM     16  C   UNL     1      -7.378 -12.122   0.038  0.00  0.00    +0.028 A 
ATOM     17 BR   UNL     1      -7.974 -14.902   0.027  0.00  0.00    -0.046 Br
ATOM     18 BR   UNL     1      -2.743 -12.691   0.015  0.00  0.00    -0.046 Br
BRANCH  14  19
ATOM     19  O   UNL     1      -4.930 -14.812   0.016  0.00  0.00    -0.505 OA
ATOM     20  H   UNL     1      -4.773 -15.177   0.898  0.00  0.00    +0.292 HD
ENDBRANCH  14  19
ENDBRANCH  10  11
ENDBRANCH   6   9
BRANCH   1  21
ATOM     21  S   UNL     1      -2.546  -4.544   0.002  0.00  0.00    -0.084 S 
BRANCH  21  22
ATOM     22  C   UNL     1      -2.571  -2.730   0.012  0.00  0.00    +0.086 C 
BRANCH  22  23
ATOM     23  C   UNL     1      -1.135  -2.201   0.001  0.00  0.00    +0.107 C 
BRANCH  23  27
ATOM     24  C   UNL     1      -0.018   1.461   0.010  0.00  0.00    +0.131 C 
ATOM     25  N   UNL     1       0.002  -0.004   0.002  0.00  0.00    -0.308 N 
ATOM     26  C   UNL     1       1.281  -0.719  -0.014  0.00  0.00    +0.131 C 
ATOM     27  C   UNL     1      -1.156  -0.694   0.009  0.00  0.00    +0.216 C 
ATOM     28  O   UNL     1      -2.214  -0.102   0.023  0.00  0.00    -0.276 OA
ENDBRANCH  23  27
ENDBRANCH  22  23
ENDBRANCH  21  22
ENDBRANCH   1  21
TORSDOF 7
