REMARK  Name = ZINC66529253
REMARK  9 active torsions:
REMARK  status: ('A' for Active; 'I' for Inactive)
REMARK    1  A    between atoms: C_1  and  C_2
REMARK    2  A    between atoms: N_7  and  C_9
REMARK    3  A    between atoms: C_9  and  C_10
REMARK    4  A    between atoms: C_13  and  C_16
REMARK    5  A    between atoms: C_16  and  N_17
REMARK    6  A    between atoms: C_18  and  C_20
REMARK    7  A    between atoms: C_20  and  N_21
REMARK    8  A    between atoms: C_27  and  C_28
REMARK    9  A    between atoms: C_27  and  C_29
REMARK                            x       y       z     vdW  Elec       q    Type
REMARK                         _______ _______ _______ _____ _____    ______ ____
ROOT
ATOM      1  C   UNL     1       1.060  -8.227   2.682  0.00  0.00    +0.139 C 
ENDROOT
BRANCH   1   5
ATOM      2  C   UNL     1       1.321  -3.966   2.518  0.00  0.00    -0.064 A 
ATOM      3  C   UNL     1       0.233  -4.569   3.122  0.00  0.00    +0.002 A 
ATOM      4  C   UNL     1       0.149  -5.948   3.174  0.00  0.00    +0.005 A 
ATOM      5  C   UNL     1       1.151  -6.724   2.623  0.00  0.00    -0.030 A 
ATOM      6  C   UNL     1       2.239  -6.121   2.019  0.00  0.00    +0.005 A 
ATOM      7  C   UNL     1       2.321  -4.742   1.963  0.00  0.00    +0.002 A 
BRANCH   2   8
ATOM      8  C   UNL     1       1.413  -2.463   2.461  0.00  0.00    -0.043 C 
BRANCH   8  14
ATOM      9  C   UNL     1      -0.019   1.526   0.010  0.00  0.00    +0.005 C 
ATOM     10  C   UNL     1       0.002  -0.004   0.002  0.00  0.00    -0.031 C 
ATOM     11  C   UNL     1       0.721  -0.499  -1.257  0.00  0.00    -0.001 C 
ATOM     12  C   UNL     1       0.805  -2.027  -1.217  0.00  0.00    -0.018 C 
ATOM     13  C   UNL     1       1.518  -2.460   0.066  0.00  0.00    -0.078 C 
ATOM     14  N   UNL     1       0.768  -1.979   1.233  0.00  0.00    +0.383 N 
ATOM     15  C   UNL     1       0.744  -0.512   1.240  0.00  0.00    -0.075 C 
ATOM     16  H   UNL     1      -0.177  -2.330   1.192  0.00  0.00    -0.081 HD
ENDBRANCH   8  14
ENDBRANCH   2   8
ENDBRANCH   1   5
BRANCH   1  17
ATOM     17  N   UNL     1       0.361  -8.720   1.492  0.00  0.00    -0.310 N 
ATOM     18  C   UNL     1       0.161 -10.043   1.328  0.00  0.00    +0.227 C 
ATOM     19  O   UNL     1       0.559 -10.825   2.165  0.00  0.00    -0.274 OA
ATOM     20  H   UNL     1       0.043  -8.094   0.823  0.00  0.00    +0.149 HD
BRANCH  18  21
ATOM     21  C   UNL     1      -0.557 -10.550   0.104  0.00  0.00    +0.181 C 
BRANCH  21  22
ATOM     22  N   UNL     1      -0.647 -12.015   0.161  0.00  0.00    -0.279 NA
ATOM     23  C   UNL     1       0.685 -12.630   0.038  0.00  0.00    +0.104 C 
ATOM     24  C   UNL     1       0.578 -14.110   0.410  0.00  0.00    +0.119 C 
ATOM     25  N   UNL     1      -0.517 -14.733  -0.327  0.00  0.00    -0.313 N 
ATOM     26  C   UNL     1      -1.496 -14.030  -0.907  0.00  0.00    +0.233 C 
ATOM     27  O   UNL     1      -2.385 -14.630  -1.474  0.00  0.00    -0.274 OA
ATOM     28  C   UNL     1      -1.541 -12.529  -0.885  0.00  0.00    +0.093 C 
ATOM     29  C   UNL     1      -2.972 -12.067  -0.603  0.00  0.00    +0.037 C 
ATOM     30  C   UNL     1      -1.094 -11.988  -2.245  0.00  0.00    +0.037 C 
ATOM     31  H   UNL     1      -0.536 -15.700  -0.400  0.00  0.00    +0.149 HD
ENDBRANCH  21  22
ENDBRANCH  18  21
ENDBRANCH   1  17
TORSDOF 6
