REMARK  Name = ZINC40985833
REMARK  16 active torsions:
REMARK  status: ('A' for Active; 'I' for Inactive)
REMARK    1  A    between atoms: C_1  and  C_2
REMARK    2  A    between atoms: C_2  and  N_3
REMARK    3  A    between atoms: N_3  and  C_4
REMARK    4  A    between atoms: N_3  and  C_6
REMARK    5  A    between atoms: C_4  and  C_5
REMARK    6  A    between atoms: C_6  and  C_8
REMARK    7  A    between atoms: C_6  and  C_28
REMARK    8  A    between atoms: C_8  and  N_9
REMARK    9  A    between atoms: C_10  and  C_12
REMARK   10  A    between atoms: C_15  and  S_19
REMARK   11  A    between atoms: S_19  and  C_20
REMARK   12  A    between atoms: C_20  and  C_21
REMARK   13  A    between atoms: C_24  and  C_27
REMARK   14  A    between atoms: C_31  and  C_34
REMARK   15  A    between atoms: C_34  and  C_35
REMARK   16  A    between atoms: C_34  and  C_36
REMARK                            x       y       z     vdW  Elec       q    Type
REMARK                         _______ _______ _______ _____ _____    ______ ____
ROOT
ATOM      1  N   UNL     1       1.445   0.930  -1.049  0.00  0.00    -0.312 N 
ATOM      2  C   UNL     1       2.396   1.884  -1.058  0.00  0.00    +0.248 C 
ATOM      3  O   UNL     1       3.154   1.978  -2.005  0.00  0.00    -0.270 OA
ATOM      4  H   UNL     1       0.796   0.898  -0.328  0.00  0.00    +0.149 HD
ENDROOT
BRANCH   2   5
ATOM      5  C   UNL     1       2.518   2.815   0.078  0.00  0.00    +0.092 A 
ATOM      6  C   UNL     1       1.732   2.654   1.227  0.00  0.00    +0.129 A 
ATOM      7  N   UNL     1       1.871   3.508   2.223  0.00  0.00    -0.229 NA
ATOM      8  C   UNL     1       2.740   4.509   2.148  0.00  0.00    +0.190 A 
ATOM      9  N   UNL     1       3.503   4.697   1.078  0.00  0.00    -0.209 NA
ATOM     10  C   UNL     1       3.428   3.882   0.041  0.00  0.00    +0.146 A 
ATOM     11 CL   UNL     1       4.436   4.133  -1.351  0.00  0.00    -0.061 Cl
BRANCH   8  12
ATOM     12  S   UNL     1       2.885   5.620   3.507  0.00  0.00    -0.081 S 
BRANCH  12  13
ATOM     13  C   UNL     1       4.158   6.798   2.978  0.00  0.00    +0.112 C 
BRANCH  13  14
ATOM     14  C   UNL     1       4.382   7.818   4.064  0.00  0.00    -0.037 A 
ATOM     15  C   UNL     1       3.636   8.981   4.085  0.00  0.00    +0.005 A 
ATOM     16  C   UNL     1       3.841   9.917   5.082  0.00  0.00    +0.003 A 
ATOM     17  C   UNL     1       4.793   9.689   6.058  0.00  0.00    -0.050 A 
ATOM     18  C   UNL     1       5.539   8.525   6.038  0.00  0.00    +0.003 A 
ATOM     19  C   UNL     1       5.330   7.588   5.043  0.00  0.00    +0.005 A 
ATOM     20  C   UNL     1       5.017  10.709   7.144  0.00  0.00    +0.044 C 
ENDBRANCH  13  14
ENDBRANCH  12  13
ENDBRANCH   8  12
ENDBRANCH   2   5
BRANCH   1  21
ATOM     21  C   UNL     1       1.390  -0.061  -2.127  0.00  0.00    +0.094 C 
BRANCH  21  22
ATOM     22  C   UNL     1       0.155  -0.945  -1.945  0.00  0.00    -0.020 C 
BRANCH  22  23
ATOM     23  C   UNL     1       0.181  -2.060  -2.958  0.00  0.00    -0.059 A 
ATOM     24  C   UNL     1       1.386  -2.486  -3.486  0.00  0.00    +0.002 A 
ATOM     25  C   UNL     1       1.411  -3.509  -4.415  0.00  0.00    +0.004 A 
ATOM     26  C   UNL     1       0.231  -4.107  -4.816  0.00  0.00    -0.045 A 
ATOM     27  C   UNL     1      -0.974  -3.682  -4.288  0.00  0.00    +0.004 A 
ATOM     28  C   UNL     1      -0.998  -2.662  -3.355  0.00  0.00    +0.002 A 
BRANCH  26  29
ATOM     29  C   UNL     1       0.258  -5.222  -5.830  0.00  0.00    +0.013 C 
ATOM     30  C   UNL     1      -0.341  -6.487  -5.212  0.00  0.00    +0.012 C 
ATOM     31  C   UNL     1      -0.562  -4.816  -7.056  0.00  0.00    +0.012 C 
ENDBRANCH  26  29
ENDBRANCH  22  23
BRANCH  22  32
ATOM     32  N   UNL     1       0.154  -1.513  -0.591  0.00  0.00    +0.385 N 
ATOM     33  H   UNL     1       0.218  -0.768   0.087  0.00  0.00    -0.081 HD
BRANCH  32  35
ATOM     34  C   UNL     1      -2.278  -1.301  -0.394  0.00  0.00    -0.017 C 
ATOM     35  C   UNL     1      -1.090  -2.265  -0.376  0.00  0.00    -0.081 C 
ENDBRANCH  32  35
BRANCH  32  36
ATOM     36  C   UNL     1       1.303  -2.415  -0.437  0.00  0.00    -0.081 C 
ATOM     37  C   UNL     1       2.514  -1.619   0.053  0.00  0.00    -0.017 C 
ENDBRANCH  32  36
ENDBRANCH  22  32
ENDBRANCH  21  22
ENDBRANCH   1  21
TORSDOF 11
