REMARK  Name = ZINC00398017
REMARK  7 active torsions:
REMARK  status: ('A' for Active; 'I' for Inactive)
REMARK    1  A    between atoms: C_1  and  C_2
REMARK    2  A    between atoms: C_2  and  C_3
REMARK    3  A    between atoms: C_2  and  N_4
REMARK    4  A    between atoms: N_4  and  C_5
REMARK    5  A    between atoms: C_5  and  C_6
REMARK    6  A    between atoms: C_5  and  C_7
REMARK    7  A    between atoms: N_10  and  C_11
REMARK                            x       y       z     vdW  Elec       q    Type
REMARK                         _______ _______ _______ _____ _____    ______ ____
ROOT
ATOM      1  N   UNL     1      -1.232   7.174  -0.157  0.00  0.00    -0.280 N 
ATOM      2  C   UNL     1      -1.188   5.839  -0.340  0.00  0.00    +0.307 C 
ATOM      3  O   UNL     1      -2.220   5.199  -0.397  0.00  0.00    -0.252 OA
ATOM      4  N   UNL     1       0.001   5.214  -0.459  0.00  0.00    -0.269 N 
ATOM      5  H   UNL     1       0.824   5.710  -0.329  0.00  0.00    +0.156 HD
ENDROOT
BRANCH   4   6
ATOM      6  C   UNL     1       0.046   3.851  -0.770  0.00  0.00    +0.038 A 
ATOM      7  C   UNL     1       1.100   3.342  -1.517  0.00  0.00    +0.043 A 
ATOM      8  C   UNL     1       1.142   1.995  -1.823  0.00  0.00    +0.044 A 
ATOM      9  C   UNL     1       0.135   1.153  -1.385  0.00  0.00    +0.040 A 
ATOM     10  C   UNL     1      -0.920   1.658  -0.645  0.00  0.00    +0.044 A 
ATOM     11  C   UNL     1      -0.964   3.004  -0.332  0.00  0.00    +0.043 A 
ATOM     12 CL   UNL     1      -2.185   0.600  -0.105  0.00  0.00    -0.083 Cl
ATOM     13 CL   UNL     1       2.459   1.359  -2.757  0.00  0.00    -0.083 Cl
ENDBRANCH   4   6
BRANCH   1  15
ATOM     14  C   UNL     1      -2.436   8.471   1.530  0.00  0.00    +0.028 C 
ATOM     15  C   UNL     1      -2.506   7.831   0.142  0.00  0.00    +0.072 C 
ATOM     16  C   UNL     1      -2.782   8.912  -0.904  0.00  0.00    +0.028 C 
ENDBRANCH   1  15
BRANCH   1  17
ATOM     17  C   UNL     1      -0.005   7.968  -0.259  0.00  0.00    +0.072 C 
ATOM     18  C   UNL     1       0.928   7.616   0.901  0.00  0.00    +0.028 C 
ATOM     19  C   UNL     1       0.693   7.661  -1.586  0.00  0.00    +0.028 C 
ENDBRANCH   1  17
TORSDOF 3
