REMARK  Name = ZINC09387955
REMARK  8 active torsions:
REMARK  status: ('A' for Active; 'I' for Inactive)
REMARK    1  A    between atoms: C_1  and  C_2
REMARK    2  A    between atoms: C_8  and  N_10
REMARK    3  A    between atoms: C_11  and  C_13
REMARK    4  A    between atoms: N_15  and  C_16
REMARK    5  A    between atoms: C_16  and  C_17
REMARK    6  A    between atoms: N_19  and  C_20
REMARK    7  A    between atoms: C_20  and  C_22
REMARK    8  A    between atoms: C_20  and  C_28
REMARK                            x       y       z     vdW  Elec       q    Type
REMARK                         _______ _______ _______ _____ _____    ______ ____
ROOT
ATOM      1  C   UNL     1       1.555  -3.487   3.091  0.00  0.00    +0.200 C 
ENDROOT
BRANCH   1   4
ATOM      2  C   UNL     1       1.566  -4.060   5.459  0.00  0.00    +0.299 C 
ATOM      3  O   UNL     1       0.772  -4.946   5.219  0.00  0.00    -0.265 OA
ATOM      4  N   UNL     1       2.020  -3.273   4.464  0.00  0.00    -0.299 N 
ATOM      5  H   UNL     1       2.655  -2.565   4.656  0.00  0.00    +0.150 HD
BRANCH   2   7
ATOM      6  N   UNL     1       1.586  -4.628   7.856  0.00  0.00    -0.304 N 
ATOM      7  C   UNL     1       2.040  -3.841   6.860  0.00  0.00    +0.299 C 
ATOM      8  O   UNL     1       2.834  -2.956   7.100  0.00  0.00    -0.265 OA
ATOM      9  H   UNL     1       0.952  -5.336   7.663  0.00  0.00    +0.149 HD
BRANCH   6  16
ATOM     10  C   UNL     1       2.779  -6.801   9.354  0.00  0.00    +0.009 C 
ATOM     11  C   UNL     1       1.926  -5.718  10.018  0.00  0.00    +0.006 C 
ATOM     12  C   UNL     1       0.462  -6.163  10.039  0.00  0.00    +0.005 C 
ATOM     13  C   UNL     1      -0.391  -5.080  10.703  0.00  0.00    +0.000 C 
ATOM     14  C   UNL     1      -0.266  -3.776   9.913  0.00  0.00    +0.002 C 
ATOM     15  C   UNL     1       1.198  -3.331   9.892  0.00  0.00    +0.022 C 
ATOM     16  C   UNL     1       2.051  -4.414   9.228  0.00  0.00    +0.076 C 
ENDBRANCH   6  16
ENDBRANCH   2   7
ENDBRANCH   1   4
BRANCH   1  17
ATOM     17  C   UNL     1       2.209  -2.483   2.177  0.00  0.00    +0.231 C 
ATOM     18  O   UNL     1       2.986  -1.669   2.628  0.00  0.00    -0.274 OA
ATOM     19  N   UNL     1       1.929  -2.490   0.859  0.00  0.00    -0.303 N 
ATOM     20  H   UNL     1       1.307  -3.141   0.498  0.00  0.00    +0.150 HD
BRANCH  19  21
ATOM     21  C   UNL     1       2.565  -1.514  -0.030  0.00  0.00    +0.140 C 
BRANCH  21  22
ATOM     22  C   UNL     1       2.606  -2.064  -1.433  0.00  0.00    -0.022 A 
ATOM     23  C   UNL     1       1.527  -2.771  -1.930  0.00  0.00    +0.006 A 
ATOM     24  C   UNL     1       1.563  -3.271  -3.218  0.00  0.00    +0.000 A 
ATOM     25  C   UNL     1       2.681  -3.072  -4.006  0.00  0.00    +0.000 A 
ATOM     26  C   UNL     1       3.762  -2.369  -3.507  0.00  0.00    +0.000 A 
ATOM     27  C   UNL     1       3.724  -1.865  -2.220  0.00  0.00    +0.006 A 
ENDBRANCH  21  22
BRANCH  21  28
ATOM     28  C   UNL     1       1.773  -0.232  -0.016  0.00  0.00    +0.014 A 
ATOM     29  C   UNL     1       2.220   1.048  -0.013  0.00  0.00    +0.013 A 
ATOM     30  C   UNL     1       1.300   2.079   0.001  0.00  0.00    +0.008 A 
ATOM     31  C   UNL     1      -0.022   1.781   0.012  0.00  0.00    +0.045 A 
ATOM     32  S   UNL     1       0.002  -0.004   0.002  0.00  0.00    -0.099 S 
ENDBRANCH  21  28
ENDBRANCH  19  21
ENDBRANCH   1  17
TORSDOF 7
