REMARK  Name = ZINC12437402
REMARK  9 active torsions:
REMARK  status: ('A' for Active; 'I' for Inactive)
REMARK    1  A    between atoms: C_1  and  C_2
REMARK    2  A    between atoms: C_2  and  C_3
REMARK    3  A    between atoms: C_6  and  N_9
REMARK    4  A    between atoms: C_10  and  C_12
REMARK    5  A    between atoms: N_22  and  N_23
REMARK    6  A    between atoms: N_23  and  S_24
REMARK    7  A    between atoms: S_24  and  C_27
REMARK    8  A    between atoms: C_30  and  C_34
REMARK    9  A    between atoms: C_31  and  C_33
REMARK                            x       y       z     vdW  Elec       q    Type
REMARK                         _______ _______ _______ _____ _____    ______ ____
ROOT
ATOM      1  C   UNL     1       1.788   3.075   0.169  0.00  0.00    +0.101 A 
ATOM      2  C   UNL     1       2.994   2.666  -0.346  0.00  0.00    +0.030 A 
ATOM      3  C   UNL     1       3.981   3.703  -0.675  0.00  0.00    +0.018 A 
ATOM      4  C   UNL     1       5.106   3.399  -1.447  0.00  0.00    +0.011 A 
ATOM      5  C   UNL     1       6.017   4.391  -1.742  0.00  0.00    +0.001 A 
ATOM      6  C   UNL     1       5.823   5.682  -1.279  0.00  0.00    +0.004 A 
ATOM      7  C   UNL     1       4.715   5.995  -0.513  0.00  0.00    +0.047 A 
ATOM      8  C   UNL     1       3.789   5.013  -0.203  0.00  0.00    +0.138 A 
ATOM      9  O   UNL     1       2.699   5.305   0.552  0.00  0.00    -0.436 OA
ATOM     10  C   UNL     1       1.591   4.531   0.359  0.00  0.00    +0.249 A 
ATOM     11  N   UNL     1       0.399   5.056   0.344  0.00  0.00    -0.127 NA
ENDROOT
BRANCH   1  13
ATOM     12  N   UNL     1      -0.332   2.505   1.241  0.00  0.00    -0.281 N 
ATOM     13  C   UNL     1       0.736   2.107   0.521  0.00  0.00    +0.253 C 
ATOM     14  O   UNL     1       0.829   0.950   0.159  0.00  0.00    -0.270 OA
ATOM     15  H   UNL     1      -0.447   3.442   1.460  0.00  0.00    +0.155 HD
BRANCH  12  19
ATOM     16  C   UNL     1      -3.136  -0.295   2.526  0.00  0.00    -0.048 A 
ATOM     17  C   UNL     1      -3.549   0.964   2.128  0.00  0.00    +0.005 A 
ATOM     18  C   UNL     1      -2.622   1.894   1.702  0.00  0.00    +0.023 A 
ATOM     19  C   UNL     1      -1.273   1.565   1.672  0.00  0.00    +0.034 A 
ATOM     20  C   UNL     1      -0.862   0.298   2.067  0.00  0.00    +0.023 A 
ATOM     21  C   UNL     1      -1.794  -0.626   2.498  0.00  0.00    +0.005 A 
BRANCH  16  23
ATOM     22  C   UNL     1      -4.640  -2.126   1.795  0.00  0.00    +0.009 C 
ATOM     23  C   UNL     1      -4.151  -1.307   2.991  0.00  0.00    +0.032 C 
ENDBRANCH  16  23
ENDBRANCH  12  19
ENDBRANCH   1  13
BRANCH  11  24
ATOM     24  N   UNL     1       0.247   6.449   0.340  0.00  0.00    -0.133 N 
ATOM     25  H   UNL     1       1.025   7.022   0.429  0.00  0.00    +0.197 HD
BRANCH  24  26
ATOM     26  S   UNL     1      -1.260   7.117   0.184  0.00  0.00    +0.087 S 
ATOM     27  O   UNL     1      -1.086   8.527   0.223  0.00  0.00    -0.149 OA
ATOM     28  O   UNL     1      -1.886   6.457  -0.907  0.00  0.00    -0.149 OA
BRANCH  26  29
ATOM     29  C   UNL     1      -2.174   6.683   1.626  0.00  0.00    +0.110 A 
ATOM     30  C   UNL     1      -3.042   5.607   1.597  0.00  0.00    +0.029 A 
ATOM     31  C   UNL     1      -3.756   5.264   2.730  0.00  0.00    +0.005 A 
ATOM     32  C   UNL     1      -3.609   6.002   3.889  0.00  0.00    -0.047 A 
ATOM     33  C   UNL     1      -2.746   7.081   3.917  0.00  0.00    -0.046 A 
ATOM     34  C   UNL     1      -2.028   7.422   2.785  0.00  0.00    +0.032 A 
ATOM     35  C   UNL     1      -2.586   7.886   5.181  0.00  0.00    +0.044 C 
ATOM     36  C   UNL     1      -4.390   5.630   5.123  0.00  0.00    +0.044 C 
ENDBRANCH  26  29
ENDBRANCH  24  26
ENDBRANCH  11  24
TORSDOF 6
