REMARK  Name = ZINC12036246
REMARK  8 active torsions:
REMARK  status: ('A' for Active; 'I' for Inactive)
REMARK    1  A    between atoms: C_1  and  O_2
REMARK    2  A    between atoms: O_2  and  C_3
REMARK    3  A    between atoms: C_7  and  C_9
REMARK    4  A    between atoms: C_9  and  N_59
REMARK    5  A    between atoms: C_12  and  C_15
REMARK    6  A    between atoms: C_15  and  C_22
REMARK    7  A    between atoms: C_22  and  C_23
REMARK    8  A    between atoms: C_23  and  C_24
REMARK                            x       y       z     vdW  Elec       q    Type
REMARK                         _______ _______ _______ _____ _____    ______ ____
ROOT
ATOM      1  C   UNL     1      -5.270   4.493   4.339  0.00  0.00    -0.078 C 
ATOM      2  C   UNL     1      -4.876   4.142   2.903  0.00  0.00    -0.013 C 
ATOM      3  C   UNL     1      -3.480   3.511   2.902  0.00  0.00    +0.018 C 
ATOM      4  C   UNL     1      -3.485   2.275   3.805  0.00  0.00    -0.013 C 
ATOM      5  C   UNL     1      -3.921   2.680   5.215  0.00  0.00    -0.078 C 
ATOM      6  N   UNL     1      -5.281   3.257   5.150  0.00  0.00    +0.382 N 
ATOM      7  H   UNL     1      -5.911   2.576   4.711  0.00  0.00    -0.081 HD
ENDROOT
BRANCH   3   8
ATOM      8  C   UNL     1      -3.105   3.102   1.476  0.00  0.00    +0.115 C 
ATOM      9  C   UNL     1      -4.198   2.250   0.861  0.00  0.00    +0.244 C 
ATOM     10  O   UNL     1      -4.597   1.175   1.255  0.00  0.00    -0.273 OA
ATOM     11  N   UNL     1      -4.634   2.936  -0.213  0.00  0.00    -0.238 N 
ATOM     12  C   UNL     1      -3.975   4.091  -0.362  0.00  0.00    +0.307 C 
ATOM     13  O   UNL     1      -4.192   4.882  -1.259  0.00  0.00    -0.252 OA
ATOM     14  N   UNL     1      -3.047   4.280   0.594  0.00  0.00    -0.285 N 
ATOM     15  H   UNL     1      -5.338   2.630  -0.806  0.00  0.00    +0.159 HD
ATOM     16  H   UNL     1      -2.455   5.043   0.684  0.00  0.00    +0.151 HD
BRANCH   8  17
ATOM     17  C   UNL     1      -1.770   2.355   1.466  0.00  0.00    +0.040 C 
BRANCH  17  18
ATOM     18  C   UNL     1      -1.332   2.114   0.020  0.00  0.00    +0.038 C 
BRANCH  18  19
ATOM     19  C   UNL     1      -0.017   1.378   0.010  0.00  0.00    -0.047 A 
ATOM     20  C   UNL     1       1.171   2.086   0.002  0.00  0.00    +0.003 A 
ATOM     21  C   UNL     1       2.377   1.411  -0.014  0.00  0.00    +0.000 A 
ATOM     22  C   UNL     1       2.396   0.029  -0.022  0.00  0.00    +0.000 A 
ATOM     23  C   UNL     1       1.208  -0.679  -0.014  0.00  0.00    +0.000 A 
ATOM     24  C   UNL     1       0.002  -0.004   0.002  0.00  0.00    +0.003 A 
ENDBRANCH  18  19
ENDBRANCH  17  18
ENDBRANCH   8  17
ENDBRANCH   3   8
BRANCH   6  25
ATOM     25  C   UNL     1      -5.769   3.552   6.513  0.00  0.00    -0.040 C 
BRANCH  25  30
ATOM     26  C   UNL     1      -4.279   1.292   9.149  0.00  0.00    +0.120 A 
ATOM     27  C   UNL     1      -5.066   0.157   9.017  0.00  0.00    +0.048 A 
ATOM     28  C   UNL     1      -6.077   0.125   8.076  0.00  0.00    +0.042 A 
ATOM     29  C   UNL     1      -6.308   1.226   7.269  0.00  0.00    +0.125 A 
ATOM     30  C   UNL     1      -5.519   2.357   7.397  0.00  0.00    -0.025 A 
ATOM     31  C   UNL     1      -4.508   2.392   8.337  0.00  0.00    +0.050 A 
ATOM     32  F   UNL     1      -7.301   1.196   6.354  0.00  0.00    -0.205 F 
BRANCH  26  34
ATOM     33  C   UNL     1      -3.104   0.156  10.877  0.00  0.00    +0.277 C 
ATOM     34  O   UNL     1      -3.283   1.325  10.075  0.00  0.00    -0.495 OA
ENDBRANCH  26  34
ENDBRANCH  25  30
ENDBRANCH   6  25
TORSDOF 7
