REMARK  Name = ZINC59223944
REMARK  9 active torsions:
REMARK  status: ('A' for Active; 'I' for Inactive)
REMARK    1  A    between atoms: C_1  and  C_2
REMARK    2  A    between atoms: C_5  and  N_9
REMARK    3  A    between atoms: C_7  and  C_8
REMARK    4  A    between atoms: C_15  and  C_16
REMARK    5  A    between atoms: C_19  and  O_24
REMARK    6  A    between atoms: C_20  and  O_22
REMARK    7  A    between atoms: O_22  and  C_23
REMARK    8  A    between atoms: O_24  and  C_25
REMARK    9  A    between atoms: C_25  and  C_26
REMARK                            x       y       z     vdW  Elec       q    Type
REMARK                         _______ _______ _______ _____ _____    ______ ____
ROOT
ATOM      1  C   UNL     1      -3.801  -7.311  -4.027  0.00  0.00    -0.020 A 
ATOM      2  C   UNL     1      -3.196  -8.420  -3.423  0.00  0.00    +0.012 A 
ATOM      3  C   UNL     1      -3.495  -9.691  -3.861  0.00  0.00    +0.050 A 
ATOM      4  C   UNL     1      -4.396  -9.877  -4.901  0.00  0.00    +0.162 A 
ATOM      5  C   UNL     1      -5.003  -8.779  -5.508  0.00  0.00    +0.162 A 
ATOM      6  C   UNL     1      -4.713  -7.501  -5.072  0.00  0.00    +0.057 A 
ENDROOT
BRANCH   1  13
ATOM      7  N   UNL     1       1.167  -3.906  -1.965  0.00  0.00    -0.226 NA
ATOM      8  C   UNL     1       0.150  -4.600  -2.425  0.00  0.00    +0.166 C 
ATOM      9  N   UNL     1       0.156  -5.857  -2.990  0.00  0.00    -0.260 N 
ATOM     10  C   UNL     1      -0.969  -6.415  -3.404  0.00  0.00    +0.256 C 
ATOM     11  O   UNL     1      -0.982  -7.525  -3.905  0.00  0.00    -0.269 OA
ATOM     12  C   UNL     1      -2.207  -5.632  -3.232  0.00  0.00    +0.078 C 
ATOM     13  C   UNL     1      -3.483  -5.955  -3.563  0.00  0.00    +0.028 C 
ATOM     14  S   UNL     1      -1.576  -4.147  -2.465  0.00  0.00    -0.049 S 
ATOM     15  H   UNL     1       0.994  -6.337  -3.084  0.00  0.00    +0.157 HD
BRANCH   7  20
ATOM     16  C   UNL     1       0.317   1.218   0.245  0.00  0.00    +0.044 C 
ATOM     17  C   UNL     1       0.544  -0.150  -0.345  0.00  0.00    -0.047 A 
ATOM     18  C   UNL     1      -0.074  -0.499  -1.533  0.00  0.00    +0.006 A 
ATOM     19  C   UNL     1       0.129  -1.749  -2.079  0.00  0.00    +0.028 A 
ATOM     20  C   UNL     1       0.962  -2.664  -1.429  0.00  0.00    +0.067 A 
ATOM     21  C   UNL     1       1.583  -2.305  -0.231  0.00  0.00    +0.031 A 
ATOM     22  C   UNL     1       1.374  -1.049   0.300  0.00  0.00    -0.046 A 
ATOM     23  C   UNL     1       2.048  -0.658   1.591  0.00  0.00    +0.044 C 
ENDBRANCH   7  20
ENDBRANCH   1  13
BRANCH   5  24
ATOM     24  O   UNL     1      -5.884  -8.966  -6.527  0.00  0.00    -0.491 OA
ATOM     25  C   UNL     1      -6.468  -7.796  -7.103  0.00  0.00    +0.277 C 
ENDBRANCH   5  24
BRANCH   4  26
ATOM     26  O   UNL     1      -4.687 -11.134  -5.328  0.00  0.00    -0.484 OA
BRANCH  26  27
ATOM     27  C   UNL     1      -4.030 -12.214  -4.662  0.00  0.00    +0.265 C 
BRANCH  27  28
ATOM     28  C   UNL     1      -4.474 -13.521  -5.267  0.00  0.00    -0.003 A 
ATOM     29  C   UNL     1      -5.367 -13.531  -6.294  0.00  0.00    +0.007 A 
ATOM     30  C   UNL     1      -5.789 -14.730  -6.866  0.00  0.00    +0.001 A 
ATOM     31  C   UNL     1      -5.320 -15.925  -6.414  0.00  0.00    +0.008 A 
ATOM     32  C   UNL     1      -4.397 -15.955  -5.356  0.00  0.00    -0.018 A 
ATOM     33  C   UNL     1      -3.963 -14.735  -4.778  0.00  0.00    -0.011 A 
ATOM     34  C   UNL     1      -3.034 -14.764  -3.723  0.00  0.00    +0.009 A 
ATOM     35  C   UNL     1      -2.561 -15.959  -3.276  0.00  0.00    +0.001 A 
ATOM     36  C   UNL     1      -2.983 -17.158  -3.848  0.00  0.00    +0.001 A 
ATOM     37  C   UNL     1      -3.891 -17.169  -4.862  0.00  0.00    +0.008 A 
ENDBRANCH  27  28
ENDBRANCH  26  27
ENDBRANCH   4  26
TORSDOF 6
