REMARK  Name = ZINC64730204
REMARK  8 active torsions:
REMARK  status: ('A' for Active; 'I' for Inactive)
REMARK    1  A    between atoms: C_1  and  O_2
REMARK    2  A    between atoms: O_2  and  C_3
REMARK    3  A    between atoms: C_6  and  C_9
REMARK    4  A    between atoms: C_9  and  C_11
REMARK    5  A    between atoms: C_9  and  C_28
REMARK    6  A    between atoms: C_11  and  N_12
REMARK    7  A    between atoms: C_13  and  C_15
REMARK    8  A    between atoms: C_15  and  N_16
REMARK                            x       y       z     vdW  Elec       q    Type
REMARK                         _______ _______ _______ _____ _____    ______ ____
ROOT
ATOM      1  C   UNL     1       2.571  -2.507  -4.409  0.00  0.00    +0.064 C 
ENDROOT
BRANCH   1   2
ATOM      2  C   UNL     1       3.696  -3.376  -3.909  0.00  0.00    -0.033 C 
ATOM      3  C   UNL     1       5.006  -3.275  -4.229  0.00  0.00    -0.000 A 
ATOM      4  C   UNL     1       5.747  -2.361  -5.107  0.00  0.00    +0.010 A 
ATOM      5  C   UNL     1       7.085  -2.511  -5.229  0.00  0.00    +0.001 A 
ATOM      6  C   UNL     1       7.781  -3.515  -4.542  0.00  0.00    +0.002 A 
ATOM      7  C   UNL     1       7.169  -4.392  -3.717  0.00  0.00    +0.026 A 
ATOM      8  C   UNL     1       5.763  -4.326  -3.513  0.00  0.00    +0.043 A 
ATOM      9  N   UNL     1       4.953  -5.049  -2.779  0.00  0.00    -0.380 N 
ATOM     10  C   UNL     1       3.589  -4.534  -2.941  0.00  0.00    +0.145 C 
ATOM     11  H   UNL     1       5.212  -5.797  -2.219  0.00  0.00    +0.160 HD
ENDBRANCH   1   2
BRANCH   1  15
ATOM     12  C   UNL     1       0.698  -0.555  -1.101  0.00  0.00    +0.120 A 
ATOM     13  C   UNL     1       1.280   0.196  -2.111  0.00  0.00    +0.046 A 
ATOM     14  C   UNL     1       1.885  -0.438  -3.180  0.00  0.00    +0.008 A 
ATOM     15  C   UNL     1       1.910  -1.819  -3.242  0.00  0.00    -0.038 A 
ATOM     16  C   UNL     1       1.331  -2.569  -2.236  0.00  0.00    +0.008 A 
ATOM     17  C   UNL     1       0.730  -1.941  -1.163  0.00  0.00    +0.046 A 
BRANCH  12  19
ATOM     18  C   UNL     1       0.107   1.494  -0.051  0.00  0.00    +0.277 C 
ATOM     19  O   UNL     1       0.103   0.066  -0.048  0.00  0.00    -0.495 OA
ENDBRANCH  12  19
ENDBRANCH   1  15
BRANCH   1  20
ATOM     20  C   UNL     1       1.542  -3.373  -5.138  0.00  0.00    +0.116 C 
BRANCH  20  21
ATOM     21  N   UNL     1       2.152  -3.948  -6.340  0.00  0.00    -0.313 N 
ATOM     22  C   UNL     1       1.429  -4.752  -7.145  0.00  0.00    +0.227 C 
ATOM     23  O   UNL     1       0.273  -4.999  -6.874  0.00  0.00    -0.274 OA
ATOM     24  H   UNL     1       3.077  -3.750  -6.557  0.00  0.00    +0.149 HD
BRANCH  22  25
ATOM     25  C   UNL     1       2.056  -5.342  -8.381  0.00  0.00    +0.180 C 
BRANCH  25  26
ATOM     26  N   UNL     1       1.069  -6.174  -9.081  0.00  0.00    -0.291 NA
ATOM     27  C   UNL     1      -0.036  -5.357  -9.598  0.00  0.00    +0.104 C 
ATOM     28  C   UNL     1      -1.128  -6.275 -10.159  0.00  0.00    +0.122 C 
ATOM     29  N   UNL     1      -0.515  -7.184 -11.140  0.00  0.00    -0.314 N 
ATOM     30  C   UNL     1       0.683  -7.937 -10.737  0.00  0.00    +0.122 C 
ATOM     31  C   UNL     1       1.702  -6.953 -10.154  0.00  0.00    +0.104 C 
ATOM     32  C   UNL     1      -1.053  -7.327 -12.413  0.00  0.00    +0.099 A 
ATOM     33  C   UNL     1      -0.388  -8.100 -13.360  0.00  0.00    +0.042 A 
ATOM     34  C   UNL     1      -0.934  -8.234 -14.623  0.00  0.00    +0.005 A 
ATOM     35  C   UNL     1      -2.133  -7.589 -14.899  0.00  0.00    +0.018 A 
ATOM     36  C   UNL     1      -2.740  -6.839 -13.912  0.00  0.00    +0.084 A 
ATOM     37  N   UNL     1      -2.197  -6.733 -12.713  0.00  0.00    -0.350 N 
ATOM     38  H   UNL     1      -2.646  -6.202 -12.036  0.00  0.00    +0.166 HD
ENDBRANCH  25  26
ENDBRANCH  22  25
ENDBRANCH  20  21
ENDBRANCH   1  20
TORSDOF 7
