REMARK  Name = ZINC40947122
REMARK  10 active torsions:
REMARK  status: ('A' for Active; 'I' for Inactive)
REMARK    1  A    between atoms: C_1  and  O_2
REMARK    2  A    between atoms: O_2  and  C_3
REMARK    3  A    between atoms: C_5  and  C_19
REMARK    4  A    between atoms: C_8  and  O_9
REMARK    5  A    between atoms: O_9  and  C_10
REMARK    6  A    between atoms: C_10  and  C_11
REMARK    7  A    between atoms: N_20  and  N_21
REMARK    8  A    between atoms: C_22  and  C_24
REMARK    9  A    between atoms: C_24  and  S_25
REMARK   10  A    between atoms: S_25  and  C_26
REMARK                            x       y       z     vdW  Elec       q    Type
REMARK                         _______ _______ _______ _____ _____    ______ ____
ROOT
ATOM      1  C   UNL     1      -1.201  -0.638   0.010  0.00  0.00    +0.162 A 
ATOM      2  C   UNL     1      -2.370   0.099   0.019  0.00  0.00    +0.059 A 
ATOM      3  C   UNL     1      -3.605  -0.555   0.027  0.00  0.00    -0.002 A 
ATOM      4  C   UNL     1      -3.651  -1.952   0.026  0.00  0.00    +0.013 A 
ATOM      5  C   UNL     1      -2.481  -2.680   0.016  0.00  0.00    +0.050 A 
ATOM      6  C   UNL     1      -1.255  -2.030   0.003  0.00  0.00    +0.162 A 
ENDROOT
BRANCH   1   8
ATOM      7  C   UNL     1      -0.017   1.425   0.010  0.00  0.00    +0.277 C 
ATOM      8  O   UNL     1       0.002  -0.004   0.002  0.00  0.00    -0.491 OA
ENDBRANCH   1   8
BRANCH   3   9
ATOM      9  C   UNL     1      -4.855   0.226   0.038  0.00  0.00    +0.138 C 
ATOM     10  N   UNL     1      -6.001  -0.384   0.045  0.00  0.00    -0.188 NA
BRANCH  10  11
ATOM     11  N   UNL     1      -7.189   0.358   0.055  0.00  0.00    -0.206 N 
ATOM     12  C   UNL     1      -8.379  -0.275   0.062  0.00  0.00    +0.242 C 
ATOM     13  O   UNL     1      -8.421  -1.488   0.061  0.00  0.00    -0.273 OA
ATOM     14  H   UNL     1      -7.156   1.327   0.056  0.00  0.00    +0.177 HD
BRANCH  12  15
ATOM     15  C   UNL     1      -9.657   0.523   0.073  0.00  0.00    +0.173 C 
BRANCH  15  16
ATOM     16  S   UNL     1     -11.076  -0.607   0.082  0.00  0.00    -0.088 S 
BRANCH  16  17
ATOM     17  C   UNL     1     -12.475   0.464   0.094  0.00  0.00    +0.160 A 
ATOM     18  N   UNL     1     -12.518   1.783   0.090  0.00  0.00    -0.133 NA
ATOM     19  N   UNL     1     -13.733   2.428   0.101  0.00  0.00    -0.125 NA
ATOM     20  C   UNL     1     -14.849   1.725   0.115  0.00  0.00    +0.180 A 
ATOM     21  S   UNL     1     -14.214   0.056   0.105  0.00  0.00    -0.025 S 
ATOM     22  N   UNL     1     -16.167   2.166   0.127  0.00  0.00    -0.336 N 
ATOM     23  H   UNL     1     -16.360   3.117   0.126  0.00  0.00    +0.144 HD
ATOM     24  H   UNL     1     -16.893   1.523   0.137  0.00  0.00    +0.144 HD
ENDBRANCH  16  17
ENDBRANCH  15  16
ENDBRANCH  12  15
ENDBRANCH  10  11
ENDBRANCH   3   9
BRANCH   6  25
ATOM     25  O   UNL     1      -0.104  -2.753  -0.012  0.00  0.00    -0.484 OA
BRANCH  25  26
ATOM     26  C   UNL     1      -0.232  -4.176  -0.018  0.00  0.00    +0.269 C 
BRANCH  26  27
ATOM     27  C   UNL     1       1.138  -4.804  -0.035  0.00  0.00    +0.043 A 
ATOM     28  C   UNL     1       1.759  -5.080  -1.241  0.00  0.00    +0.131 A 
ATOM     29  C   UNL     1       3.018  -5.657  -1.255  0.00  0.00    +0.039 A 
ATOM     30  C   UNL     1       3.654  -5.956  -0.065  0.00  0.00    +0.004 A 
ATOM     31  C   UNL     1       3.034  -5.680   1.140  0.00  0.00    +0.020 A 
ATOM     32  C   UNL     1       1.779  -5.098   1.155  0.00  0.00    +0.050 A 
ATOM     33 CL   UNL     1       1.004  -4.745   2.668  0.00  0.00    -0.083 Cl
ATOM     34  F   UNL     1       1.136  -4.788  -2.404  0.00  0.00    -0.205 F 
ENDBRANCH  26  27
ENDBRANCH  25  26
ENDBRANCH   6  25
TORSDOF 9
