REMARK  Name = ZINC25157496
REMARK  5 active torsions:
REMARK  status: ('A' for Active; 'I' for Inactive)
REMARK    1  A    between atoms: C_1  and  C_2
REMARK    2  A    between atoms: C_5  and  C_8
REMARK    3  A    between atoms: C_8  and  C_10
REMARK    4  A    between atoms: C_8  and  N_15
REMARK    5  A    between atoms: C_16  and  C_18
REMARK                            x       y       z     vdW  Elec       q    Type
REMARK                         _______ _______ _______ _____ _____    ______ ____
ROOT
ATOM      1  N   UNL     1      -0.018   1.460   0.024  0.00  0.00    -0.300 N 
ATOM      2  C   UNL     1      -1.194   2.119   0.019  0.00  0.00    +0.250 C 
ATOM      3  O   UNL     1      -2.237   1.501  -0.084  0.00  0.00    -0.270 OA
ATOM      4  H   UNL     1       0.927   2.022   0.032  0.00  0.00    +0.150 HD
ENDROOT
BRANCH   2   5
ATOM      5  C   UNL     1      -1.216   3.586   0.139  0.00  0.00    +0.101 A 
ATOM      6  C   UNL     1      -2.418   4.261   0.252  0.00  0.00    +0.028 A 
ATOM      7  C   UNL     1      -2.406   5.672   0.365  0.00  0.00    -0.001 A 
ATOM      8  C   UNL     1      -3.611   6.383   0.483  0.00  0.00    +0.010 A 
ATOM      9  C   UNL     1      -3.590   7.742   0.591  0.00  0.00    +0.001 A 
ATOM     10  C   UNL     1      -2.385   8.433   0.588  0.00  0.00    +0.002 A 
ATOM     11  C   UNL     1      -1.190   7.758   0.473  0.00  0.00    +0.026 A 
ATOM     12  C   UNL     1      -1.183   6.370   0.361  0.00  0.00    +0.049 A 
ATOM     13  N   UNL     1       0.011   5.691   0.247  0.00  0.00    -0.321 N 
ATOM     14  H   UNL     1       0.961   6.246   0.239  0.00  0.00    +0.169 HD
ATOM     15  C   UNL     1       0.037   4.349   0.144  0.00  0.00    +0.261 A 
ATOM     16  O   UNL     1       1.103   3.768   0.049  0.00  0.00    -0.267 OA
ENDBRANCH   2   5
BRANCH   1  17
ATOM     17  C   UNL     1       0.000  -0.005   0.020  0.00  0.00    +0.140 C 
BRANCH  17  22
ATOM     18  C   UNL     1       4.964  -1.861  -2.284  0.00  0.00    +0.044 C 
ATOM     19  C   UNL     1       3.670  -1.377  -1.683  0.00  0.00    -0.050 A 
ATOM     20  C   UNL     1       2.485  -2.026  -1.979  0.00  0.00    +0.004 A 
ATOM     21  C   UNL     1       1.298  -1.582  -1.428  0.00  0.00    +0.006 A 
ATOM     22  C   UNL     1       1.295  -0.489  -0.581  0.00  0.00    -0.022 A 
ATOM     23  C   UNL     1       2.478   0.162  -0.289  0.00  0.00    +0.006 A 
ATOM     24  C   UNL     1       3.667  -0.285  -0.836  0.00  0.00    +0.004 A 
ENDBRANCH  17  22
BRANCH  17  25
ATOM     25  C   UNL     1      -0.119  -0.513   1.433  0.00  0.00    +0.014 A 
ATOM     26  C   UNL     1      -0.827  -1.569   1.904  0.00  0.00    +0.013 A 
ATOM     27  C   UNL     1      -0.788  -1.853   3.256  0.00  0.00    +0.008 A 
ATOM     28  C   UNL     1      -0.042  -1.068   4.072  0.00  0.00    +0.045 A 
ATOM     29  S   UNL     1       0.642   0.114   2.921  0.00  0.00    -0.099 S 
ENDBRANCH  17  25
ENDBRANCH   1  17
TORSDOF 4
