REMARK  Name = ZINC01584920
REMARK  6 active torsions:
REMARK  status: ('A' for Active; 'I' for Inactive)
REMARK    1  A    between atoms: C_1  and  C_2
REMARK    2  A    between atoms: C_3  and  C_20
REMARK    3  A    between atoms: C_8  and  N_13
REMARK    4  A    between atoms: C_10  and  C_12
REMARK    5  A    between atoms: N_13  and  C_14
REMARK    6  A    between atoms: C_20  and  C_21
REMARK                            x       y       z     vdW  Elec       q    Type
REMARK                         _______ _______ _______ _____ _____    ______ ____
ROOT
ATOM      1  C   UNL     1       1.194   8.198  -0.130  0.00  0.00    +0.046 C 
ATOM      2  C   UNL     1      -0.301   8.376  -0.195  0.00  0.00    -0.017 A 
ATOM      3  C   UNL     1      -0.966   9.538  -0.298  0.00  0.00    +0.026 A 
ATOM      4  N   UNL     1      -2.316   9.300  -0.329  0.00  0.00    -0.342 N 
ATOM      5  H   UNL     1      -3.000   9.985  -0.400  0.00  0.00    +0.167 HD
ATOM      6  C   UNL     1      -2.557   7.957  -0.244  0.00  0.00    +0.144 A 
ATOM      7  C   UNL     1      -1.307   7.316  -0.150  0.00  0.00    +0.062 A 
ATOM      8  C   UNL     1      -1.274   5.917  -0.058  0.00  0.00    +0.136 A 
ATOM      9  N   UNL     1      -2.428   5.256  -0.053  0.00  0.00    -0.217 NA
ATOM     10  C   UNL     1      -3.579   5.898  -0.138  0.00  0.00    +0.130 A 
ATOM     11  N   UNL     1      -3.659   7.208  -0.231  0.00  0.00    -0.215 NA
ATOM     12  C   UNL     1      -4.856   5.096  -0.127  0.00  0.00    +0.088 C 
ENDROOT
BRANCH   8  13
ATOM     13  N   UNL     1      -0.069   5.240   0.031  0.00  0.00    -0.299 N 
ATOM     14  H   UNL     1       0.767   5.725  -0.053  0.00  0.00    +0.154 HD
BRANCH  13  15
ATOM     15  C   UNL     1      -0.057   3.858   0.243  0.00  0.00    +0.032 A 
ATOM     16  C   UNL     1       0.924   3.072  -0.347  0.00  0.00    +0.023 A 
ATOM     17  C   UNL     1       0.933   1.708  -0.136  0.00  0.00    +0.002 A 
ATOM     18  C   UNL     1      -0.034   1.123   0.661  0.00  0.00    +0.000 A 
ATOM     19  C   UNL     1      -1.016   1.902   1.246  0.00  0.00    +0.002 A 
ATOM     20  C   UNL     1      -1.027   3.268   1.043  0.00  0.00    +0.023 A 
ENDBRANCH  13  15
ENDBRANCH   8  13
BRANCH   3  21
ATOM     21  C   UNL     1      -0.325  10.900  -0.371  0.00  0.00    +0.088 C 
BRANCH  21  22
ATOM     22  C   UNL     1       0.050  11.203  -1.798  0.00  0.00    -0.042 A 
ATOM     23  C   UNL     1       1.299  10.850  -2.275  0.00  0.00    +0.004 A 
ATOM     24  C   UNL     1       1.641  11.124  -3.586  0.00  0.00    +0.000 A 
ATOM     25  C   UNL     1       0.738  11.760  -4.418  0.00  0.00    +0.000 A 
ATOM     26  C   UNL     1      -0.508  12.118  -3.939  0.00  0.00    +0.000 A 
ATOM     27  C   UNL     1      -0.852  11.839  -2.630  0.00  0.00    +0.004 A 
ENDBRANCH  21  22
ENDBRANCH   3  21
TORSDOF 4
