REMARK  Name = ZINC31383245
REMARK  7 active torsions:
REMARK  status: ('A' for Active; 'I' for Inactive)
REMARK    1  A    between atoms: C_1  and  C_2
REMARK    2  A    between atoms: C_7  and  C_8
REMARK    3  A    between atoms: N_10  and  C_11
REMARK    4  A    between atoms: C_11  and  C_13
REMARK    5  A    between atoms: C_11  and  C_14
REMARK    6  A    between atoms: C_14  and  C_15
REMARK    7  A    between atoms: C_14  and  C_21
REMARK                            x       y       z     vdW  Elec       q    Type
REMARK                         _______ _______ _______ _____ _____    ______ ____
ROOT
ATOM      1  C   UNL     1       0.059   0.492  -1.222  0.00  0.00    +0.261 C 
ATOM      2  O   UNL     1      -0.979   0.003  -1.626  0.00  0.00    -0.269 OA
ATOM      3  N   UNL     1       0.052   1.714  -0.653  0.00  0.00    -0.307 N 
ATOM      4  H   UNL     1       0.990   2.155  -0.284  0.00  0.00    +0.149 HD
ENDROOT
BRANCH   1  11
ATOM      5  C   UNL     1       0.370  -2.346  -2.494  0.00  0.00    +0.047 C 
ATOM      6  C   UNL     1       1.463  -1.489  -1.910  0.00  0.00    -0.010 A 
ATOM      7  C   UNL     1       2.824  -1.810  -1.829  0.00  0.00    +0.042 A 
ATOM      8  C   UNL     1       3.476  -0.739  -1.218  0.00  0.00    +0.027 A 
ATOM      9  N   UNL     1       2.564   0.194  -0.945  0.00  0.00    -0.354 N 
ATOM     10  H   UNL     1       2.867   1.136  -0.465  0.00  0.00    +0.166 HD
ATOM     11  C   UNL     1       1.320  -0.248  -1.355  0.00  0.00    +0.106 A 
ATOM     12  C   UNL     1       4.960  -0.726  -0.956  0.00  0.00    +0.054 C 
ATOM     13  C   UNL     1       5.488  -2.164  -0.972  0.00  0.00    +0.014 C 
ATOM     14  C   UNL     1       5.071  -2.879  -2.260  0.00  0.00    +0.080 C 
ATOM     15  C   UNL     1       3.555  -3.008  -2.270  0.00  0.00    +0.165 C 
ATOM     16  O   UNL     1       2.990  -4.024  -2.616  0.00  0.00    -0.292 OA
ENDBRANCH   1  11
BRANCH   3  17
ATOM     17  C   UNL     1      -1.205   2.455  -0.526  0.00  0.00    +0.082 C 
ATOM     18  C   UNL     1      -1.480   3.219  -1.823  0.00  0.00    +0.029 C 
BRANCH  17  19
ATOM     19  C   UNL     1      -1.099   3.445   0.636  0.00  0.00    +0.069 C 
BRANCH  19  20
ATOM     20  C   UNL     1      -2.392   4.208   0.766  0.00  0.00    -0.038 A 
ATOM     21  C   UNL     1      -2.378   5.590   0.808  0.00  0.00    +0.004 A 
ATOM     22  C   UNL     1      -3.565   6.289   0.923  0.00  0.00    +0.000 A 
ATOM     23  C   UNL     1      -4.764   5.607   1.006  0.00  0.00    +0.000 A 
ATOM     24  C   UNL     1      -4.777   4.225   0.970  0.00  0.00    +0.000 A 
ATOM     25  C   UNL     1      -3.591   3.526   0.850  0.00  0.00    +0.004 A 
ENDBRANCH  19  20
BRANCH  19  26
ATOM     26  C   UNL     1      -0.828   2.693   1.913  0.00  0.00    -0.038 A 
ATOM     27  C   UNL     1      -1.643   1.639   2.281  0.00  0.00    +0.004 A 
ATOM     28  C   UNL     1      -1.392   0.947   3.450  0.00  0.00    +0.000 A 
ATOM     29  C   UNL     1      -0.332   1.314   4.257  0.00  0.00    +0.000 A 
ATOM     30  C   UNL     1       0.481   2.371   3.892  0.00  0.00    +0.000 A 
ATOM     31  C   UNL     1       0.233   3.061   2.720  0.00  0.00    +0.004 A 
ENDBRANCH  19  26
ENDBRANCH  17  19
ENDBRANCH   3  17
TORSDOF 5
