REMARK  Name = ZINC02197118
REMARK  5 active torsions:
REMARK  status: ('A' for Active; 'I' for Inactive)
REMARK    1  A    between atoms: C_1  and  C_2
REMARK    2  A    between atoms: C_4  and  C_22
REMARK    3  A    between atoms: C_4  and  C_23
REMARK    4  A    between atoms: N_5  and  S_12
REMARK    5  A    between atoms: S_12  and  C_15
REMARK                            x       y       z     vdW  Elec       q    Type
REMARK                         _______ _______ _______ _____ _____    ______ ____
ROOT
ATOM      1  C   UNL     1      -0.807   6.636   0.006  0.00  0.00    +0.044 C 
ATOM      2  C   UNL     1       0.366   5.745  -0.311  0.00  0.00    -0.043 C 
ATOM      3  C   UNL     1       1.546   6.275  -0.606  0.00  0.00    +0.004 C 
ATOM      4  C   UNL     1       2.728   5.405  -0.942  0.00  0.00    +0.070 C 
ATOM      5  N   UNL     1       2.605   4.108  -0.266  0.00  0.00    -0.193 N 
ATOM      6  C   UNL     1       1.360   3.475  -0.269  0.00  0.00    +0.060 A 
ATOM      7  C   UNL     1       0.208   4.277  -0.297  0.00  0.00    +0.000 A 
ATOM      8  C   UNL     1      -1.048   3.681  -0.308  0.00  0.00    +0.010 A 
ATOM      9  C   UNL     1      -1.150   2.303  -0.293  0.00  0.00    +0.001 A 
ATOM     10  C   UNL     1      -0.012   1.516  -0.257  0.00  0.00    +0.002 A 
ATOM     11  C   UNL     1       1.244   2.098  -0.248  0.00  0.00    +0.025 A 
ATOM     12  C   UNL     1       4.014   6.096  -0.483  0.00  0.00    +0.038 C 
ATOM     13  C   UNL     1       2.784   5.186  -2.455  0.00  0.00    +0.038 C 
ENDROOT
BRANCH   5  14
ATOM     14  S   UNL     1       3.909   3.412   0.481  0.00  0.00    +0.075 S 
ATOM     15  O   UNL     1       4.713   4.477   0.969  0.00  0.00    -0.150 OA
ATOM     16  O   UNL     1       3.396   2.394   1.330  0.00  0.00    -0.150 OA
BRANCH  14  17
ATOM     17  C   UNL     1       4.851   2.599  -0.766  0.00  0.00    +0.109 A 
ATOM     18  C   UNL     1       4.668   1.250  -1.002  0.00  0.00    +0.030 A 
ATOM     19  C   UNL     1       5.403   0.613  -1.984  0.00  0.00    +0.017 A 
ATOM     20  C   UNL     1       6.331   1.325  -2.724  0.00  0.00    +0.018 A 
ATOM     21  C   UNL     1       6.518   2.674  -2.484  0.00  0.00    +0.017 A 
ATOM     22  C   UNL     1       5.778   3.311  -1.505  0.00  0.00    +0.030 A 
ATOM     23 BR   UNL     1       7.343   0.453  -4.062  0.00  0.00    -0.050 Br
ENDBRANCH  14  17
ENDBRANCH   5  14
TORSDOF 2
