REMARK  Name = ZINC14461362
REMARK  11 active torsions:
REMARK  status: ('A' for Active; 'I' for Inactive)
REMARK    1  A    between atoms: C_1  and  C_2
REMARK    2  A    between atoms: C_2  and  N_3
REMARK    3  A    between atoms: N_3  and  C_4
REMARK    4  A    between atoms: N_3  and  C_6
REMARK    5  A    between atoms: C_4  and  C_5
REMARK    6  A    between atoms: C_9  and  C_12
REMARK    7  A    between atoms: C_23  and  S_28
REMARK    8  A    between atoms: S_28  and  N_31
REMARK    9  A    between atoms: N_31  and  C_32
REMARK   10  A    between atoms: N_31  and  C_33
REMARK   11  A    between atoms: C_33  and  C_34
REMARK                            x       y       z     vdW  Elec       q    Type
REMARK                         _______ _______ _______ _____ _____    ______ ____
ROOT
ATOM      1  C   UNL     1       3.136   0.573   0.513  0.00  0.00    +0.105 C 
ATOM      2  C   UNL     1       3.771   0.833   1.882  0.00  0.00    +0.029 C 
ATOM      3  C   UNL     1       2.705   0.483   2.962  0.00  0.00    +0.033 C 
ATOM      4  C   UNL     1       1.847   1.733   3.025  0.00  0.00    -0.030 C 
ATOM      5  C   UNL     1       2.508   2.767   2.564  0.00  0.00    -0.023 C 
ATOM      6  C   UNL     1       3.892   2.350   2.126  0.00  0.00    +0.049 C 
ATOM      7  C   UNL     1       4.332   3.103   0.911  0.00  0.00    -0.018 A 
ATOM      8  C   UNL     1       4.724   4.427   1.054  0.00  0.00    +0.034 A 
ATOM      9  C   UNL     1       5.140   5.157  -0.041  0.00  0.00    +0.106 A 
ATOM     10  C   UNL     1       5.168   4.577  -1.296  0.00  0.00    +0.030 A 
ATOM     11  C   UNL     1       4.779   3.262  -1.451  0.00  0.00    +0.025 A 
ATOM     12  C   UNL     1       4.361   2.526  -0.349  0.00  0.00    +0.031 A 
ATOM     13  N   UNL     1       3.968   1.195  -0.522  0.00  0.00    -0.336 N 
ATOM     14  H   UNL     1       4.240   0.695  -1.308  0.00  0.00    +0.147 HD
ENDROOT
BRANCH   1  18
ATOM     15  C   UNL     1      -0.784   2.272   0.409  0.00  0.00    +0.030 A 
ATOM     16  C   UNL     1      -0.605   0.959   0.826  0.00  0.00    +0.023 A 
ATOM     17  C   UNL     1       0.663   0.415   0.864  0.00  0.00    +0.007 A 
ATOM     18  C   UNL     1       1.754   1.172   0.477  0.00  0.00    -0.027 A 
ATOM     19  C   UNL     1       1.579   2.478   0.056  0.00  0.00    +0.007 A 
ATOM     20  C   UNL     1       0.313   3.030   0.021  0.00  0.00    +0.023 A 
BRANCH  15  21
ATOM     21  N   UNL     1      -2.066   2.827   0.375  0.00  0.00    -0.330 N 
BRANCH  21  23
ATOM     22  C   UNL     1      -3.462   2.206   2.285  0.00  0.00    +0.024 C 
ATOM     23  C   UNL     1      -3.222   2.026   0.785  0.00  0.00    +0.102 C 
ENDBRANCH  21  23
BRANCH  21  24
ATOM     24  C   UNL     1      -2.253   4.210  -0.070  0.00  0.00    +0.102 C 
ATOM     25  C   UNL     1      -2.482   4.232  -1.583  0.00  0.00    +0.024 C 
ENDBRANCH  21  24
ENDBRANCH  15  21
ENDBRANCH   1  18
BRANCH   9  26
ATOM     26  S   UNL     1       5.635   6.836   0.162  0.00  0.00    +0.061 S 
ATOM     27  O   UNL     1       5.351   7.494  -1.066  0.00  0.00    -0.153 OA
ATOM     28  O   UNL     1       5.096   7.272   1.402  0.00  0.00    -0.153 OA
BRANCH  26  29
ATOM     29  N   UNL     1       7.282   6.843   0.333  0.00  0.00    -0.175 NA
ATOM     30  C   UNL     1       7.883   6.610   1.648  0.00  0.00    +0.132 C 
BRANCH  29  31
ATOM     31  C   UNL     1       8.139   7.083  -0.832  0.00  0.00    +0.144 C 
BRANCH  31  32
ATOM     32  C   UNL     1       8.551   8.532  -0.862  0.00  0.00    -0.032 A 
ATOM     33  C   UNL     1       7.739   9.469  -1.473  0.00  0.00    +0.005 A 
ATOM     34  C   UNL     1       8.116  10.799  -1.497  0.00  0.00    +0.000 A 
ATOM     35  C   UNL     1       9.309  11.190  -0.918  0.00  0.00    +0.000 A 
ATOM     36  C   UNL     1      10.123  10.252  -0.311  0.00  0.00    +0.000 A 
ATOM     37  C   UNL     1       9.744   8.923  -0.283  0.00  0.00    +0.005 A 
ENDBRANCH  31  32
ENDBRANCH  29  31
ENDBRANCH  26  29
ENDBRANCH   9  26
TORSDOF 8
