REMARK  Name = ZINC01934903
REMARK  7 active torsions:
REMARK  status: ('A' for Active; 'I' for Inactive)
REMARK    1  A    between atoms: C_1  and  C_2
REMARK    2  A    between atoms: C_6  and  O_8
REMARK    3  A    between atoms: O_8  and  C_9
REMARK    4  A    between atoms: C_9  and  C_10
REMARK    5  A    between atoms: N_12  and  C_13
REMARK    6  A    between atoms: C_14  and  C_24
REMARK    7  A    between atoms: C_19  and  C_23
REMARK                            x       y       z     vdW  Elec       q    Type
REMARK                         _______ _______ _______ _____ _____    ______ ____
ROOT
ATOM      1  C   UNL     1      -0.017   1.382   0.010  0.00  0.00    +0.084 A 
ATOM      2  C   UNL     1      -1.116   2.230   0.019  0.00  0.00    +0.068 A 
ATOM      3  C   UNL     1      -0.861   3.660   0.030  0.00  0.00    -0.023 A 
ATOM      4  C   UNL     1       0.444   4.012   0.020  0.00  0.00    -0.004 A 
ATOM      5  S   UNL     1       1.326   2.477   0.003  0.00  0.00    -0.077 S 
ATOM      6  C   UNL     1       1.004   5.401   0.023  0.00  0.00    +0.046 C 
ATOM      7  C   UNL     1      -0.116   6.374   0.419  0.00  0.00    -0.009 C 
ATOM      8  C   UNL     1      -1.364   6.051  -0.408  0.00  0.00    +0.008 C 
ATOM      9  C   UNL     1      -1.958   4.717   0.045  0.00  0.00    +0.037 C 
ATOM     10  C   UNL     1       0.329   7.810   0.137  0.00  0.00    +0.008 C 
ENDROOT
BRANCH   2  11
ATOM     11  C   UNL     1      -2.483   1.701   0.021  0.00  0.00    +0.244 C 
ATOM     12  O   UNL     1      -3.047   1.476   1.075  0.00  0.00    -0.270 OA
ATOM     13  N   UNL     1      -3.116   1.465  -1.146  0.00  0.00    -0.325 N 
ATOM     14  H   UNL     1      -2.667   1.644  -1.986  0.00  0.00    +0.145 HD
ATOM     15  H   UNL     1      -4.021   1.115  -1.145  0.00  0.00    +0.145 HD
ENDBRANCH   2  11
BRANCH   1  18
ATOM     16  C   UNL     1       1.178  -0.662  -0.012  0.00  0.00    +0.255 C 
ATOM     17  O   UNL     1       2.220  -0.041  -0.018  0.00  0.00    -0.272 OA
ATOM     18  N   UNL     1       0.002  -0.004   0.002  0.00  0.00    -0.277 N 
ATOM     19  H   UNL     1      -0.831  -0.500   0.007  0.00  0.00    +0.155 HD
BRANCH  16  20
ATOM     20  C   UNL     1       1.199  -2.169  -0.021  0.00  0.00    +0.324 C 
BRANCH  20  21
ATOM     21  O   UNL     1       2.552  -2.627  -0.035  0.00  0.00    -0.483 OA
BRANCH  21  27
ATOM     22  C   UNL     1       5.633  -6.412  -0.084  0.00  0.00    +0.044 C 
ATOM     23  C   UNL     1       4.234  -5.853  -0.068  0.00  0.00    -0.047 A 
ATOM     24  C   UNL     1       3.148  -6.709  -0.062  0.00  0.00    +0.003 A 
ATOM     25  C   UNL     1       1.863  -6.199  -0.047  0.00  0.00    +0.004 A 
ATOM     26  C   UNL     1       1.661  -4.832  -0.033  0.00  0.00    +0.045 A 
ATOM     27  C   UNL     1       2.749  -3.971  -0.044  0.00  0.00    +0.121 A 
ATOM     28  C   UNL     1       4.037  -4.486  -0.059  0.00  0.00    +0.049 A 
ENDBRANCH  21  27
ENDBRANCH  20  21
ENDBRANCH  16  20
ENDBRANCH   1  18
TORSDOF 5
