REMARK  Name = ZINC09359004
REMARK  12 active torsions:
REMARK  status: ('A' for Active; 'I' for Inactive)
REMARK    1  A    between atoms: C_1  and  C_2
REMARK    2  A    between atoms: C_2  and  N_61
REMARK    3  A    between atoms: C_3  and  C_4
REMARK    4  A    between atoms: C_3  and  N_61
REMARK    5  A    between atoms: C_5  and  C_6
REMARK    6  A    between atoms: C_5  and  N_61
REMARK    7  A    between atoms: C_6  and  C_7
REMARK    8  A    between atoms: C_7  and  C_8
REMARK    9  A    between atoms: C_8  and  C_10
REMARK   10  A    between atoms: C_8  and  N_11
REMARK   11  A    between atoms: C_20  and  C_22
REMARK   12  A    between atoms: C_23  and  C_24
REMARK                            x       y       z     vdW  Elec       q    Type
REMARK                         _______ _______ _______ _____ _____    ______ ____
ROOT
ATOM      1  N   UNL     1       3.452  -0.866  -0.049  0.00  0.00    -0.326 N 
ATOM      2  C   UNL     1       2.276  -0.147  -0.037  0.00  0.00    +0.131 A 
ATOM      3  C   UNL     1       2.292   1.271  -0.039  0.00  0.00    +0.040 A 
ATOM      4  C   UNL     1       3.487   1.998  -0.051  0.00  0.00    +0.015 A 
ATOM      5  C   UNL     1       3.446   3.361  -0.052  0.00  0.00    +0.021 A 
ATOM      6  C   UNL     1       2.229   4.040  -0.040  0.00  0.00    +0.043 A 
ATOM      7  C   UNL     1       1.046   3.361  -0.028  0.00  0.00    +0.048 A 
ATOM      8  C   UNL     1       1.052   1.959  -0.027  0.00  0.00    +0.078 A 
ATOM      9  N   UNL     1      -0.082   1.246  -0.015  0.00  0.00    -0.228 NA
ATOM     10  C   UNL     1      -0.041  -0.077  -0.014  0.00  0.00    +0.155 A 
ATOM     11  N   UNL     1       1.105  -0.762  -0.025  0.00  0.00    -0.213 NA
ATOM     12 CL   UNL     1       2.218   5.776  -0.041  0.00  0.00    -0.083 Cl
ATOM     13  H   UNL     1       4.304  -0.403  -0.058  0.00  0.00    +0.148 HD
ENDROOT
BRANCH   1  14
ATOM     14  C   UNL     1       3.415  -2.331  -0.048  0.00  0.00    +0.069 C 
ATOM     15  C   UNL     1       3.291  -2.837   1.391  0.00  0.00    +0.028 C 
BRANCH  14  16
ATOM     16  C   UNL     1       4.702  -2.874  -0.670  0.00  0.00    +0.020 C 
BRANCH  16  17
ATOM     17  C   UNL     1       4.765  -2.473  -2.145  0.00  0.00    -0.017 C 
BRANCH  17  18
ATOM     18  C   UNL     1       6.052  -3.016  -2.768  0.00  0.00    -0.079 C 
BRANCH  18  19
ATOM     19  N   UNL     1       6.028  -2.742  -4.220  0.00  0.00    +0.379 N 
ATOM     20  H   UNL     1       5.087  -2.937  -4.581  0.00  0.00    -0.082 HD
BRANCH  19  22
ATOM     21  C   UNL     1       6.106  -1.014  -5.950  0.00  0.00    -0.017 C 
ATOM     22  C   UNL     1       6.355  -1.323  -4.472  0.00  0.00    -0.082 C 
ENDBRANCH  19  22
BRANCH  19  23
ATOM     23  C   UNL     1       6.998  -3.615  -4.915  0.00  0.00    -0.082 C 
ATOM     24  C   UNL     1       6.399  -5.018  -5.033  0.00  0.00    -0.017 C 
ENDBRANCH  19  23
ENDBRANCH  18  19
ENDBRANCH  17  18
ENDBRANCH  16  17
ENDBRANCH  14  16
ENDBRANCH   1  14
BRANCH  10  25
ATOM     25  C   UNL     1      -1.310  -0.822   0.001  0.00  0.00    +0.049 C 
ATOM     26  C   UNL     1      -2.479  -0.159   0.012  0.00  0.00    +0.014 C 
BRANCH  26  27
ATOM     27  C   UNL     1      -3.748  -0.904   0.027  0.00  0.00    +0.012 A 
ATOM     28  C   UNL     1      -3.973  -1.928  -0.900  0.00  0.00    +0.051 A 
ATOM     29  C   UNL     1      -5.163  -2.626  -0.877  0.00  0.00    +0.040 A 
ATOM     30  C   UNL     1      -6.139  -2.308   0.053  0.00  0.00    +0.044 A 
ATOM     31  C   UNL     1      -5.926  -1.292   0.970  0.00  0.00    +0.040 A 
ATOM     32  C   UNL     1      -4.739  -0.589   0.964  0.00  0.00    +0.051 A 
ATOM     33 CL   UNL     1      -4.474   0.684   2.114  0.00  0.00    -0.083 Cl
ATOM     34 CL   UNL     1      -7.636  -3.187   0.070  0.00  0.00    -0.083 Cl
ATOM     35 CL   UNL     1      -2.755  -2.324  -2.072  0.00  0.00    -0.083 Cl
ENDBRANCH  26  27
ENDBRANCH  10  25
TORSDOF 9
