REMARK  Name = ZINC20234661
REMARK  3 active torsions:
REMARK  status: ('A' for Active; 'I' for Inactive)
REMARK    1  A    between atoms: C_1  and  C_2
REMARK    2  A    between atoms: C_7  and  C_8
REMARK    3  A    between atoms: N_12  and  C_13
REMARK                            x       y       z     vdW  Elec       q    Type
REMARK                         _______ _______ _______ _____ _____    ______ ____
ROOT
ATOM      1  C   UNL     1      -0.622   3.898  -0.965  0.00  0.00    +0.047 C 
ATOM      2  C   UNL     1       0.773   4.258  -0.523  0.00  0.00    -0.005 A 
ATOM      3  C   UNL     1       1.280   5.527  -0.740  0.00  0.00    +0.120 A 
ATOM      4  N   UNL     1       2.509   5.811  -0.341  0.00  0.00    -0.222 NA
ATOM      5  C   UNL     1       3.259   4.900   0.263  0.00  0.00    +0.218 A 
ATOM      6  N   UNL     1       2.814   3.676   0.496  0.00  0.00    -0.213 NA
ATOM      7  C   UNL     1       1.587   3.317   0.116  0.00  0.00    +0.097 A 
ATOM      8  N   UNL     1       4.540   5.239   0.665  0.00  0.00    -0.300 N 
ATOM      9  C   UNL     1       4.724   4.989   2.100  0.00  0.00    +0.109 C 
ATOM     10  C   UNL     1       6.189   5.227   2.475  0.00  0.00    +0.034 C 
ATOM     11  C   UNL     1       6.574   6.663   2.124  0.00  0.00    +0.017 C 
ATOM     12  C   UNL     1       6.314   6.928   0.642  0.00  0.00    +0.034 C 
ATOM     13  C   UNL     1       4.845   6.635   0.325  0.00  0.00    +0.109 C 
ATOM     14  C   UNL     1       5.791   7.634   2.972  0.00  0.00    -0.015 C 
ATOM     15  C   UNL     1       6.649   8.340   3.689  0.00  0.00    +0.005 C 
ATOM     16  C   UNL     1       8.038   7.931   3.406  0.00  0.00    -0.021 A 
ATOM     17  C   UNL     1       8.024   6.910   2.453  0.00  0.00    -0.030 A 
ATOM     18  C   UNL     1       9.200   6.351   2.013  0.00  0.00    +0.005 A 
ATOM     19  C   UNL     1      10.410   6.799   2.516  0.00  0.00    +0.000 A 
ATOM     20  C   UNL     1      10.438   7.809   3.461  0.00  0.00    +0.001 A 
ATOM     21  C   UNL     1       9.263   8.377   3.908  0.00  0.00    +0.008 A 
ENDROOT
BRANCH   7  22
ATOM     22  C   UNL     1       1.093   1.947   0.372  0.00  0.00    +0.087 A 
ATOM     23  C   UNL     1      -0.009   1.608   1.106  0.00  0.00    +0.051 A 
ATOM     24  C   UNL     1      -0.117   0.218   1.097  0.00  0.00    +0.135 A 
ATOM     25  N   UNL     1       0.871  -0.274   0.393  0.00  0.00    -0.179 NA
ATOM     26  N   UNL     1       1.653   0.788  -0.079  0.00  0.00    -0.265 N 
ATOM     27  C   UNL     1       2.858   0.674  -0.903  0.00  0.00    +0.173 C 
ENDBRANCH   7  22
TORSDOF 1
