REMARK  Name = ZINC17904061
REMARK  9 active torsions:
REMARK  status: ('A' for Active; 'I' for Inactive)
REMARK    1  A    between atoms: C_1  and  C_2
REMARK    2  A    between atoms: C_2  and  C_3
REMARK    3  A    between atoms: C_8  and  N_9
REMARK    4  A    between atoms: C_10  and  C_12
REMARK    5  A    between atoms: C_12  and  N_13
REMARK    6  A    between atoms: N_13  and  C_14
REMARK    7  A    between atoms: C_15  and  C_17
REMARK    8  A    between atoms: N_20  and  S_23
REMARK    9  A    between atoms: S_23  and  C_26
REMARK                            x       y       z     vdW  Elec       q    Type
REMARK                         _______ _______ _______ _____ _____    ______ ____
ROOT
ATOM      1  C   UNL     1       1.399   2.055   0.008  0.00  0.00    +0.078 C 
ATOM      2  C   UNL     1      -0.038   1.530   0.030  0.00  0.00    +0.030 C 
ATOM      3  C   UNL     1      -0.019  -0.002   0.022  0.00  0.00    +0.110 C 
ATOM      4  N   UNL     1       0.772  -0.458  -1.129  0.00  0.00    -0.177 NA
ATOM      5  C   UNL     1       2.138   0.057  -1.296  0.00  0.00    +0.110 C 
ATOM      6  C   UNL     1       2.095   1.588  -1.273  0.00  0.00    +0.030 C 
ENDROOT
BRANCH   1   9
ATOM      7  N   UNL     1       2.545   4.247   0.040  0.00  0.00    -0.295 N 
ATOM      8  C   UNL     1       3.820   3.527  -0.013  0.00  0.00    +0.132 C 
ATOM      9  C   UNL     1       1.385   3.561   0.051  0.00  0.00    +0.219 C 
ATOM     10  O   UNL     1       0.329   4.156   0.095  0.00  0.00    -0.275 OA
BRANCH   7  11
ATOM     11  C   UNL     1       2.531   5.711   0.082  0.00  0.00    +0.203 C 
BRANCH  11  13
ATOM     12  N   UNL     1       2.557   7.490   1.800  0.00  0.00    -0.284 N 
ATOM     13  C   UNL     1       2.563   6.173   1.516  0.00  0.00    +0.235 C 
ATOM     14  O   UNL     1       2.595   5.359   2.415  0.00  0.00    -0.274 OA
ATOM     15  H   UNL     1       2.613   8.141   1.083  0.00  0.00    +0.155 HD
BRANCH  12  21
ATOM     16  C   UNL     1       2.958   9.168   3.490  0.00  0.00    -0.026 A 
ATOM     17  C   UNL     1       2.870   9.588   4.803  0.00  0.00    +0.005 A 
ATOM     18  C   UNL     1       2.297   8.768   5.757  0.00  0.00    +0.000 A 
ATOM     19  C   UNL     1       1.809   7.524   5.400  0.00  0.00    +0.002 A 
ATOM     20  C   UNL     1       1.889   7.099   4.088  0.00  0.00    +0.023 A 
ATOM     21  C   UNL     1       2.470   7.919   3.129  0.00  0.00    +0.037 A 
BRANCH  16  23
ATOM     22  C   UNL     1       2.487  10.861   1.741  0.00  0.00    +0.009 C 
ATOM     23  C   UNL     1       3.582  10.063   2.452  0.00  0.00    +0.033 C 
ENDBRANCH  16  23
ENDBRANCH  12  21
ENDBRANCH  11  13
ENDBRANCH   7  11
ENDBRANCH   1   9
BRANCH   4  24
ATOM     24  S   UNL     1       0.136  -1.531  -2.218  0.00  0.00    +0.061 S 
ATOM     25  O   UNL     1       1.237  -2.185  -2.834  0.00  0.00    -0.153 OA
ATOM     26  O   UNL     1      -0.888  -2.242  -1.536  0.00  0.00    -0.153 OA
BRANCH  24  27
ATOM     27  C   UNL     1      -0.658  -0.588  -3.477  0.00  0.00    +0.106 A 
ATOM     28  C   UNL     1      -2.004  -0.253  -3.337  0.00  0.00    +0.029 A 
ATOM     29  C   UNL     1      -2.646   0.479  -4.288  0.00  0.00    +0.010 A 
ATOM     30  C   UNL     1      -1.947   0.895  -5.434  0.00  0.00    -0.018 A 
ATOM     31  C   UNL     1      -2.578   1.647  -6.441  0.00  0.00    +0.008 A 
ATOM     32  C   UNL     1      -1.870   2.033  -7.537  0.00  0.00    +0.001 A 
ATOM     33  C   UNL     1      -0.525   1.693  -7.679  0.00  0.00    +0.001 A 
ATOM     34  C   UNL     1       0.118   0.966  -6.725  0.00  0.00    +0.008 A 
ATOM     35  C   UNL     1      -0.580   0.550  -5.579  0.00  0.00    -0.016 A 
ATOM     36  C   UNL     1       0.050  -0.202  -4.573  0.00  0.00    +0.037 A 
ENDBRANCH  24  27
ENDBRANCH   4  24
TORSDOF 7
