REMARK  Name = ZINC50593411
REMARK  5 active torsions:
REMARK  status: ('A' for Active; 'I' for Inactive)
REMARK    1  A    between atoms: C_1  and  C_2
REMARK    2  A    between atoms: C_4  and  C_19
REMARK    3  A    between atoms: C_7  and  C_8
REMARK    4  A    between atoms: C_12  and  C_18
REMARK    5  A    between atoms: C_14  and  C_16
REMARK                            x       y       z     vdW  Elec       q    Type
REMARK                         _______ _______ _______ _____ _____    ______ ____
ROOT
ATOM      1  C   UNL     1      -0.018   1.503   0.010  0.00  0.00    +0.044 C 
ATOM      2  C   UNL     1       0.002  -0.004   0.002  0.00  0.00    -0.035 A 
ATOM      3  C   UNL     1       0.006  -0.707  -1.190  0.00  0.00    +0.027 A 
ATOM      4  C   UNL     1       0.026  -2.090  -1.165  0.00  0.00    +0.041 A 
ATOM      5  N   UNL     1       0.040  -2.751  -0.024  0.00  0.00    -0.232 NA
ATOM      6  C   UNL     1       0.037  -2.128   1.142  0.00  0.00    +0.165 A 
ATOM      7  C   UNL     1       0.023  -0.727   1.199  0.00  0.00    +0.059 A 
ATOM      8  N   UNL     1       0.052  -2.869   2.323  0.00  0.00    -0.217 N 
ATOM      9  C   UNL     1       0.075  -4.226   2.418  0.00  0.00    +0.058 A 
ATOM     10  C   UNL     1       0.083  -4.544   3.732  0.00  0.00    +0.062 A 
ATOM     11  C   UNL     1       0.064  -3.350   4.465  0.00  0.00    +0.075 A 
ATOM     12  N   UNL     1       0.051  -2.349   3.624  0.00  0.00    -0.169 NA
ATOM     13  C   UNL     1       0.065  -3.239   5.968  0.00  0.00    +0.069 C 
ATOM     14 BR   UNL     1       0.115  -6.291   4.454  0.00  0.00    -0.047 Br
ATOM     15  C   UNL     1       0.090  -5.198   1.266  0.00  0.00    +0.067 C 
ATOM     16  C   UNL     1       0.030  -2.854  -2.464  0.00  0.00    +0.065 C 
ENDROOT
BRANCH   7  17
ATOM     17  C   UNL     1       0.026  -0.027   2.500  0.00  0.00    +0.098 C 
ATOM     18  N   UNL     1       1.065   0.732   2.846  0.00  0.00    -0.387 N 
ATOM     19  N   UNL     1      -1.010  -0.155   3.328  0.00  0.00    -0.344 N 
ATOM     20  H   UNL     1       1.819   0.825   2.244  0.00  0.00    +0.157 HD
ATOM     21  H   UNL     1      -1.766  -0.708   3.076  0.00  0.00    +0.144 HD
ATOM     22  H   UNL     1      -1.008   0.304   4.182  0.00  0.00    +0.144 HD
ATOM     23  H   UNL     1       1.067   1.192   3.700  0.00  0.00    +0.157 HD
ENDBRANCH   7  17
TORSDOF 1
