REMARK  Name = ZINC40779909
REMARK  5 active torsions:
REMARK  status: ('A' for Active; 'I' for Inactive)
REMARK    1  A    between atoms: C_1  and  C_2
REMARK    2  A    between atoms: C_4  and  O_9
REMARK    3  A    between atoms: O_9  and  C_10
REMARK    4  A    between atoms: C_11  and  N_24
REMARK    5  A    between atoms: C_12  and  N_16
REMARK                            x       y       z     vdW  Elec       q    Type
REMARK                         _______ _______ _______ _____ _____    ______ ____
ROOT
ATOM      1  C   UNL     1       0.105  -4.102  -2.352  0.00  0.00    +0.246 A 
ATOM      2  C   UNL     1       0.239  -4.836  -3.530  0.00  0.00    +0.128 A 
ATOM      3  C   UNL     1       0.381  -6.222  -3.432  0.00  0.00    +0.152 A 
ATOM      4  N   UNL     1       0.382  -6.785  -2.227  0.00  0.00    -0.218 NA
ATOM      5  C   UNL     1       0.252  -6.054  -1.138  0.00  0.00    +0.227 A 
ATOM      6  N   UNL     1       0.121  -4.744  -1.188  0.00  0.00    -0.199 NA
ENDROOT
BRANCH   3   7
ATOM      7  N   UNL     1       0.518  -7.001  -4.576  0.00  0.00    -0.283 N 
ATOM      8  C   UNL     1       0.537  -8.389  -4.474  0.00  0.00    +0.124 A 
ATOM      9  C   UNL     1       0.554  -9.164  -5.629  0.00  0.00    +0.045 A 
ATOM     10  C   UNL     1       0.574 -10.542  -5.514  0.00  0.00    +0.020 A 
ATOM     11  C   UNL     1       0.575 -11.102  -4.242  0.00  0.00    +0.036 A 
ATOM     12  C   UNL     1       0.558 -10.271  -3.139  0.00  0.00    +0.128 A 
ATOM     13  N   UNL     1       0.545  -8.959  -3.279  0.00  0.00    -0.239 NA
ATOM     14 BR   UNL     1       0.601 -12.980  -4.024  0.00  0.00    -0.049 Br
ATOM     15  H   UNL     1       0.601  -6.577  -5.444  0.00  0.00    +0.155 HD
ENDBRANCH   3   7
BRANCH   2  16
ATOM     16  N   UNL     1       0.233  -4.199  -4.781  0.00  0.00    -0.351 N 
ATOM     17  H   UNL     1       0.133  -3.236  -4.834  0.00  0.00    +0.143 HD
ATOM     18  H   UNL     1       0.327  -4.722  -5.592  0.00  0.00    +0.143 HD
ENDBRANCH   2  16
BRANCH   1  19
ATOM     19  O   UNL     1      -0.035  -2.753  -2.393  0.00  0.00    -0.436 OA
BRANCH  19  23
ATOM     20  C   UNL     1       2.336  -1.115   1.546  0.00  0.00    +0.045 C 
ATOM     21  C   UNL     1       1.075  -1.259   0.733  0.00  0.00    -0.029 A 
ATOM     22  C   UNL     1       1.102  -1.946  -0.466  0.00  0.00    +0.051 A 
ATOM     23  C   UNL     1      -0.059  -2.078  -1.214  0.00  0.00    +0.131 A 
ATOM     24  C   UNL     1      -1.244  -1.520  -0.756  0.00  0.00    +0.048 A 
ATOM     25  C   UNL     1      -1.266  -0.835   0.443  0.00  0.00    +0.024 A 
ATOM     26  C   UNL     1      -0.108  -0.708   1.190  0.00  0.00    +0.044 A 
ATOM     27 CL   UNL     1      -0.140   0.149   2.699  0.00  0.00    -0.083 Cl
ENDBRANCH  19  23
ENDBRANCH   1  19
TORSDOF 4
