REMARK  Name = ZINC39715599
REMARK  9 active torsions:
REMARK  status: ('A' for Active; 'I' for Inactive)
REMARK    1  A    between atoms: C_1  and  C_2
REMARK    2  A    between atoms: C_2  and  N_3
REMARK    3  A    between atoms: C_7  and  C_30
REMARK    4  A    between atoms: C_11  and  C_13
REMARK    5  A    between atoms: C_13  and  S_14
REMARK    6  A    between atoms: S_14  and  C_15
REMARK    7  A    between atoms: C_18  and  C_21
REMARK    8  A    between atoms: C_21  and  O_22
REMARK    9  A    between atoms: O_22  and  C_23
REMARK                            x       y       z     vdW  Elec       q    Type
REMARK                         _______ _______ _______ _____ _____    ______ ____
ROOT
ATOM      1  C   UNL     1       2.926   0.531  -1.074  0.00  0.00    +0.119 C 
ENDROOT
BRANCH   1  10
ATOM      2  N   UNL     1       0.688  -0.476  -1.203  0.00  0.00    -0.310 N 
ATOM      3  C   UNL     1       0.096  -0.747  -2.436  0.00  0.00    +0.052 A 
ATOM      4  C   UNL     1      -1.236  -0.647  -2.837  0.00  0.00    +0.026 A 
ATOM      5  C   UNL     1      -1.601  -0.971  -4.123  0.00  0.00    +0.017 A 
ATOM      6  C   UNL     1      -0.634  -1.403  -5.037  0.00  0.00    +0.065 A 
ATOM      7  C   UNL     1       0.703  -1.504  -4.638  0.00  0.00    +0.040 A 
ATOM      8  C   UNL     1       1.065  -1.177  -3.343  0.00  0.00    +0.051 A 
ATOM      9  N   UNL     1       2.321  -1.197  -2.718  0.00  0.00    -0.324 N 
ATOM     10  C   UNL     1       2.124  -0.746  -1.335  0.00  0.00    +0.169 C 
ATOM     11  H   UNL     1       3.162  -1.458  -3.124  0.00  0.00    +0.148 HD
BRANCH   6  12
ATOM     12  C   UNL     1      -1.022  -1.750  -6.413  0.00  0.00    +0.387 C 
ATOM     13  O   UNL     1      -2.192  -1.661  -6.760  0.00  0.00    -0.241 OA
ATOM     14  O   UNL     1      -0.175  -2.127  -7.211  0.00  0.00    -0.241 OA
ENDBRANCH   6  12
BRANCH   2  16
ATOM     15  C   UNL     1      -0.019   1.526   0.010  0.00  0.00    +0.024 C 
ATOM     16  C   UNL     1       0.002  -0.004   0.002  0.00  0.00    +0.103 C 
ENDBRANCH   2  16
ENDBRANCH   1  10
BRANCH   1  17
ATOM     17  S   UNL     1       2.448   1.802  -2.276  0.00  0.00    -0.083 S 
BRANCH  17  18
ATOM     18  C   UNL     1       3.446   3.190  -1.849  0.00  0.00    +0.185 A 
ATOM     19  H   UNL     1       2.907   4.651  -3.232  0.00  0.00    +0.191 HD
ATOM     20  N   UNL     1       4.325   3.241  -0.870  0.00  0.00    -0.202 NA
ATOM     21  C   UNL     1       4.894   4.447  -0.840  0.00  0.00    +0.189 A 
ATOM     22  N   UNL     1       4.389   5.183  -1.794  0.00  0.00    -0.153 NA
ATOM     23  N   UNL     1       3.449   4.389  -2.471  0.00  0.00    -0.253 N 
BRANCH  21  24
ATOM     24  C   UNL     1       5.949   4.890   0.140  0.00  0.00    +0.306 C 
BRANCH  24  25
ATOM     25  O   UNL     1       7.244   4.598  -0.391  0.00  0.00    -0.484 OA
BRANCH  25  26
ATOM     26  C   UNL     1       8.315   4.938   0.374  0.00  0.00    +0.121 A 
ATOM     27  C   UNL     1       8.123   5.534   1.612  0.00  0.00    +0.047 A 
ATOM     28  C   UNL     1       9.213   5.878   2.388  0.00  0.00    +0.023 A 
ATOM     29  C   UNL     1      10.495   5.629   1.931  0.00  0.00    +0.041 A 
ATOM     30  C   UNL     1      10.688   5.035   0.697  0.00  0.00    +0.023 A 
ATOM     31  C   UNL     1       9.601   4.683  -0.079  0.00  0.00    +0.047 A 
ATOM     32 CL   UNL     1      11.863   6.062   2.908  0.00  0.00    -0.084 Cl
ENDBRANCH  25  26
ENDBRANCH  24  25
ENDBRANCH  21  24
ENDBRANCH  17  18
ENDBRANCH   1  17
TORSDOF 8
