REMARK  Name = ZINC18176854
REMARK  11 active torsions:
REMARK  status: ('A' for Active; 'I' for Inactive)
REMARK    1  A    between atoms: C_1  and  C_2
REMARK    2  A    between atoms: C_2  and  C_3
REMARK    3  A    between atoms: C_3  and  C_4
REMARK    4  A    between atoms: C_4  and  O_5
REMARK    5  A    between atoms: O_5  and  C_6
REMARK    6  A    between atoms: C_9  and  C_15
REMARK    7  A    between atoms: C_11  and  O_12
REMARK    8  A    between atoms: O_12  and  C_13
REMARK    9  A    between atoms: C_13  and  C_14
REMARK   10  A    between atoms: N_23  and  C_26
REMARK   11  A    between atoms: N_34  and  C_35
REMARK                            x       y       z     vdW  Elec       q    Type
REMARK                         _______ _______ _______ _____ _____    ______ ____
ROOT
ATOM      1  C   UNL     1      -3.360  -8.145   0.020  0.00  0.00    +0.157 C 
ATOM      2  C   UNL     1      -3.164  -8.713  -1.405  0.00  0.00    +0.145 C 
ATOM      3  C   UNL     1      -1.690  -9.201  -1.399  0.00  0.00    +0.249 C 
ATOM      4  C   UNL     1      -1.025  -8.309  -2.425  0.00  0.00    +0.259 C 
ATOM      5  O   UNL     1       0.140  -8.369  -2.756  0.00  0.00    -0.272 OA
ATOM      6  N   UNL     1      -1.923  -7.443  -2.909  0.00  0.00    -0.208 N 
ATOM      7  C   UNL     1      -3.172  -7.577  -2.402  0.00  0.00    +0.235 C 
ATOM      8  O   UNL     1      -4.139  -6.904  -2.690  0.00  0.00    -0.274 OA
ATOM      9  O   UNL     1      -1.183  -8.889  -0.089  0.00  0.00    -0.257 OA
ATOM     10  N   UNL     1      -2.299  -8.831   0.798  0.00  0.00    -0.244 N 
ENDROOT
BRANCH   6  11
ATOM     11  C   UNL     1      -1.600  -6.475  -3.872  0.00  0.00    +0.044 A 
ATOM     12  C   UNL     1      -2.146  -6.554  -5.146  0.00  0.00    +0.025 A 
ATOM     13  C   UNL     1      -1.827  -5.600  -6.092  0.00  0.00    +0.022 A 
ATOM     14  C   UNL     1      -0.964  -4.566  -5.771  0.00  0.00    +0.041 A 
ATOM     15  C   UNL     1      -0.419  -4.486  -4.501  0.00  0.00    +0.022 A 
ATOM     16  C   UNL     1      -0.740  -5.434  -3.550  0.00  0.00    +0.025 A 
ATOM     17 CL   UNL     1      -0.565  -3.368  -6.962  0.00  0.00    -0.084 Cl
ENDBRANCH   6  11
BRANCH   1  21
ATOM     18  C   UNL     1      -2.763  -3.910   0.058  0.00  0.00    +0.162 A 
ATOM     19  C   UNL     1      -1.674  -4.766   0.016  0.00  0.00    +0.050 A 
ATOM     20  C   UNL     1      -1.870  -6.134   0.004  0.00  0.00    +0.009 A 
ATOM     21  C   UNL     1      -3.151  -6.652   0.033  0.00  0.00    -0.018 A 
ATOM     22  C   UNL     1      -4.242  -5.804   0.074  0.00  0.00    +0.055 A 
ATOM     23  C   UNL     1      -4.052  -4.432   0.093  0.00  0.00    +0.162 A 
BRANCH  18  24
ATOM     24  O   UNL     1      -2.571  -2.564   0.070  0.00  0.00    -0.488 OA
BRANCH  24  25
ATOM     25  C   UNL     1      -1.220  -2.100   0.032  0.00  0.00    +0.229 C 
BRANCH  25  26
ATOM     26  C   UNL     1      -1.205  -0.570   0.052  0.00  0.00    +0.041 C 
BRANCH  26  28
ATOM     27  C   UNL     1       0.256   1.456   0.032  0.00  0.00    +0.004 C 
ATOM     28  C   UNL     1       0.241  -0.074   0.012  0.00  0.00    -0.000 C 
ENDBRANCH  26  28
ENDBRANCH  25  26
ENDBRANCH  24  25
ENDBRANCH  18  24
BRANCH  23  29
ATOM     29  O   UNL     1      -5.124  -3.596   0.139  0.00  0.00    -0.489 OA
BRANCH  29  30
ATOM     30  C   UNL     1      -6.418  -4.202   0.173  0.00  0.00    +0.226 C 
ATOM     31  C   UNL     1      -7.490  -3.111   0.223  0.00  0.00    +0.048 C 
ENDBRANCH  29  30
ENDBRANCH  23  29
ENDBRANCH   1  21
BRANCH  10  32
ATOM     32  C   UNL     1      -2.380  -9.322   2.103  0.00  0.00    +0.065 A 
ATOM     33  C   UNL     1      -3.561  -9.197   2.823  0.00  0.00    +0.028 A 
ATOM     34  C   UNL     1      -3.637  -9.684   4.113  0.00  0.00    +0.002 A 
ATOM     35  C   UNL     1      -2.538 -10.296   4.688  0.00  0.00    +0.000 A 
ATOM     36  C   UNL     1      -1.361 -10.423   3.974  0.00  0.00    +0.002 A 
ATOM     37  C   UNL     1      -1.280  -9.943   2.682  0.00  0.00    +0.028 A 
ENDBRANCH  10  32
TORSDOF 9
