REMARK  Name = ZINC46796976
REMARK  6 active torsions:
REMARK  status: ('A' for Active; 'I' for Inactive)
REMARK    1  A    between atoms: C_16  and  C_19
REMARK    2  A    between atoms: N_21  and  C_22
REMARK    3  A    between atoms: C_22  and  C_23
REMARK    4  A    between atoms: C_26  and  O_29
REMARK    5  A    between atoms: O_29  and  C_30
REMARK    6  A    between atoms: C_30  and  C_31
REMARK                            x       y       z     vdW  Elec       q    Type
REMARK                         _______ _______ _______ _____ _____    ______ ____
ROOT
ATOM      1  C   UNL     1       0.066  -6.553  -1.339  0.00  0.00    +0.218 C 
ATOM      2  O   UNL     1       0.775  -7.114  -0.531  0.00  0.00    -0.275 OA
ATOM      3  N   UNL     1      -0.579  -7.269  -2.281  0.00  0.00    -0.311 N 
ATOM      4  H   UNL     1      -1.146  -6.820  -2.928  0.00  0.00    +0.149 HD
ENDROOT
BRANCH   1  20
ATOM      5  C   UNL     1       0.256   1.051  -1.729  0.00  0.00    +0.001 A 
ATOM      6  C   UNL     1       1.415   1.800  -1.627  0.00  0.00    +0.002 A 
ATOM      7  C   UNL     1       2.534   1.248  -1.019  0.00  0.00    +0.030 A 
ATOM      8  C   UNL     1       2.477  -0.025  -0.531  0.00  0.00    +0.123 A 
ATOM      9  C   UNL     1       1.318  -0.808  -0.619  0.00  0.00    +0.043 A 
ATOM     10  C   UNL     1       0.197  -0.233  -1.237  0.00  0.00    +0.013 A 
ATOM     11  C   UNL     1       1.502  -2.140  -0.024  0.00  0.00    +0.152 C 
ATOM     12  N   UNL     1       2.647  -2.449   0.496  0.00  0.00    -0.113 NA
ATOM     13  S   UNL     1       3.619  -1.101   0.294  0.00  0.00    +0.101 S 
ATOM     14  O   UNL     1       4.641  -1.439  -0.633  0.00  0.00    -0.146 OA
ATOM     15  O   UNL     1       3.876  -0.555   1.580  0.00  0.00    -0.146 OA
ATOM     16  N   UNL     1       0.467  -3.050  -0.018  0.00  0.00    -0.313 N 
ATOM     17  C   UNL     1      -0.926  -2.598   0.102  0.00  0.00    +0.106 C 
ATOM     18  C   UNL     1      -1.736  -3.185  -1.058  0.00  0.00    +0.020 C 
ATOM     19  C   UNL     1      -1.568  -4.706  -1.074  0.00  0.00    +0.016 C 
ATOM     20  C   UNL     1      -0.094  -5.055  -1.290  0.00  0.00    +0.092 C 
ATOM     21  C   UNL     1       0.735  -4.489  -0.139  0.00  0.00    +0.119 C 
ENDBRANCH   1  20
BRANCH   3  22
ATOM     22  C   UNL     1      -0.424  -8.725  -2.329  0.00  0.00    +0.139 C 
BRANCH  22  23
ATOM     23  C   UNL     1      -1.243  -9.280  -3.466  0.00  0.00    -0.030 A 
ATOM     24  C   UNL     1      -2.557  -9.654  -3.252  0.00  0.00    +0.009 A 
ATOM     25  C   UNL     1      -3.309 -10.164  -4.292  0.00  0.00    +0.046 A 
ATOM     26  C   UNL     1      -2.746 -10.301  -5.552  0.00  0.00    +0.121 A 
ATOM     27  C   UNL     1      -1.428  -9.925  -5.764  0.00  0.00    +0.046 A 
ATOM     28  C   UNL     1      -0.681  -9.411  -4.722  0.00  0.00    +0.009 A 
BRANCH  26  29
ATOM     29  O   UNL     1      -3.484 -10.803  -6.577  0.00  0.00    -0.489 OA
BRANCH  29  30
ATOM     30  C   UNL     1      -2.839 -10.915  -7.847  0.00  0.00    +0.260 C 
BRANCH  30  31
ATOM     31  C   UNL     1      -3.820 -11.495  -8.867  0.00  0.00    +0.156 C 
ATOM     32  C   UNL     1      -3.098 -11.733 -10.211  0.00  0.00    +0.037 C 
ATOM     33  C   UNL     1      -4.176 -11.307 -11.245  0.00  0.00    +0.031 C 
ATOM     34  C   UNL     1      -4.875 -10.153 -10.482  0.00  0.00    +0.160 C 
ATOM     35  O   UNL     1      -4.883 -10.564  -9.104  0.00  0.00    -0.373 OA
ENDBRANCH  30  31
ENDBRANCH  29  30
ENDBRANCH  26  29
ENDBRANCH  22  23
ENDBRANCH   3  22
TORSDOF 6
