REMARK  Name = ZINC01202291
REMARK  9 active torsions:
REMARK  status: ('A' for Active; 'I' for Inactive)
REMARK    1  A    between atoms: C_1  and  C_2
REMARK    2  A    between atoms: C_5  and  N_8
REMARK    3  A    between atoms: N_8  and  C_9
REMARK    4  A    between atoms: N_8  and  S_21
REMARK    5  A    between atoms: C_9  and  C_10
REMARK    6  A    between atoms: N_12  and  C_13
REMARK    7  A    between atoms: S_21  and  C_24
REMARK    8  A    between atoms: C_27  and  S_30
REMARK    9  A    between atoms: S_30  and  C_31
REMARK                            x       y       z     vdW  Elec       q    Type
REMARK                         _______ _______ _______ _____ _____    ______ ____
ROOT
ATOM      1  N   UNL     1       2.310   1.078  -0.212  0.00  0.00    -0.194 N 
ENDROOT
BRANCH   1   6
ATOM      2  C   UNL     1       2.911  -0.919   5.061  0.00  0.00    +0.044 C 
ATOM      3  C   UNL     1       2.751  -0.388   3.659  0.00  0.00    -0.050 A 
ATOM      4  C   UNL     1       1.539   0.141   3.256  0.00  0.00    +0.005 A 
ATOM      5  C   UNL     1       1.389   0.628   1.973  0.00  0.00    +0.025 A 
ATOM      6  C   UNL     1       2.458   0.586   1.087  0.00  0.00    +0.052 A 
ATOM      7  C   UNL     1       3.673   0.049   1.493  0.00  0.00    +0.025 A 
ATOM      8  C   UNL     1       3.817  -0.432   2.780  0.00  0.00    +0.005 A 
ENDBRANCH   1   6
BRANCH   1   9
ATOM      9  S   UNL     1       3.261   0.489  -1.434  0.00  0.00    +0.075 S 
ATOM     10  O   UNL     1       3.744  -0.775  -1.000  0.00  0.00    -0.150 OA
ATOM     11  O   UNL     1       2.522   0.650  -2.637  0.00  0.00    -0.150 OA
BRANCH   9  12
ATOM     12  C   UNL     1       4.664   1.549  -1.558  0.00  0.00    +0.109 A 
ATOM     13  C   UNL     1       4.590   2.705  -2.313  0.00  0.00    +0.030 A 
ATOM     14  C   UNL     1       5.685   3.541  -2.408  0.00  0.00    +0.016 A 
ATOM     15  C   UNL     1       6.866   3.212  -1.754  0.00  0.00    +0.008 A 
ATOM     16  C   UNL     1       6.939   2.046  -1.001  0.00  0.00    +0.016 A 
ATOM     17  C   UNL     1       5.838   1.218  -0.906  0.00  0.00    +0.030 A 
BRANCH  15  18
ATOM     18  S   UNL     1       8.269   4.272  -1.878  0.00  0.00    -0.129 S 
ATOM     19  C   UNL     1       7.701   5.629  -2.938  0.00  0.00    +0.090 C 
ENDBRANCH  15  18
ENDBRANCH   9  12
ENDBRANCH   1   9
BRANCH   1  20
ATOM     20  C   UNL     1       1.313   2.114  -0.494  0.00  0.00    +0.227 C 
BRANCH  20  21
ATOM     21  C   UNL     1      -0.026   1.468  -0.741  0.00  0.00    +0.236 C 
ATOM     22  O   UNL     1      -0.137   0.262  -0.686  0.00  0.00    -0.274 OA
ATOM     23  N   UNL     1      -1.099   2.232  -1.027  0.00  0.00    -0.283 N 
ATOM     24  H   UNL     1      -1.030   3.199  -0.994  0.00  0.00    +0.155 HD
BRANCH  23  25
ATOM     25  C   UNL     1      -2.315   1.629  -1.372  0.00  0.00    +0.052 A 
ATOM     26  C   UNL     1      -2.329   0.350  -1.912  0.00  0.00    +0.026 A 
ATOM     27  C   UNL     1      -3.529  -0.243  -2.251  0.00  0.00    +0.022 A 
ATOM     28  C   UNL     1      -4.719   0.436  -2.053  0.00  0.00    +0.042 A 
ATOM     29  C   UNL     1      -4.709   1.711  -1.515  0.00  0.00    +0.041 A 
ATOM     30  C   UNL     1      -3.511   2.307  -1.169  0.00  0.00    +0.064 A 
ATOM     31 CL   UNL     1      -3.499   3.904  -0.488  0.00  0.00    -0.082 Cl
ATOM     32 CL   UNL     1      -6.226  -0.312  -2.480  0.00  0.00    -0.083 Cl
ENDBRANCH  23  25
ENDBRANCH  20  21
ENDBRANCH   1  20
TORSDOF 7
