REMARK  Name = ZINC20154078
REMARK  9 active torsions:
REMARK  status: ('A' for Active; 'I' for Inactive)
REMARK    1  A    between atoms: C_1  and  C_2
REMARK    2  A    between atoms: C_2  and  O_3
REMARK    3  A    between atoms: O_3  and  C_4
REMARK    4  A    between atoms: C_4  and  C_6
REMARK    5  A    between atoms: C_10  and  N_11
REMARK    6  A    between atoms: N_14  and  C_15
REMARK    7  A    between atoms: C_15  and  C_16
REMARK    8  A    between atoms: N_19  and  C_22
REMARK    9  A    between atoms: C_22  and  C_23
REMARK                            x       y       z     vdW  Elec       q    Type
REMARK                         _______ _______ _______ _____ _____    ______ ____
ROOT
ATOM      1  N   UNL     1       4.139   4.836   8.135  0.00  0.00    -0.263 N 
ATOM      2  C   UNL     1       3.170   5.385   7.377  0.00  0.00    +0.304 C 
ATOM      3  O   UNL     1       2.333   6.104   7.887  0.00  0.00    -0.252 OA
ATOM      4  N   UNL     1       3.127   5.136   6.053  0.00  0.00    -0.299 N 
ATOM      5  H   UNL     1       4.896   4.185   7.673  0.00  0.00    +0.157 HD
ATOM      6  H   UNL     1       3.884   4.485   5.591  0.00  0.00    +0.150 HD
ENDROOT
BRANCH   1  11
ATOM      7  C   UNL     1       5.091   4.618  10.435  0.00  0.00    +0.091 A 
ATOM      8  C   UNL     1       4.914   5.045  11.813  0.00  0.00    -0.021 A 
ATOM      9  C   UNL     1       3.861   5.860  12.033  0.00  0.00    -0.004 A 
ATOM     10  S   UNL     1       3.113   6.073  10.442  0.00  0.00    -0.077 S 
ATOM     11  C   UNL     1       4.183   5.091   9.496  0.00  0.00    +0.087 A 
ATOM     12  C   UNL     1       3.432   6.449  13.341  0.00  0.00    +0.043 C 
ATOM     13  C   UNL     1       4.144   5.689  14.470  0.00  0.00    +0.005 C 
ATOM     14  C   UNL     1       5.633   5.580  14.128  0.00  0.00    +0.005 C 
ATOM     15  C   UNL     1       5.828   4.617  12.956  0.00  0.00    +0.037 C 
BRANCH   7  16
ATOM     16  C   UNL     1       6.186   3.727  10.049  0.00  0.00    +0.342 C 
ATOM     17  O   UNL     1       7.259   4.192   9.713  0.00  0.00    -0.245 OA
BRANCH  16  18
ATOM     18  O   UNL     1       6.006   2.390  10.067  0.00  0.00    -0.461 OA
BRANCH  18  20
ATOM     19  C   UNL     1       6.745   0.091   9.755  0.00  0.00    +0.048 C 
ATOM     20  C   UNL     1       7.136   1.567   9.673  0.00  0.00    +0.229 C 
ENDBRANCH  18  20
ENDBRANCH  16  18
ENDBRANCH   7  16
ENDBRANCH   1  11
BRANCH   4  21
ATOM     21  C   UNL     1       2.073   5.733   5.229  0.00  0.00    +0.109 C 
BRANCH  21  22
ATOM     22  C   UNL     1       2.253   5.294   3.774  0.00  0.00    +0.003 C 
ATOM     23  C   UNL     1       1.230   6.014   2.892  0.00  0.00    -0.014 C 
ATOM     24  C   UNL     1       1.374   5.526   1.449  0.00  0.00    -0.078 C 
ATOM     25  N   UNL     1       1.156   4.075   1.397  0.00  0.00    +0.382 N 
ATOM     26  C   UNL     1       2.156   3.359   2.199  0.00  0.00    -0.078 C 
ATOM     27  C   UNL     1       2.035   3.783   3.665  0.00  0.00    -0.014 C 
ATOM     28  H   UNL     1       0.167   3.869   1.833  0.00  0.00    -0.081 HD
BRANCH  25  29
ATOM     29  C   UNL     1       1.150   3.592   0.010  0.00  0.00    -0.043 C 
BRANCH  29  30
ATOM     30  C   UNL     1       1.171   2.086   0.002  0.00  0.00    -0.064 A 
ATOM     31  C   UNL     1      -0.017   1.378   0.010  0.00  0.00    +0.003 A 
ATOM     32  C   UNL     1       0.002  -0.004   0.002  0.00  0.00    +0.020 A 
ATOM     33  C   UNL     1       1.210  -0.679  -0.013  0.00  0.00    +0.041 A 
ATOM     34  C   UNL     1       2.398   0.030  -0.021  0.00  0.00    +0.020 A 
ATOM     35  C   UNL     1       2.378   1.412  -0.013  0.00  0.00    +0.003 A 
ATOM     36 CL   UNL     1       1.234  -2.415  -0.022  0.00  0.00    -0.084 Cl
ENDBRANCH  29  30
ENDBRANCH  25  29
ENDBRANCH  21  22
ENDBRANCH   4  21
TORSDOF 8
