REMARK  Name = ZINC40061944
REMARK  4 active torsions:
REMARK  status: ('A' for Active; 'I' for Inactive)
REMARK    1  A    between atoms: C_4  and  N_7
REMARK    2  A    between atoms: C_8  and  C_31
REMARK    3  A    between atoms: C_11  and  C_13
REMARK    4  A    between atoms: C_19  and  C_22
REMARK                            x       y       z     vdW  Elec       q    Type
REMARK                         _______ _______ _______ _____ _____    ______ ____
ROOT
ATOM      1  C   UNL     1       7.279  -0.542  -0.066  0.00  0.00    +0.262 C 
ATOM      2  O   UNL     1       8.125  -1.413   0.015  0.00  0.00    -0.269 OA
ATOM      3  N   UNL     1       7.651   0.751  -0.159  0.00  0.00    -0.296 N 
ATOM      4  C   UNL     1       6.645   1.822  -0.136  0.00  0.00    +0.108 C 
ATOM      5  C   UNL     1       6.844   2.711  -1.367  0.00  0.00    +0.020 C 
ATOM      6  C   UNL     1       8.291   3.208  -1.404  0.00  0.00    +0.013 C 
ATOM      7  C   UNL     1       9.240   2.013  -1.514  0.00  0.00    +0.062 C 
ATOM      8  C   UNL     1       9.069   1.115  -0.278  0.00  0.00    +0.118 C 
ENDROOT
BRANCH   7   9
ATOM      9  C   UNL     1      10.663   2.505  -1.584  0.00  0.00    +0.084 A 
ATOM     10  N   UNL     1      11.307   3.209  -0.700  0.00  0.00    -0.244 NA
ATOM     11  C   UNL     1      12.589   3.590  -0.880  0.00  0.00    +0.078 A 
ATOM     12  C   UNL     1      13.435   4.345  -0.041  0.00  0.00    +0.029 A 
ATOM     13  C   UNL     1      14.713   4.623  -0.417  0.00  0.00    +0.002 A 
ATOM     14  C   UNL     1      15.229   4.178  -1.627  0.00  0.00    +0.001 A 
ATOM     15  C   UNL     1      14.430   3.434  -2.475  0.00  0.00    +0.017 A 
ATOM     16  C   UNL     1      13.138   3.149  -2.105  0.00  0.00    +0.039 A 
ATOM     17  S   UNL     1      11.779   2.261  -2.819  0.00  0.00    -0.072 S 
ENDBRANCH   7   9
BRANCH   1  21
ATOM     18  N   UNL     1       3.619  -0.650  -0.030  0.00  0.00    -0.212 N 
ATOM     19  C   UNL     1       3.784  -2.111  -0.084  0.00  0.00    +0.189 C 
ATOM     20  C   UNL     1       5.312  -2.305  -0.108  0.00  0.00    +0.096 C 
ATOM     21  C   UNL     1       5.860  -0.897  -0.064  0.00  0.00    +0.123 C 
ATOM     22  N   UNL     1       4.879  -0.054  -0.028  0.00  0.00    -0.178 NA
BRANCH  18  26
ATOM     23  C   UNL     1      -0.017   1.375   0.080  0.00  0.00    +0.000 A 
ATOM     24  C   UNL     1       1.169   2.086   0.088  0.00  0.00    +0.002 A 
ATOM     25  C   UNL     1       2.377   1.418   0.051  0.00  0.00    +0.025 A 
ATOM     26  C   UNL     1       2.400   0.029   0.007  0.00  0.00    +0.052 A 
ATOM     27  C   UNL     1       1.206  -0.682  -0.000  0.00  0.00    +0.025 A 
ATOM     28  C   UNL     1       0.002  -0.008   0.036  0.00  0.00    +0.002 A 
ENDBRANCH  18  26
BRANCH  19  29
ATOM     29  C   UNL     1       3.183  -2.757   1.137  0.00  0.00    +0.233 C 
ATOM     30  O   UNL     1       2.967  -2.094   2.130  0.00  0.00    -0.274 OA
ATOM     31  N   UNL     1       2.886  -4.072   1.127  0.00  0.00    -0.328 N 
ATOM     32  H   UNL     1       3.059  -4.602   0.334  0.00  0.00    +0.145 HD
ATOM     33  H   UNL     1       2.500  -4.488   1.914  0.00  0.00    +0.145 HD
ENDBRANCH  19  29
ENDBRANCH   1  21
TORSDOF 4
