REMARK  Name = ZINC09985162
REMARK  8 active torsions:
REMARK  status: ('A' for Active; 'I' for Inactive)
REMARK    1  A    between atoms: C_1  and  C_2
REMARK    2  A    between atoms: C_9  and  C_11
REMARK    3  A    between atoms: C_12  and  C_38
REMARK    4  A    between atoms: C_16  and  C_18
REMARK    5  A    between atoms: C_20  and  C_25
REMARK    6  A    between atoms: C_22  and  S_23
REMARK    7  A    between atoms: S_23  and  C_24
REMARK    8  A    between atoms: C_29  and  C_32
REMARK                            x       y       z     vdW  Elec       q    Type
REMARK                         _______ _______ _______ _____ _____    ______ ____
ROOT
ATOM      1  C   UNL     1      -0.347  -4.788   1.331  0.00  0.00    +0.043 C 
ATOM      2  C   UNL     1      -0.304  -4.035   2.443  0.00  0.00    +0.014 C 
ATOM      3  N   UNL     1      -0.676  -2.720   2.404  0.00  0.00    -0.321 N 
ATOM      4  C   UNL     1      -0.714  -2.041   1.216  0.00  0.00    +0.016 C 
ATOM      5  C   UNL     1      -0.771  -2.711   0.045  0.00  0.00    +0.024 C 
ATOM      6  C   UNL     1      -0.808  -4.218   0.022  0.00  0.00    +0.092 C 
ATOM      7  C   UNL     1      -0.793  -2.026  -1.182  0.00  0.00    +0.162 C 
ATOM      8  O   UNL     1      -0.856  -2.659  -2.217  0.00  0.00    -0.292 OA
ATOM      9  C   UNL     1      -0.741  -0.523  -1.238  0.00  0.00    +0.088 C 
ATOM     10  C   UNL     1       0.011  -0.004  -0.007  0.00  0.00    +0.032 C 
ATOM     11  C   UNL     1      -0.689  -0.532   1.248  0.00  0.00    +0.059 C 
ATOM     12  C   UNL     1       0.158  -4.644   3.742  0.00  0.00    +0.061 C 
ATOM     13  H   UNL     1      -0.949  -2.197   3.333  0.00  0.00    +0.152 HD
ENDROOT
BRANCH   1  22
ATOM     14  C   UNL     1       2.002 -12.165   0.540  0.00  0.00    +0.045 C 
ATOM     15  C   UNL     1       1.463 -10.761   0.436  0.00  0.00    -0.032 A 
ATOM     16  C   UNL     1       1.053 -10.257  -0.791  0.00  0.00    +0.008 A 
ATOM     17  C   UNL     1       0.560  -8.966  -0.843  0.00  0.00    +0.044 A 
ATOM     18  C   UNL     1       0.502  -8.217   0.327  0.00  0.00    +0.125 A 
ATOM     19  N   UNL     1       0.902  -8.733   1.478  0.00  0.00    -0.240 NA
ATOM     20  C   UNL     1       1.372  -9.963   1.559  0.00  0.00    +0.116 A 
ATOM     21  N   UNL     1       0.012  -6.913   0.289  0.00  0.00    -0.267 N 
ATOM     22  C   UNL     1       0.050  -6.146   1.397  0.00  0.00    +0.248 C 
ATOM     23  O   UNL     1       0.426  -6.620   2.453  0.00  0.00    -0.270 OA
ATOM     24  H   UNL     1      -0.406  -6.510  -0.645  0.00  0.00    +0.157 HD
ENDBRANCH   1  22
BRANCH   6  25
ATOM     25  C   UNL     1      -2.219  -4.674  -0.247  0.00  0.00    -0.015 A 
ATOM     26  C   UNL     1      -3.240  -4.362   0.632  0.00  0.00    +0.016 A 
ATOM     27  C   UNL     1      -4.497  -4.783   0.357  0.00  0.00    -0.012 A 
ATOM     28  S   UNL     1      -4.269  -5.663  -1.179  0.00  0.00    -0.087 S 
ATOM     29  C   UNL     1      -2.511  -5.407  -1.359  0.00  0.00    +0.049 A 
ATOM     30  C   UNL     1      -5.762  -4.569   1.147  0.00  0.00    +0.051 C 
BRANCH  29  31
ATOM     31  S   UNL     1      -1.435  -5.957  -2.641  0.00  0.00    -0.121 S 
ATOM     32  C   UNL     1      -2.526  -6.865  -3.770  0.00  0.00    +0.090 C 
ENDBRANCH  29  31
ENDBRANCH   6  25
BRANCH  10  33
ATOM     33  C   UNL     1      -0.008   1.502  -0.001  0.00  0.00    -0.044 A 
ATOM     34  C   UNL     1      -1.213   2.179   0.011  0.00  0.00    +0.004 A 
ATOM     35  C   UNL     1      -1.230   3.561   0.021  0.00  0.00    +0.000 A 
ATOM     36  C   UNL     1      -0.042   4.267   0.010  0.00  0.00    +0.000 A 
ATOM     37  C   UNL     1       1.164   3.590  -0.007  0.00  0.00    +0.000 A 
ATOM     38  C   UNL     1       1.181   2.208  -0.013  0.00  0.00    +0.004 A 
ENDBRANCH  10  33
TORSDOF 4
