REMARK  Name = ZINC64031866
REMARK  5 active torsions:
REMARK  status: ('A' for Active; 'I' for Inactive)
REMARK    1  A    between atoms: C_1  and  C_2
REMARK    2  A    between atoms: C_4  and  C_10
REMARK    3  A    between atoms: C_7  and  O_8
REMARK    4  A    between atoms: O_8  and  C_9
REMARK    5  A    between atoms: C_25  and  C_27
REMARK                            x       y       z     vdW  Elec       q    Type
REMARK                         _______ _______ _______ _____ _____    ______ ____
ROOT
ATOM      1  C   UNL     1      -0.157  -2.666  -2.387  0.00  0.00    +0.133 C 
ATOM      2  C   UNL     1       1.335  -3.013  -2.445  0.00  0.00    +0.131 C 
ATOM      3  C   UNL     1       1.611  -3.940  -1.268  0.00  0.00    -0.035 C 
ATOM      4  C   UNL     1       2.582  -3.372  -0.562  0.00  0.00    -0.001 A 
ATOM      5  C   UNL     1       3.315  -3.821   0.632  0.00  0.00    +0.010 A 
ATOM      6  C   UNL     1       4.259  -2.968   1.111  0.00  0.00    +0.001 A 
ATOM      7  C   UNL     1       4.543  -1.729   0.528  0.00  0.00    +0.002 A 
ATOM      8  C   UNL     1       3.921  -1.239  -0.574  0.00  0.00    +0.026 A 
ATOM      9  C   UNL     1       2.912  -2.048  -1.172  0.00  0.00    +0.043 A 
ATOM     10  N   UNL     1       2.177  -1.831  -2.248  0.00  0.00    -0.375 N 
ATOM     11  C   UNL     1       0.808  -5.194  -1.019  0.00  0.00    +0.052 C 
ATOM     12  C   UNL     1      -0.676  -4.786  -1.065  0.00  0.00    +0.113 C 
ATOM     13  N   UNL     1      -0.908  -3.921  -2.227  0.00  0.00    -0.290 N 
ATOM     14  C   UNL     1      -1.816  -4.279  -3.157  0.00  0.00    +0.241 C 
ATOM     15  O   UNL     1      -1.948  -3.614  -4.162  0.00  0.00    -0.273 OA
ATOM     16  H   UNL     1       2.182  -1.039  -2.808  0.00  0.00    +0.160 HD
ENDROOT
BRANCH  14  17
ATOM     17  C   UNL     1      -2.666  -5.505  -2.946  0.00  0.00    +0.207 C 
ATOM     18  C   UNL     1      -2.005  -6.726  -3.545  0.00  0.00    -0.001 C 
ATOM     19  C   UNL     1      -2.601  -7.005  -4.690  0.00  0.00    +0.127 C 
ATOM     20  C   UNL     1      -2.212  -8.172  -5.573  0.00  0.00    +0.076 C 
ATOM     21  C   UNL     1      -0.818  -8.656  -5.163  0.00  0.00    +0.008 C 
ATOM     22  C   UNL     1      -0.779  -8.868  -3.647  0.00  0.00    +0.005 C 
ATOM     23  C   UNL     1      -0.860  -7.505  -2.949  0.00  0.00    +0.036 C 
ATOM     24  O   UNL     1      -3.586  -6.113  -4.970  0.00  0.00    -0.410 OA
ATOM     25  N   UNL     1      -3.933  -5.407  -3.718  0.00  0.00    -0.140 NA
ATOM     26  H   UNL     1      -4.173  -4.443  -3.898  0.00  0.00    +0.168 HD
ENDBRANCH  14  17
BRANCH   1  30
ATOM     27  C   UNL     1      -1.740   1.724  -0.582  0.00  0.00    +0.047 C 
ATOM     28  C   UNL     1      -1.183   0.343  -0.351  0.00  0.00    -0.008 A 
ATOM     29  C   UNL     1      -0.935  -0.491  -1.425  0.00  0.00    +0.012 A 
ATOM     30  C   UNL     1      -0.425  -1.758  -1.214  0.00  0.00    -0.024 A 
ATOM     31  C   UNL     1      -0.159  -2.194   0.071  0.00  0.00    +0.009 A 
ATOM     32  C   UNL     1      -0.404  -1.365   1.147  0.00  0.00    +0.046 A 
ATOM     33  C   UNL     1      -0.912  -0.090   0.938  0.00  0.00    +0.123 A 
BRANCH  33  34
ATOM     34  O   UNL     1      -1.148   0.730   1.996  0.00  0.00    -0.495 OA
ATOM     35  C   UNL     1      -0.846   0.218   3.295  0.00  0.00    +0.277 C 
ENDBRANCH  33  34
ENDBRANCH   1  30
TORSDOF 3
