REMARK  Name = ZINC49532510
REMARK  9 active torsions:
REMARK  status: ('A' for Active; 'I' for Inactive)
REMARK    1  A    between atoms: C_1  and  C_2
REMARK    2  A    between atoms: C_2  and  C_3
REMARK    3  A    between atoms: C_3  and  C_5
REMARK    4  A    between atoms: C_3  and  N_10
REMARK    5  A    between atoms: N_10  and  S_11
REMARK    6  A    between atoms: S_11  and  C_14
REMARK    7  A    between atoms: C_18  and  C_20
REMARK    8  A    between atoms: C_20  and  C_22
REMARK    9  A    between atoms: C_20  and  N_23
REMARK                            x       y       z     vdW  Elec       q    Type
REMARK                         _______ _______ _______ _____ _____    ______ ____
ROOT
ATOM      1  S   UNL     1       0.213   1.244  -3.337  0.00  0.00    +0.059 S 
ATOM      2  O   UNL     1      -0.718   1.336  -4.407  0.00  0.00    -0.153 OA
ATOM      3  O   UNL     1       0.427   2.309  -2.420  0.00  0.00    -0.153 OA
ENDROOT
BRANCH   1   4
ATOM      4  C   UNL     1       1.778   0.881  -4.061  0.00  0.00    +0.105 A 
ATOM      5  C   UNL     1       2.942   1.200  -3.387  0.00  0.00    +0.028 A 
ATOM      6  C   UNL     1       4.170   0.915  -3.954  0.00  0.00    +0.002 A 
ATOM      7  C   UNL     1       4.233   0.309  -5.196  0.00  0.00    +0.002 A 
ATOM      8  C   UNL     1       3.069  -0.011  -5.869  0.00  0.00    -0.060 A 
ATOM      9  C   UNL     1       1.841   0.271  -5.299  0.00  0.00    +0.030 A 
BRANCH   8  10
ATOM     10  C   UNL     1       3.139  -0.670  -7.222  0.00  0.00    -0.047 C 
ATOM     11  C   UNL     1       3.421   0.388  -8.291  0.00  0.00    -0.009 C 
BRANCH  10  12
ATOM     12  N   UNL     1       4.216  -1.669  -7.226  0.00  0.00    +0.382 N 
ATOM     13  H   UNL     1       4.030  -2.367  -6.521  0.00  0.00    -0.089 HD
ATOM     14  H   UNL     1       4.262  -2.111  -8.132  0.00  0.00    -0.089 HD
ATOM     15  H   UNL     1       5.095  -1.216  -7.027  0.00  0.00    -0.089 HD
ENDBRANCH  10  12
ENDBRANCH   8  10
ENDBRANCH   1   4
BRANCH   1  16
ATOM     16  N   UNL     1      -0.229  -0.074  -2.438  0.00  0.00    -0.182 NA
ATOM     17  H   UNL     1      -1.007  -0.595  -2.690  0.00  0.00    +0.149 HD
BRANCH  16  18
ATOM     18  C   UNL     1       0.556  -0.454  -1.260  0.00  0.00    +0.113 C 
BRANCH  18  19
ATOM     19  C   UNL     1       1.209  -1.790  -1.502  0.00  0.00    +0.008 A 
ATOM     20  C   UNL     1       2.454  -2.206  -1.161  0.00  0.00    +0.013 A 
ATOM     21  C   UNL     1       2.844  -3.491  -1.487  0.00  0.00    +0.008 A 
ATOM     22  C   UNL     1       1.971  -4.297  -2.139  0.00  0.00    +0.045 A 
ATOM     23  S   UNL     1       0.543  -3.239  -2.304  0.00  0.00    -0.100 S 
ENDBRANCH  18  19
BRANCH  18  25
ATOM     24  C   UNL     1      -0.924   0.837   0.284  0.00  0.00    +0.006 C 
ATOM     25  C   UNL     1      -0.365  -0.549  -0.042  0.00  0.00    +0.022 C 
ENDBRANCH  18  25
ENDBRANCH  16  18
ENDBRANCH   1  16
TORSDOF 7
