REMARK  Name = ZINC19664422
REMARK  5 active torsions:
REMARK  status: ('A' for Active; 'I' for Inactive)
REMARK    1  A    between atoms: C_1  and  C_2
REMARK    2  A    between atoms: C_7  and  O_8
REMARK    3  A    between atoms: O_8  and  C_9
REMARK    4  A    between atoms: N_12  and  C_15
REMARK    5  A    between atoms: C_15  and  C_16
REMARK                            x       y       z     vdW  Elec       q    Type
REMARK                         _______ _______ _______ _____ _____    ______ ____
ROOT
ATOM      1  C   UNL     1       3.650   2.698  -0.427  0.00  0.00    +0.170 C 
ATOM      2  C   UNL     1       3.814   2.670   1.095  0.00  0.00    +0.026 C 
ATOM      3  C   UNL     1       5.151   2.012   1.447  0.00  0.00    -0.075 C 
ATOM      4  N   UNL     1       6.248   2.769   0.831  0.00  0.00    +0.386 N 
ATOM      5  C   UNL     1       6.138   2.769  -0.633  0.00  0.00    -0.075 C 
ATOM      6  C   UNL     1       4.831   3.450  -1.047  0.00  0.00    +0.026 C 
ATOM      7  H   UNL     1       6.170   3.812   1.173  0.00  0.00    -0.081 HD
ENDROOT
BRANCH   1   8
ATOM      8  O   UNL     1       2.431   3.363  -0.764  0.00  0.00    -0.489 OA
BRANCH   8  15
ATOM      9  C   UNL     1       0.049   4.597  -1.648  0.00  0.00    +0.047 C 
ATOM     10  C   UNL     1       0.097   3.165  -1.181  0.00  0.00    -0.009 A 
ATOM     11  C   UNL     1      -1.054   2.401  -1.174  0.00  0.00    +0.007 A 
ATOM     12  C   UNL     1      -1.009   1.086  -0.750  0.00  0.00    +0.000 A 
ATOM     13  C   UNL     1       0.185   0.535  -0.323  0.00  0.00    +0.004 A 
ATOM     14  C   UNL     1       1.339   1.295  -0.329  0.00  0.00    +0.046 A 
ATOM     15  C   UNL     1       1.298   2.613  -0.758  0.00  0.00    +0.124 A 
ENDBRANCH   8  15
ENDBRANCH   1   8
BRANCH   4  16
ATOM     16  C   UNL     1       7.553   2.248   1.260  0.00  0.00    +0.019 C 
BRANCH  16  17
ATOM     17  C   UNL     1       8.640   3.197   0.827  0.00  0.00    +0.204 C 
ATOM     18  O   UNL     1       8.351   4.256   0.311  0.00  0.00    -0.277 OA
ATOM     19  N   UNL     1       9.934   2.870   1.014  0.00  0.00    -0.262 N 
ATOM     20  C   UNL     1      10.312   1.595   1.643  0.00  0.00    +0.209 C 
ATOM     21  C   UNL     1      11.443   1.833   2.605  0.00  0.00    +0.235 C 
ATOM     22  O   UNL     1      11.565   1.114   3.574  0.00  0.00    -0.274 OA
ATOM     23  N   UNL     1      12.318   2.836   2.406  0.00  0.00    -0.283 N 
ATOM     24  C   UNL     1      12.171   3.710   1.323  0.00  0.00    +0.055 A 
ATOM     25  C   UNL     1      10.965   3.737   0.619  0.00  0.00    +0.058 A 
ATOM     26  C   UNL     1      10.800   4.604  -0.445  0.00  0.00    +0.025 A 
ATOM     27  C   UNL     1      11.837   5.444  -0.813  0.00  0.00    +0.002 A 
ATOM     28  C   UNL     1      13.033   5.418  -0.119  0.00  0.00    +0.002 A 
ATOM     29  C   UNL     1      13.203   4.553   0.947  0.00  0.00    +0.025 A 
ATOM     30  H   UNL     1      13.162   2.976   3.098  0.00  0.00    +0.155 HD
ENDBRANCH  16  17
ENDBRANCH   4  16
TORSDOF 4
