REMARK  Name = ZINC11592769
REMARK  14 active torsions:
REMARK  status: ('A' for Active; 'I' for Inactive)
REMARK    1  A    between atoms: C_1  and  C_2
REMARK    2  A    between atoms: C_2  and  C_3
REMARK    3  A    between atoms: C_3  and  O_5
REMARK    4  A    between atoms: O_5  and  C_6
REMARK    5  A    between atoms: C_6  and  C_7
REMARK    6  A    between atoms: C_7  and  C_9
REMARK    7  A    between atoms: C_9  and  O_36
REMARK    8  A    between atoms: C_10  and  C_35
REMARK    9  A    between atoms: C_15  and  C_34
REMARK   10  A    between atoms: C_17  and  O_33
REMARK   11  A    between atoms: C_30  and  C_31
REMARK   12  A    between atoms: O_36  and  C_37
REMARK   13  A    between atoms: C_37  and  C_39
REMARK   14  A    between atoms: C_39  and  C_40
REMARK                            x       y       z     vdW  Elec       q    Type
REMARK                         _______ _______ _______ _____ _____    ______ ____
ROOT
ATOM      1  C   UNL     1       3.273   1.813   1.276  0.00  0.00    +0.182 C 
ATOM      2  C   UNL     1       3.949   0.617   0.580  0.00  0.00    +0.038 C 
ATOM      3  C   UNL     1       2.850  -0.444   0.378  0.00  0.00    +0.012 C 
ATOM      4  C   UNL     1       1.812  -0.106   1.465  0.00  0.00    +0.005 C 
ATOM      5  C   UNL     1       1.777   1.433   1.441  0.00  0.00    +0.021 C 
ATOM      6  C   UNL     1       1.046   1.953   0.215  0.00  0.00    +0.044 C 
ATOM      7  C   UNL     1      -0.341   1.327   0.093  0.00  0.00    +0.137 C 
ATOM      8  C   UNL     1      -0.176  -0.188  -0.065  0.00  0.00    +0.086 C 
ATOM      9  C   UNL     1       0.468  -0.740   1.201  0.00  0.00    +0.018 C 
ATOM     10  C   UNL     1       0.611  -2.260   1.044  0.00  0.00    +0.010 C 
ATOM     11  C   UNL     1      -0.784  -2.874   1.171  0.00  0.00    +0.032 C 
ATOM     12  C   UNL     1      -1.756  -2.158   0.279  0.00  0.00    -0.055 C 
ATOM     13  C   UNL     1      -2.965  -2.725   0.059  0.00  0.00    +0.051 C 
ATOM     14  C   UNL     1      -3.884  -1.921  -0.792  0.00  0.00    +0.179 C 
ATOM     15  O   UNL     1      -4.579  -2.418  -1.658  0.00  0.00    -0.288 OA
ATOM     16  C   UNL     1      -3.885  -0.460  -0.503  0.00  0.00    +0.047 C 
ATOM     17  C   UNL     1      -2.666   0.079  -0.280  0.00  0.00    -0.011 C 
ATOM     18  C   UNL     1      -1.490  -0.849  -0.366  0.00  0.00    +0.029 C 
ATOM     19  C   UNL     1      -1.423  -1.181  -1.858  0.00  0.00    +0.022 C 
ATOM     20 CL   UNL     1       0.942  -0.493  -1.447  0.00  0.00    -0.114 Cl
ATOM     21  C   UNL     1       1.184   2.006   2.729  0.00  0.00    +0.016 C 
ATOM     22  C   UNL     1       5.076   0.068   1.457  0.00  0.00    +0.012 C 
ENDROOT
BRANCH   1  23
ATOM     23  C   UNL     1       3.900   2.046   2.627  0.00  0.00    +0.214 C 
ATOM     24  O   UNL     1       3.825   1.197   3.482  0.00  0.00    -0.289 OA
BRANCH  23  25
ATOM     25  C   UNL     1       4.618   3.340   2.911  0.00  0.00    +0.310 C 
BRANCH  25  26
ATOM     26  O   UNL     1       5.015   3.377   4.307  0.00  0.00    -0.457 OA
BRANCH  26  27
ATOM     27  C   UNL     1       5.671   4.471   4.726  0.00  0.00    +0.307 C 
ATOM     28  O   UNL     1       5.906   5.368   3.951  0.00  0.00    -0.251 OA
BRANCH  27  30
ATOM     29  C   UNL     1       6.834   5.914   6.373  0.00  0.00    +0.015 C 
ATOM     30  C   UNL     1       6.114   4.580   6.162  0.00  0.00    +0.117 C 
ENDBRANCH  27  30
ENDBRANCH  26  27
ENDBRANCH  25  26
ENDBRANCH  23  25
ENDBRANCH   1  23
BRANCH   7  31
ATOM     31  O   UNL     1      -1.101   1.607   1.270  0.00  0.00    -0.390 OA
ATOM     32  H   UNL     1      -1.243   2.550   1.431  0.00  0.00    +0.210 HD
ENDBRANCH   7  31
BRANCH   1  33
ATOM     33  O   UNL     1       3.398   3.004   0.456  0.00  0.00    -0.449 OA
BRANCH  33  34
ATOM     34  C   UNL     1       4.639   3.374   0.103  0.00  0.00    +0.308 C 
ATOM     35  O   UNL     1       5.582   2.673   0.386  0.00  0.00    -0.251 OA
BRANCH  34  36
ATOM     36  C   UNL     1       4.858   4.664  -0.645  0.00  0.00    +0.117 C 
ATOM     37  C   UNL     1       6.351   4.847  -0.922  0.00  0.00    +0.015 C 
ENDBRANCH  34  36
ENDBRANCH  33  34
ENDBRANCH   1  33
TORSDOF 9
