REMARK  Name = ZINC48788004
REMARK  8 active torsions:
REMARK  status: ('A' for Active; 'I' for Inactive)
REMARK    1  A    between atoms: C_1  and  C_2
REMARK    2  A    between atoms: C_2  and  C_4
REMARK    3  A    between atoms: C_2  and  O_11
REMARK    4  A    between atoms: N_9  and  C_10
REMARK    5  A    between atoms: O_11  and  C_12
REMARK    6  A    between atoms: C_13  and  C_19
REMARK    7  A    between atoms: C_19  and  N_20
REMARK    8  A    between atoms: N_20  and  C_21
REMARK                            x       y       z     vdW  Elec       q    Type
REMARK                         _______ _______ _______ _____ _____    ______ ____
ROOT
ATOM      1  O   UNL     1       0.634  -0.485  -1.216  0.00  0.00    -0.479 OA
ENDROOT
BRANCH   1   2
ATOM      2  C   UNL     1       1.974  -0.530  -0.992  0.00  0.00    +0.137 A 
ATOM      3  C   UNL     1       2.732   0.628  -1.076  0.00  0.00    -0.022 A 
ATOM      4  C   UNL     1       4.093   0.580  -0.847  0.00  0.00    +0.005 A 
ATOM      5  C   UNL     1       4.701  -0.622  -0.535  0.00  0.00    +0.002 A 
ATOM      6  C   UNL     1       3.949  -1.778  -0.450  0.00  0.00    +0.019 A 
ATOM      7  C   UNL     1       2.585  -1.735  -0.672  0.00  0.00    +0.060 A 
ATOM      8 BR   UNL     1       1.555  -3.316  -0.548  0.00  0.00    -0.047 Br
BRANCH   3   9
ATOM      9  C   UNL     1       2.071   1.939  -1.416  0.00  0.00    -0.043 C 
BRANCH   9  10
ATOM     10  N   UNL     1       1.389   2.467  -0.227  0.00  0.00    +0.380 N 
ATOM     11  C   UNL     1       0.674   3.701  -0.580  0.00  0.00    -0.100 C 
ATOM     12  H   UNL     1       0.731   1.784   0.115  0.00  0.00    -0.086 HD
ATOM     13  H   UNL     1       2.070   2.667   0.490  0.00  0.00    -0.086 HD
ENDBRANCH   9  10
ENDBRANCH   3   9
ENDBRANCH   1   2
BRANCH   1  15
ATOM     14  C   UNL     1      -0.092  -1.987  -2.965  0.00  0.00    +0.062 C 
ATOM     15  C   UNL     1       0.202  -0.536  -2.577  0.00  0.00    +0.256 C 
BRANCH  15  16
ATOM     16  C   UNL     1      -1.047   0.291  -2.739  0.00  0.00    +0.261 C 
ATOM     17  O   UNL     1      -1.572   0.792  -1.769  0.00  0.00    -0.271 OA
ATOM     18  N   UNL     1      -1.581   0.472  -3.963  0.00  0.00    -0.237 N 
ATOM     19  C   UNL     1      -2.698   1.212  -4.109  0.00  0.00    +0.306 C 
ATOM     20  O   UNL     1      -3.224   1.715  -3.135  0.00  0.00    -0.252 OA
ATOM     21  N   UNL     1      -3.232   1.394  -5.333  0.00  0.00    -0.302 N 
ATOM     22  C   UNL     1      -4.446   2.198  -5.490  0.00  0.00    +0.129 C 
ATOM     23  H   UNL     1      -1.161   0.071  -4.740  0.00  0.00    +0.159 HD
ATOM     24  H   UNL     1      -2.812   0.992  -6.109  0.00  0.00    +0.150 HD
ENDBRANCH  15  16
ENDBRANCH   1  15
TORSDOF 5
