REMARK  Name = ZINC14396361
REMARK  8 active torsions:
REMARK  status: ('A' for Active; 'I' for Inactive)
REMARK    1  A    between atoms: C_1  and  C_2
REMARK    2  A    between atoms: C_2  and  C_3
REMARK    3  A    between atoms: C_3  and  C_5
REMARK    4  A    between atoms: C_3  and  C_6
REMARK    5  A    between atoms: C_9  and  S_12
REMARK    6  A    between atoms: S_12  and  N_15
REMARK    7  A    between atoms: C_21  and  C_23
REMARK    8  A    between atoms: C_26  and  N_29
REMARK                            x       y       z     vdW  Elec       q    Type
REMARK                         _______ _______ _______ _____ _____    ______ ____
ROOT
ATOM      1  N   UNL     1       0.167   1.907  -0.648  0.00  0.00    -0.174 NA
ATOM      2  C   UNL     1      -1.114   2.628  -0.651  0.00  0.00    +0.128 C 
ATOM      3  C   UNL     1      -1.266   3.353   0.697  0.00  0.00    +0.125 C 
ATOM      4  N   UNL     1      -0.032   4.103   0.967  0.00  0.00    -0.295 N 
ATOM      5  C   UNL     1       1.250   3.383   0.965  0.00  0.00    +0.125 C 
ATOM      6  C   UNL     1       1.401   2.657  -0.378  0.00  0.00    +0.128 C 
ATOM      7  C   UNL     1      -0.074   5.428   1.213  0.00  0.00    +0.247 C 
ATOM      8  O   UNL     1       0.944   6.023   1.510  0.00  0.00    -0.270 OA
ENDROOT
BRANCH   7   9
ATOM      9  C   UNL     1      -1.355   6.155   1.120  0.00  0.00    +0.037 A 
ATOM     10  C   UNL     1      -1.419   7.376   0.443  0.00  0.00    +0.015 A 
ATOM     11  C   UNL     1      -2.617   8.049   0.352  0.00  0.00    +0.024 A 
ATOM     12  C   UNL     1      -3.759   7.521   0.945  0.00  0.00    +0.035 A 
ATOM     13  C   UNL     1      -3.697   6.309   1.625  0.00  0.00    +0.024 A 
ATOM     14  C   UNL     1      -2.504   5.627   1.714  0.00  0.00    +0.015 A 
BRANCH  12  15
ATOM     15  N   UNL     1      -4.970   8.207   0.857  0.00  0.00    -0.270 N 
ATOM     16  C   UNL     1      -5.836   8.182   1.889  0.00  0.00    +0.301 C 
ATOM     17  O   UNL     1      -5.601   7.492   2.862  0.00  0.00    -0.253 OA
ATOM     18  N   UNL     1      -6.962   8.921   1.842  0.00  0.00    -0.313 N 
ATOM     19  H   UNL     1      -5.188   8.703   0.052  0.00  0.00    +0.156 HD
ATOM     20  H   UNL     1      -7.149   9.470   1.065  0.00  0.00    +0.146 HD
ATOM     21  H   UNL     1      -7.586   8.902   2.584  0.00  0.00    +0.146 HD
ENDBRANCH  12  15
ENDBRANCH   7   9
BRANCH   1  22
ATOM     22  S   UNL     1       0.218   0.280  -0.951  0.00  0.00    +0.061 S 
ATOM     23  O   UNL     1      -0.951  -0.032  -1.695  0.00  0.00    -0.153 OA
ATOM     24  O   UNL     1       1.526  -0.003  -1.431  0.00  0.00    -0.153 OA
BRANCH  22  28
ATOM     25  C   UNL     1      -0.179  -1.835   3.032  0.00  0.00    -0.044 A 
ATOM     26  C   UNL     1      -1.309  -1.527   2.297  0.00  0.00    +0.006 A 
ATOM     27  C   UNL     1      -1.188  -0.881   1.081  0.00  0.00    +0.029 A 
ATOM     28  C   UNL     1       0.064  -0.543   0.600  0.00  0.00    +0.105 A 
ATOM     29  C   UNL     1       1.194  -0.857   1.332  0.00  0.00    +0.029 A 
ATOM     30  C   UNL     1       1.072  -1.499   2.550  0.00  0.00    +0.006 A 
BRANCH  25  31
ATOM     31  C   UNL     1      -0.312  -2.540   4.357  0.00  0.00    +0.016 C 
ATOM     32  C   UNL     1       0.286  -1.665   5.462  0.00  0.00    +0.012 C 
BRANCH  31  34
ATOM     33  C   UNL     1       0.198  -4.644   5.604  0.00  0.00    +0.004 C 
ATOM     34  C   UNL     1       0.435  -3.874   4.303  0.00  0.00    +0.004 C 
ENDBRANCH  31  34
ENDBRANCH  25  31
ENDBRANCH  22  28
ENDBRANCH   1  22
TORSDOF 6
