REMARK  Name = ZINC13064433
REMARK  11 active torsions:
REMARK  status: ('A' for Active; 'I' for Inactive)
REMARK    1  A    between atoms: C_1  and  C_2
REMARK    2  A    between atoms: C_2  and  C_3
REMARK    3  A    between atoms: C_3  and  C_5
REMARK    4  A    between atoms: C_3  and  N_73
REMARK    5  A    between atoms: N_9  and  C_10
REMARK    6  A    between atoms: C_10  and  C_11
REMARK    7  A    between atoms: C_14  and  O_17
REMARK    8  A    between atoms: O_17  and  C_18
REMARK    9  A    between atoms: C_19  and  C_20
REMARK   10  A    between atoms: C_19  and  N_73
REMARK   11  A    between atoms: C_36  and  N_73
REMARK                            x       y       z     vdW  Elec       q    Type
REMARK                         _______ _______ _______ _____ _____    ______ ____
ROOT
ATOM      1  N   UNL     1       0.756   3.724  -0.858  0.00  0.00    +0.391 N 
ATOM      2  H   UNL     1      -0.124   3.852  -0.344  0.00  0.00    -0.080 HD
ENDROOT
BRANCH   1   3
ATOM      3  C   UNL     1       0.482   2.974  -2.101  0.00  0.00    -0.067 C 
ATOM      4  C   UNL     1      -0.443   3.806  -3.013  0.00  0.00    -0.015 C 
ATOM      5  C   UNL     1      -1.393   2.758  -3.646  0.00  0.00    -0.002 C 
ATOM      6  C   UNL     1      -1.643   1.773  -2.478  0.00  0.00    -0.002 C 
ATOM      7  C   UNL     1      -0.280   1.681  -1.761  0.00  0.00    -0.015 C 
ENDBRANCH   1   3
BRANCH   1   8
ATOM      8  C   UNL     1       1.702   2.968  -0.009  0.00  0.00    +0.003 C 
BRANCH   8   9
ATOM      9  C   UNL     1       1.420   3.298   1.434  0.00  0.00    +0.138 A 
ATOM     10  N   UNL     1       0.685   4.286   1.882  0.00  0.00    -0.115 NA
ATOM     11  N   UNL     1       0.688   4.232   3.170  0.00  0.00    -0.023 NA
ATOM     12  N   UNL     1       1.405   3.235   3.554  0.00  0.00    -0.044 NA
ATOM     13  N   UNL     1       1.873   2.633   2.513  0.00  0.00    -0.226 N 
BRANCH  13  14
ATOM     14  C   UNL     1       2.737   1.450   2.507  0.00  0.00    +0.182 C 
BRANCH  14  15
ATOM     15  C   UNL     1       1.887   0.208   2.583  0.00  0.00    -0.026 A 
ATOM     16  C   UNL     1       1.475  -0.272   3.813  0.00  0.00    +0.009 A 
ATOM     17  C   UNL     1       0.691  -1.407   3.885  0.00  0.00    +0.046 A 
ATOM     18  C   UNL     1       0.326  -2.072   2.724  0.00  0.00    +0.120 A 
ATOM     19  C   UNL     1       0.746  -1.592   1.492  0.00  0.00    +0.046 A 
ATOM     20  C   UNL     1       1.525  -0.453   1.424  0.00  0.00    +0.009 A 
BRANCH  18  21
ATOM     21  O   UNL     1      -0.441  -3.192   2.792  0.00  0.00    -0.495 OA
ATOM     22  C   UNL     1      -0.836  -3.629   4.094  0.00  0.00    +0.277 C 
ENDBRANCH  18  21
ENDBRANCH  14  15
ENDBRANCH  13  14
ENDBRANCH   8   9
BRANCH   8  24
ATOM     23  C   UNL     1       3.461   2.923  -1.782  0.00  0.00    +0.002 C 
ATOM     24  C   UNL     1       3.144   3.350  -0.347  0.00  0.00    -0.011 C 
ENDBRANCH   8  24
ENDBRANCH   1   8
BRANCH   1  25
ATOM     25  C   UNL     1       1.319   5.052  -1.182  0.00  0.00    -0.036 C 
BRANCH  25  26
ATOM     26  C   UNL     1       1.143   5.955   0.011  0.00  0.00    +0.001 A 
ATOM     27  C   UNL     1       2.201   6.223   0.819  0.00  0.00    +0.017 A 
ATOM     28  C   UNL     1       1.999   7.107   1.966  0.00  0.00    +0.002 A 
ATOM     29  C   UNL     1       3.054   7.422   2.830  0.00  0.00    +0.059 A 
ATOM     30  C   UNL     1       2.833   8.257   3.906  0.00  0.00    +0.163 A 
ATOM     31  C   UNL     1       1.560   8.787   4.135  0.00  0.00    +0.164 A 
ATOM     32  C   UNL     1       0.511   8.481   3.285  0.00  0.00    +0.075 A 
ATOM     33  C   UNL     1       0.717   7.642   2.198  0.00  0.00    +0.053 A 
ATOM     34  N   UNL     1      -0.319   7.325   1.342  0.00  0.00    -0.322 N 
ATOM     35  H   UNL     1      -1.202   7.692   1.503  0.00  0.00    +0.169 HD
ATOM     36  C   UNL     1      -0.121   6.515   0.288  0.00  0.00    +0.251 A 
ATOM     37  O   UNL     1      -1.058   6.257  -0.448  0.00  0.00    -0.268 OA
ATOM     38  O   UNL     1       1.335   9.615   5.191  0.00  0.00    -0.485 OA
ATOM     39  C   UNL     1       2.312   9.606   6.236  0.00  0.00    +0.270 C 
ATOM     40  C   UNL     1       3.704   9.687   5.594  0.00  0.00    +0.270 C 
ATOM     41  O   UNL     1       3.869   8.551   4.739  0.00  0.00    -0.485 OA
ENDBRANCH  25  26
ENDBRANCH   1  25
TORSDOF 9
