REMARK  Name = ZINC36562230
REMARK  18 active torsions:
REMARK  status: ('A' for Active; 'I' for Inactive)
REMARK    1  A    between atoms: C_1  and  C_2
REMARK    2  A    between atoms: C_2  and  C_3
REMARK    3  A    between atoms: C_3  and  C_4
REMARK    4  A    between atoms: C_4  and  C_5
REMARK    5  A    between atoms: C_5  and  C_6
REMARK    6  A    between atoms: C_6  and  C_8
REMARK    7  A    between atoms: C_6  and  N_22
REMARK    8  A    between atoms: N_10  and  C_11
REMARK    9  A    between atoms: C_11  and  S_12
REMARK   10  A    between atoms: S_12  and  C_15
REMARK   11  A    between atoms: C_18  and  C_21
REMARK   12  A    between atoms: N_22  and  C_23
REMARK   13  A    between atoms: C_23  and  C_24
REMARK   14  A    between atoms: C_24  and  C_25
REMARK   15  A    between atoms: C_26  and  C_28
REMARK   16  A    between atoms: C_36  and  C_38
REMARK   17  A    between atoms: C_39  and  C_40
REMARK   18  A    between atoms: C_39  and  C_41
REMARK                            x       y       z     vdW  Elec       q    Type
REMARK                         _______ _______ _______ _____ _____    ______ ____
ROOT
ATOM      1  C   UNL     1       1.907  -3.889   2.545  0.00  0.00    +0.162 C 
ENDROOT
BRANCH   1   2
ATOM      2  C   UNL     1       2.058  -4.620   3.855  0.00  0.00    +0.235 C 
ATOM      3  O   UNL     1       2.775  -5.596   3.926  0.00  0.00    -0.274 OA
ATOM      4  N   UNL     1       1.397  -4.189   4.947  0.00  0.00    -0.295 N 
ATOM      5  H   UNL     1       0.824  -3.408   4.891  0.00  0.00    +0.150 HD
BRANCH   4   6
ATOM      6  C   UNL     1       1.544  -4.899   6.220  0.00  0.00    +0.278 C 
BRANCH   6   7
ATOM      7  S   UNL     1       2.832  -4.096   7.215  0.00  0.00    +0.013 S 
ATOM      8  O   UNL     1       2.943  -4.735   8.479  0.00  0.00    -0.168 OA
ATOM      9  O   UNL     1       3.986  -3.856   6.421  0.00  0.00    -0.168 OA
BRANCH   7  10
ATOM     10  C   UNL     1       2.193  -2.494   7.575  0.00  0.00    +0.090 A 
ATOM     11  C   UNL     1       2.443  -1.441   6.715  0.00  0.00    +0.027 A 
ATOM     12  C   UNL     1       1.942  -0.184   6.998  0.00  0.00    +0.005 A 
ATOM     13  C   UNL     1       1.190   0.020   8.140  0.00  0.00    -0.050 A 
ATOM     14  C   UNL     1       0.939  -1.034   8.999  0.00  0.00    +0.005 A 
ATOM     15  C   UNL     1       1.437  -2.292   8.714  0.00  0.00    +0.027 A 
ATOM     16  C   UNL     1       0.645   1.390   8.449  0.00  0.00    +0.044 C 
ENDBRANCH   7  10
ENDBRANCH   6   7
ENDBRANCH   4   6
ENDBRANCH   1   2
BRANCH   1  17
ATOM     17  N   UNL     1       2.362  -4.750   1.451  0.00  0.00    -0.290 N 
ATOM     18  C   UNL     1       1.494  -5.145   0.498  0.00  0.00    +0.220 C 
ATOM     19  O   UNL     1       1.882  -5.812  -0.437  0.00  0.00    -0.275 OA
BRANCH  18  20
ATOM     20  C   UNL     1       0.031  -4.753   0.596  0.00  0.00    +0.079 C 
ATOM     21  C   UNL     1      -0.574  -5.422   1.826  0.00  0.00    +0.017 C 
ATOM     22  C   UNL     1      -2.015  -5.878   1.600  0.00  0.00    -0.004 C 
ATOM     23  C   UNL     1      -2.112  -6.877   0.427  0.00  0.00    +0.008 C 
ATOM     24  C   UNL     1      -2.113  -5.602  -0.454  0.00  0.00    -0.001 C 
ATOM     25  C   UNL     1      -0.672  -5.155  -0.695  0.00  0.00    +0.001 C 
ATOM     26  C   UNL     1      -0.621  -4.014  -1.716  0.00  0.00    +0.008 C 
ATOM     27  C   UNL     1      -2.837  -4.930   0.715  0.00  0.00    -0.029 C 
ATOM     28  C   UNL     1      -4.348  -5.236   0.749  0.00  0.00    +0.011 C 
ATOM     29  C   UNL     1      -2.580  -3.442   0.930  0.00  0.00    +0.011 C 
ENDBRANCH  18  20
BRANCH  17  30
ATOM     30  C   UNL     1       3.761  -5.182   1.391  0.00  0.00    +0.108 C 
BRANCH  30  31
ATOM     31  C   UNL     1       4.545  -4.245   0.471  0.00  0.00    +0.016 C 
ATOM     32  C   UNL     1       5.974  -4.768   0.309  0.00  0.00    +0.005 C 
ENDBRANCH  30  31
ENDBRANCH  17  30
ENDBRANCH   1  17
BRANCH   1  33
ATOM     33  C   UNL     1       2.749  -2.612   2.573  0.00  0.00    +0.032 C 
BRANCH  33  34
ATOM     34  C   UNL     1       2.499  -1.808   1.296  0.00  0.00    +0.002 C 
BRANCH  34  35
ATOM     35  C   UNL     1       3.341  -0.531   1.324  0.00  0.00    -0.000 C 
BRANCH  35  37
ATOM     36  C   UNL     1       3.933   1.550   0.074  0.00  0.00    +0.004 C 
ATOM     37  C   UNL     1       3.091   0.273   0.046  0.00  0.00    -0.003 C 
ENDBRANCH  35  37
ENDBRANCH  34  35
ENDBRANCH  33  34
ENDBRANCH   1  33
TORSDOF 12
