REMARK  Name = ZINC39746835
REMARK  4 active torsions:
REMARK  status: ('A' for Active; 'I' for Inactive)
REMARK    1  A    between atoms: C_3  and  C_6
REMARK    2  A    between atoms: C_8  and  S_12
REMARK    3  A    between atoms: S_12  and  C_13
REMARK    4  A    between atoms: C_13  and  C_14
REMARK                            x       y       z     vdW  Elec       q    Type
REMARK                         _______ _______ _______ _____ _____    ______ ____
ROOT
ATOM      1  S   UNL     1       7.582   1.266  -0.074  0.00  0.00    -0.084 S 
ENDROOT
BRANCH   1   4
ATOM      2  C   UNL     1       3.740   1.825  -0.024  0.00  0.00    +0.189 A 
ATOM      3  N   UNL     1       4.842   1.059  -0.044  0.00  0.00    -0.200 NA
ATOM      4  C   UNL     1       5.911   1.824  -0.050  0.00  0.00    +0.185 A 
ATOM      5  N   UNL     1       5.505   3.113  -0.033  0.00  0.00    -0.253 N 
ATOM      6  H   UNL     1       6.073   3.900  -0.032  0.00  0.00    +0.191 HD
ATOM      7  N   UNL     1       4.102   3.090  -0.022  0.00  0.00    -0.151 NA
BRANCH   2  10
ATOM      8  C   UNL     1      -0.016   1.353   0.009  0.00  0.00    +0.008 A 
ATOM      9  C   UNL     1       1.178   2.041   0.002  0.00  0.00    +0.019 A 
ATOM     10  C   UNL     1       2.347   1.329  -0.013  0.00  0.00    +0.058 A 
ATOM     11  S   UNL     1       1.752  -0.354  -0.017  0.00  0.00    -0.093 S 
ATOM     12  C   UNL     1       0.002  -0.004   0.002  0.00  0.00    +0.046 A 
ENDBRANCH   2  10
ENDBRANCH   1   4
BRANCH   1  13
ATOM     13  C   UNL     1       7.440  -0.543  -0.089  0.00  0.00    +0.104 C 
BRANCH  13  14
ATOM     14  C   UNL     1       8.838  -1.164  -0.111  0.00  0.00    +0.127 C 
ATOM     15  C   UNL     1       8.713  -2.684  -0.110  0.00  0.00    +0.124 C 
ATOM     16  C   UNL     1      10.028  -3.340  -0.450  0.00  0.00    +0.227 C 
ATOM     17  O   UNL     1      10.375  -4.368   0.091  0.00  0.00    -0.275 OA
ATOM     18  N   UNL     1      10.816  -2.736  -1.389  0.00  0.00    -0.225 N 
ATOM     19  C   UNL     1      11.925  -3.295  -1.976  0.00  0.00    +0.092 C 
ATOM     20  C   UNL     1      12.576  -2.660  -2.949  0.00  0.00    +0.064 C 
ATOM     21  S   UNL     1      11.637  -1.148  -3.112  0.00  0.00    -0.061 S 
ATOM     22  C   UNL     1      10.474  -1.452  -1.811  0.00  0.00    +0.167 C 
ATOM     23  N   UNL     1       9.554  -0.704  -1.310  0.00  0.00    -0.258 NA
ENDBRANCH  13  14
ENDBRANCH   1  13
TORSDOF 4
