REMARK  Name = ZINC64143449
REMARK  11 active torsions:
REMARK  status: ('A' for Active; 'I' for Inactive)
REMARK    1  A    between atoms: C_1  and  C_2
REMARK    2  A    between atoms: C_5  and  C_7
REMARK    3  A    between atoms: C_7  and  N_8
REMARK    4  A    between atoms: C_10  and  C_31
REMARK    5  A    between atoms: C_13  and  C_15
REMARK    6  A    between atoms: N_17  and  C_18
REMARK    7  A    between atoms: C_18  and  C_19
REMARK    8  A    between atoms: C_25  and  O_29
REMARK    9  A    between atoms: O_29  and  C_30
REMARK   10  A    between atoms: N_33  and  C_34
REMARK   11  A    between atoms: C_34  and  C_35
REMARK                            x       y       z     vdW  Elec       q    Type
REMARK                         _______ _______ _______ _____ _____    ______ ____
ROOT
ATOM      1  N   UNL     1       2.290  -3.416  -0.286  0.00  0.00    -0.344 N 
ATOM      2  C   UNL     1       1.287  -4.207  -0.699  0.00  0.00    +0.103 A 
ATOM      3  C   UNL     1       1.270  -4.741  -1.969  0.00  0.00    +0.100 A 
ATOM      4  C   UNL     1       2.385  -4.423  -2.876  0.00  0.00    +0.206 A 
ATOM      5  O   UNL     1       2.427  -4.864  -4.012  0.00  0.00    -0.286 OA
ATOM      6  C   UNL     1       3.448  -3.548  -2.353  0.00  0.00    +0.100 A 
ATOM      7  C   UNL     1       3.334  -3.081  -1.062  0.00  0.00    +0.103 A 
ENDROOT
BRANCH   6   8
ATOM      8  C   UNL     1       4.602  -3.178  -3.191  0.00  0.00    +0.249 C 
ATOM      9  O   UNL     1       4.640  -3.518  -4.358  0.00  0.00    -0.270 OA
ATOM     10  N   UNL     1       5.615  -2.463  -2.664  0.00  0.00    -0.307 N 
ATOM     11  H   UNL     1       5.620  -2.253  -1.717  0.00  0.00    +0.149 HD
BRANCH  10  12
ATOM     12  C   UNL     1       6.710  -2.002  -3.522  0.00  0.00    +0.151 C 
BRANCH  12  13
ATOM     13  C   UNL     1       7.655  -1.114  -2.710  0.00  0.00    +0.191 C 
ATOM     14  N   UNL     1       6.899  -0.044  -2.049  0.00  0.00    -0.362 N 
ATOM     15  C   UNL     1       7.064  -0.181  -0.765  0.00  0.00    +0.060 A 
ATOM     16  C   UNL     1       6.557   0.583   0.385  0.00  0.00    +0.031 A 
ATOM     17  C   UNL     1       6.892   0.212   1.634  0.00  0.00    +0.048 A 
ATOM     18  C   UNL     1       7.752  -0.936   1.892  0.00  0.00    +0.122 A 
ATOM     19  C   UNL     1       8.259  -1.690   0.886  0.00  0.00    +0.073 A 
ATOM     20  C   UNL     1       7.942  -1.354  -0.504  0.00  0.00    +0.064 A 
ATOM     21  N   UNL     1       8.287  -1.897  -1.641  0.00  0.00    -0.362 N 
ATOM     22  H   UNL     1       6.372   0.641  -2.490  0.00  0.00    +0.162 HD
ATOM     23  H   UNL     1       8.855  -2.675  -1.757  0.00  0.00    +0.162 HD
BRANCH  18  24
ATOM     24  O   UNL     1       8.055  -1.258   3.174  0.00  0.00    -0.495 OA
ATOM     25  C   UNL     1       7.411  -0.503   4.202  0.00  0.00    +0.277 C 
ENDBRANCH  18  24
ENDBRANCH  12  13
ENDBRANCH  10  12
ENDBRANCH   6   8
BRANCH   3  26
ATOM     26  C   UNL     1       0.163  -5.609  -2.409  0.00  0.00    +0.249 C 
ATOM     27  O   UNL     1      -0.696  -5.947  -1.617  0.00  0.00    -0.270 OA
ATOM     28  N   UNL     1       0.103  -6.028  -3.688  0.00  0.00    -0.308 N 
ATOM     29  H   UNL     1       0.825  -5.819  -4.301  0.00  0.00    +0.149 HD
BRANCH  28  30
ATOM     30  C   UNL     1      -1.052  -6.800  -4.152  0.00  0.00    +0.131 C 
BRANCH  30  31
ATOM     31  C   UNL     1      -0.820  -7.247  -5.573  0.00  0.00    -0.016 C 
ATOM     32  C   UNL     1      -0.895  -8.518  -5.880  0.00  0.00    +0.005 C 
ENDBRANCH  30  31
ENDBRANCH  28  30
ENDBRANCH   3  26
BRANCH   1  33
ATOM     33  C   UNL     1       2.240  -2.885   1.079  0.00  0.00    +0.195 C 
BRANCH  33  38
ATOM     34  C   UNL     1       1.348   2.073   0.827  0.00  0.00    +0.086 C 
ATOM     35  C   UNL     1       1.123   0.590   0.969  0.00  0.00    +0.102 A 
ATOM     36  C   UNL     1      -0.063  -0.009   1.175  0.00  0.00    +0.045 A 
ATOM     37  C   UNL     1       0.187  -1.399   1.246  0.00  0.00    +0.047 A 
ATOM     38  C   UNL     1       1.511  -1.566   1.078  0.00  0.00    +0.125 A 
ATOM     39  O   UNL     1       2.072  -0.358   0.905  0.00  0.00    -0.463 OA
ENDBRANCH  33  38
ENDBRANCH   1  33
TORSDOF 9
