REMARK  Name = ZINC39666416
REMARK  9 active torsions:
REMARK  status: ('A' for Active; 'I' for Inactive)
REMARK    1  A    between atoms: C_1  and  C_2
REMARK    2  A    between atoms: C_2  and  C_3
REMARK    3  A    between atoms: C_6  and  C_9
REMARK    4  A    between atoms: C_13  and  C_22
REMARK    5  A    between atoms: N_24  and  C_25
REMARK    6  A    between atoms: C_25  and  C_26
REMARK    7  A    between atoms: C_26  and  C_28
REMARK    8  A    between atoms: C_26  and  O_29
REMARK    9  A    between atoms: O_29  and  C_30
REMARK                            x       y       z     vdW  Elec       q    Type
REMARK                         _______ _______ _______ _____ _____    ______ ____
ROOT
ATOM      1  C   UNL     1      -3.260  -2.014   0.088  0.00  0.00    +0.247 C 
ATOM      2  O   UNL     1      -3.821  -2.037   1.166  0.00  0.00    -0.270 OA
ATOM      3  N   UNL     1      -3.983  -1.988  -1.049  0.00  0.00    -0.296 N 
ATOM      4  C   UNL     1      -3.490  -2.094  -2.442  0.00  0.00    +0.121 C 
ATOM      5  C   UNL     1      -4.540  -2.970  -3.162  0.00  0.00    +0.100 C 
ATOM      6  C   UNL     1      -5.825  -2.802  -2.335  0.00  0.00    -0.004 C 
ATOM      7  C   UNL     1      -5.453  -1.852  -1.187  0.00  0.00    +0.115 C 
ATOM      8  C   UNL     1      -6.273  -4.148  -1.773  0.00  0.00    -0.010 C 
ATOM      9  C   UNL     1      -7.583  -3.964  -1.003  0.00  0.00    -0.082 C 
ATOM     10  N   UNL     1      -8.609  -3.421  -1.901  0.00  0.00    +0.379 N 
ATOM     11  C   UNL     1      -8.213  -2.085  -2.364  0.00  0.00    -0.082 C 
ATOM     12  C   UNL     1      -6.929  -2.190  -3.192  0.00  0.00    -0.010 C 
ATOM     13  H   UNL     1      -8.716  -4.033  -2.697  0.00  0.00    -0.086 HD
ATOM     14  H   UNL     1      -9.487  -3.358  -1.408  0.00  0.00    -0.086 HD
ENDROOT
BRANCH   1  18
ATOM     15  C   UNL     1       0.984  -2.018  -0.096  0.00  0.00    -0.048 A 
ATOM     16  C   UNL     1       0.346  -2.334   1.090  0.00  0.00    +0.004 A 
ATOM     17  C   UNL     1      -1.032  -2.334   1.157  0.00  0.00    +0.013 A 
ATOM     18  C   UNL     1      -1.782  -2.015   0.024  0.00  0.00    +0.037 A 
ATOM     19  C   UNL     1      -1.132  -1.697  -1.170  0.00  0.00    +0.013 A 
ATOM     20  C   UNL     1       0.246  -1.695  -1.221  0.00  0.00    +0.004 A 
BRANCH  15  22
ATOM     21  C   UNL     1       3.012  -0.603   0.086  0.00  0.00    +0.009 C 
ATOM     22  C   UNL     1       2.490  -2.019  -0.162  0.00  0.00    +0.032 C 
ENDBRANCH  15  22
ENDBRANCH   1  18
BRANCH   5  23
ATOM     23  C   UNL     1      -4.103  -4.413  -3.169  0.00  0.00    +0.218 C 
ATOM     24  O   UNL     1      -3.365  -4.827  -2.300  0.00  0.00    -0.275 OA
ATOM     25  N   UNL     1      -4.532  -5.242  -4.141  0.00  0.00    -0.312 N 
ATOM     26  H   UNL     1      -5.062  -4.895  -4.875  0.00  0.00    +0.149 HD
BRANCH  25  27
ATOM     27  C   UNL     1      -4.198  -6.668  -4.087  0.00  0.00    +0.148 C 
BRANCH  27  28
ATOM     28  C   UNL     1      -4.695  -7.356  -5.360  0.00  0.00    +0.187 C 
ATOM     29  C   UNL     1      -4.408  -8.856  -5.274  0.00  0.00    +0.053 C 
BRANCH  28  30
ATOM     30  O   UNL     1      -4.021  -6.806  -6.494  0.00  0.00    -0.486 OA
BRANCH  30  31
ATOM     31  C   UNL     1      -4.640  -6.926  -7.698  0.00  0.00    +0.139 A 
ATOM     32  C   UNL     1      -5.855  -7.588  -7.792  0.00  0.00    +0.047 A 
ATOM     33  C   UNL     1      -6.482  -7.708  -9.017  0.00  0.00    +0.004 A 
ATOM     34  C   UNL     1      -5.900  -7.170 -10.149  0.00  0.00    +0.002 A 
ATOM     35  C   UNL     1      -4.689  -6.509 -10.059  0.00  0.00    +0.023 A 
ATOM     36  C   UNL     1      -4.060  -6.380  -8.835  0.00  0.00    +0.083 A 
ATOM     37 CL   UNL     1      -2.543  -5.545  -8.721  0.00  0.00    -0.080 Cl
ENDBRANCH  30  31
ENDBRANCH  28  30
ENDBRANCH  27  28
ENDBRANCH  25  27
ENDBRANCH   5  23
TORSDOF 7
