REMARK  Name = ZINC06431752
REMARK  6 active torsions:
REMARK  status: ('A' for Active; 'I' for Inactive)
REMARK    1  A    between atoms: C_1  and  C_2
REMARK    2  A    between atoms: C_4  and  C_10
REMARK    3  A    between atoms: C_6  and  C_9
REMARK    4  A    between atoms: C_7  and  O_8
REMARK    5  A    between atoms: C_11  and  C_12
REMARK    6  A    between atoms: N_22  and  C_23
REMARK                            x       y       z     vdW  Elec       q    Type
REMARK                         _______ _______ _______ _____ _____    ______ ____
ROOT
ATOM      1  C   UNL     1       0.073   2.638   7.538  0.00  0.00    +0.141 A 
ATOM      2  N   UNL     1       1.342   2.300   7.582  0.00  0.00    -0.229 NA
ATOM      3  C   UNL     1       2.239   3.012   8.288  0.00  0.00    +0.079 A 
ATOM      4  C   UNL     1       3.589   2.648   8.332  0.00  0.00    +0.028 A 
ATOM      5  C   UNL     1       4.471   3.396   9.059  0.00  0.00    +0.002 A 
ATOM      6  C   UNL     1       4.049   4.518   9.760  0.00  0.00    +0.001 A 
ATOM      7  C   UNL     1       2.726   4.902   9.737  0.00  0.00    +0.015 A 
ATOM      8  C   UNL     1       1.808   4.154   9.002  0.00  0.00    +0.065 A 
ATOM      9  C   UNL     1       0.385   4.517   8.941  0.00  0.00    +0.267 A 
ATOM     10  O   UNL     1      -0.044   5.489   9.535  0.00  0.00    -0.267 OA
ATOM     11  N   UNL     1      -0.429   3.734   8.196  0.00  0.00    -0.261 N 
ENDROOT
BRANCH  11  12
ATOM     12  C   UNL     1      -1.792   4.039   8.100  0.00  0.00    +0.051 A 
ATOM     13  C   UNL     1      -2.690   3.513   9.020  0.00  0.00    +0.026 A 
ATOM     14  C   UNL     1      -4.033   3.821   8.925  0.00  0.00    +0.002 A 
ATOM     15  C   UNL     1      -4.486   4.642   7.910  0.00  0.00    +0.000 A 
ATOM     16  C   UNL     1      -3.595   5.163   6.989  0.00  0.00    +0.002 A 
ATOM     17  C   UNL     1      -2.250   4.865   7.081  0.00  0.00    +0.026 A 
ENDBRANCH  11  12
BRANCH   1  19
ATOM     18  C   UNL     1      -0.387   0.715   6.115  0.00  0.00    +0.011 C 
ATOM     19  C   UNL     1      -0.843   1.815   6.749  0.00  0.00    +0.047 C 
BRANCH  18  23
ATOM     20  C   UNL     1      -1.198  -3.254   3.212  0.00  0.00    +0.047 C 
ATOM     21  C   UNL     1      -1.704  -2.025   3.922  0.00  0.00    -0.008 A 
ATOM     22  C   UNL     1      -0.837  -1.253   4.663  0.00  0.00    +0.015 A 
ATOM     23  C   UNL     1      -1.308  -0.112   5.322  0.00  0.00    -0.024 A 
ATOM     24  C   UNL     1      -2.659   0.239   5.223  0.00  0.00    +0.015 A 
ATOM     25  C   UNL     1      -3.518  -0.539   4.480  0.00  0.00    -0.008 A 
ATOM     26  C   UNL     1      -3.044  -1.669   3.823  0.00  0.00    +0.123 A 
ATOM     27  C   UNL     1      -4.973  -0.163   4.373  0.00  0.00    +0.047 C 
BRANCH  26  28
ATOM     28  O   UNL     1      -3.893  -2.430   3.086  0.00  0.00    -0.506 OA
ATOM     29  H   UNL     1      -4.322  -3.138   3.587  0.00  0.00    +0.292 HD
ENDBRANCH  26  28
ENDBRANCH  18  23
ENDBRANCH   1  19
TORSDOF 4
