REMARK  Name = ZINC07671544
REMARK  7 active torsions:
REMARK  status: ('A' for Active; 'I' for Inactive)
REMARK    1  A    between atoms: C_1  and  C_2
REMARK    2  A    between atoms: C_2  and  C_3
REMARK    3  A    between atoms: C_3  and  N_4
REMARK    4  A    between atoms: N_4  and  C_5
REMARK    5  A    between atoms: C_5  and  C_6
REMARK    6  A    between atoms: C_19  and  C_21
REMARK    7  A    between atoms: C_21  and  C_22
REMARK                            x       y       z     vdW  Elec       q    Type
REMARK                         _______ _______ _______ _____ _____    ______ ____
ROOT
ATOM      1  N   UNL     1       3.582   1.802  -0.022  0.00  0.00    -0.294 N 
ATOM      2  C   UNL     1       4.092   2.235  -1.192  0.00  0.00    +0.220 C 
ATOM      3  O   UNL     1       3.613   1.857  -2.240  0.00  0.00    -0.275 OA
ENDROOT
BRANCH   1   4
ATOM      4  C   UNL     1       4.161   2.259   1.243  0.00  0.00    +0.108 C 
BRANCH   4   6
ATOM      5  C   UNL     1       5.881   1.780   2.991  0.00  0.00    +0.005 C 
ATOM      6  C   UNL     1       5.276   1.303   1.669  0.00  0.00    +0.016 C 
ENDBRANCH   4   6
ENDBRANCH   1   4
BRANCH   1   7
ATOM      7  C   UNL     1       2.449   0.874  -0.017  0.00  0.00    +0.182 C 
BRANCH   7   8
ATOM      8  C   UNL     1       1.160   1.655  -0.000  0.00  0.00    +0.128 A 
ATOM      9  N   UNL     1      -0.011   0.966   0.007  0.00  0.00    -0.309 N 
ATOM     10  H   UNL     1       0.003  -0.034   0.006  0.00  0.00    +0.170 HD
ATOM     11  C   UNL     1      -1.196   1.620   0.017  0.00  0.00    +0.259 A 
ATOM     12  O   UNL     1      -2.252   1.015   0.018  0.00  0.00    -0.267 OA
ATOM     13  C   UNL     1      -1.157   3.090   0.030  0.00  0.00    +0.065 A 
ATOM     14  C   UNL     1      -2.320   3.858   0.044  0.00  0.00    +0.017 A 
ATOM     15  C   UNL     1      -2.229   5.222   0.050  0.00  0.00    +0.021 A 
ATOM     16  C   UNL     1      -0.990   5.851   0.041  0.00  0.00    +0.043 A 
ATOM     17  C   UNL     1       0.175   5.114   0.026  0.00  0.00    +0.048 A 
ATOM     18  C   UNL     1       0.107   3.720   0.021  0.00  0.00    +0.080 A 
ATOM     19  N   UNL     1       1.225   2.951   0.006  0.00  0.00    -0.232 NA
ATOM     20 CL   UNL     1      -0.907   7.585   0.047  0.00  0.00    -0.083 Cl
ENDBRANCH   7   8
ENDBRANCH   1   7
BRANCH   2  21
ATOM     21  C   UNL     1       5.258   3.190  -1.198  0.00  0.00    +0.134 C 
BRANCH  21  22
ATOM     22  C   UNL     1       5.633   3.516  -2.621  0.00  0.00    -0.003 A 
ATOM     23  C   UNL     1       6.641   2.809  -3.250  0.00  0.00    +0.007 A 
ATOM     24  C   UNL     1       6.981   3.104  -4.556  0.00  0.00    +0.000 A 
ATOM     25  C   UNL     1       6.322   4.114  -5.233  0.00  0.00    +0.003 A 
ATOM     26  C   UNL     1       5.318   4.826  -4.604  0.00  0.00    +0.038 A 
ATOM     27  C   UNL     1       4.972   4.527  -3.297  0.00  0.00    +0.127 A 
ATOM     28  F   UNL     1       3.991   5.223  -2.682  0.00  0.00    -0.205 F 
ENDBRANCH  21  22
ENDBRANCH   2  21
TORSDOF 6
