REMARK  Name = ZINC61595176
REMARK  8 active torsions:
REMARK  status: ('A' for Active; 'I' for Inactive)
REMARK    1  A    between atoms: C_1  and  C_2
REMARK    2  A    between atoms: C_2  and  C_3
REMARK    3  A    between atoms: C_2  and  N_4
REMARK    4  A    between atoms: C_10  and  S_11
REMARK    5  A    between atoms: S_11  and  C_12
REMARK    6  A    between atoms: C_12  and  C_14
REMARK    7  A    between atoms: C_12  and  C_16
REMARK    8  A    between atoms: C_14  and  N_15
REMARK                            x       y       z     vdW  Elec       q    Type
REMARK                         _______ _______ _______ _____ _____    ______ ____
ROOT
ATOM      1  C   UNL     1      -2.374  -2.990  -3.167  0.00  0.00    +0.067 C 
ENDROOT
BRANCH   1   2
ATOM      2  C   UNL     1      -1.691  -3.546  -4.391  0.00  0.00    -0.036 A 
ATOM      3  C   UNL     1      -0.498  -4.233  -4.264  0.00  0.00    +0.006 A 
ATOM      4  C   UNL     1       0.128  -4.743  -5.386  0.00  0.00    +0.015 A 
ATOM      5  C   UNL     1      -0.440  -4.566  -6.635  0.00  0.00    +0.018 A 
ATOM      6  C   UNL     1      -1.633  -3.879  -6.761  0.00  0.00    +0.015 A 
ATOM      7  C   UNL     1      -2.261  -3.373  -5.638  0.00  0.00    +0.006 A 
ATOM      8 BR   UNL     1       0.416  -5.264  -8.170  0.00  0.00    -0.050 Br
ENDBRANCH   1   2
BRANCH   1   9
ATOM      9  S   UNL     1      -1.275  -1.801  -2.349  0.00  0.00    -0.080 S 
BRANCH   9  16
ATOM     10  N   UNL     1      -1.851  -0.203  -0.126  0.00  0.00    -0.268 N 
ATOM     11  C   UNL     1      -2.904   0.119   0.652  0.00  0.00    +0.345 A 
ATOM     12  O   UNL     1      -2.891   0.884   1.600  0.00  0.00    -0.245 OA
ATOM     13  N   UNL     1      -3.974  -0.560   0.190  0.00  0.00    -0.226 N 
ATOM     14  H   UNL     1      -4.874  -0.528   0.551  0.00  0.00    +0.194 HD
ATOM     15  N   UNL     1      -3.548  -1.319  -0.909  0.00  0.00    -0.145 NA
ATOM     16  C   UNL     1      -2.279  -1.090  -1.088  0.00  0.00    +0.193 A 
BRANCH  10  18
ATOM     17  C   UNL     1      -0.495   1.832  -0.115  0.00  0.00    +0.031 C 
ATOM     18  C   UNL     1      -0.487   0.308   0.023  0.00  0.00    +0.088 C 
ATOM     19  C   UNL     1       0.055  -0.076   1.401  0.00  0.00    +0.031 C 
ENDBRANCH  10  18
ENDBRANCH   9  16
ENDBRANCH   1   9
BRANCH   1  20
ATOM     20  C   UNL     1      -2.699  -4.132  -2.202  0.00  0.00    -0.067 C 
BRANCH  20  21
ATOM     21  N   UNL     1      -3.689  -5.026  -2.817  0.00  0.00    +0.379 N 
ATOM     22  H   UNL     1      -3.847  -5.819  -2.214  0.00  0.00    -0.090 HD
ATOM     23  H   UNL     1      -4.556  -4.527  -2.950  0.00  0.00    -0.090 HD
ATOM     24  H   UNL     1      -3.345  -5.346  -3.710  0.00  0.00    -0.090 HD
ENDBRANCH  20  21
ENDBRANCH   1  20
TORSDOF 6
