REMARK  Name = ZINC07343687
REMARK  4 active torsions:
REMARK  status: ('A' for Active; 'I' for Inactive)
REMARK    1  A    between atoms: C_13  and  C_21
REMARK    2  A    between atoms: C_15  and  C_19
REMARK    3  A    between atoms: C_16  and  N_18
REMARK    4  A    between atoms: C_26  and  O_27
REMARK                            x       y       z     vdW  Elec       q    Type
REMARK                         _______ _______ _______ _____ _____    ______ ____
ROOT
ATOM      1  C   UNL     1       3.554   3.100  -0.017  0.00  0.00    +0.001 A 
ATOM      2  C   UNL     1       3.575   1.713  -0.022  0.00  0.00    +0.002 A 
ATOM      3  C   UNL     1       2.401   0.992  -0.014  0.00  0.00    +0.026 A 
ATOM      4  C   UNL     1       1.181   1.660  -0.000  0.00  0.00    +0.053 A 
ATOM      5  C   UNL     1       1.165   3.066   0.006  0.00  0.00    +0.041 A 
ATOM      6  C   UNL     1       2.367   3.777  -0.002  0.00  0.00    +0.013 A 
ATOM      7  C   UNL     1      -0.130   3.761   0.024  0.00  0.00    +0.148 A 
ATOM      8  C   UNL     1      -1.270   3.014   0.031  0.00  0.00    +0.072 A 
ATOM      9  C   UNL     1      -1.190   1.610   0.017  0.00  0.00    +0.257 A 
ATOM     10  O   UNL     1      -2.221   0.958   0.017  0.00  0.00    -0.267 OA
ATOM     11  N   UNL     1      -0.011   0.966   0.007  0.00  0.00    -0.322 N 
ATOM     12  H   UNL     1       0.003  -0.034   0.006  0.00  0.00    +0.169 HD
ATOM     13  C   UNL     1      -2.621   3.680   0.050  0.00  0.00    +0.107 C 
ATOM     14  C   UNL     1      -2.495   5.123  -0.349  0.00  0.00    +0.098 C 
ATOM     15  C   UNL     1      -1.294   5.750  -0.336  0.00  0.00    +0.199 C 
ATOM     16  O   UNL     1      -0.171   5.108   0.033  0.00  0.00    -0.440 OA
ENDROOT
BRANCH  13  17
ATOM     17  C   UNL     1      -3.200   3.594   1.438  0.00  0.00    +0.007 A 
ATOM     18  C   UNL     1      -2.531   4.164   2.503  0.00  0.00    +0.008 A 
ATOM     19  C   UNL     1      -3.062   4.087   3.777  0.00  0.00    +0.001 A 
ATOM     20  C   UNL     1      -4.265   3.437   3.989  0.00  0.00    +0.004 A 
ATOM     21  C   UNL     1      -4.938   2.864   2.927  0.00  0.00    +0.046 A 
ATOM     22  C   UNL     1      -4.409   2.946   1.647  0.00  0.00    +0.121 A 
BRANCH  22  23
ATOM     23  O   UNL     1      -5.073   2.389   0.600  0.00  0.00    -0.506 OA
ATOM     24  H   UNL     1      -4.835   1.468   0.429  0.00  0.00    +0.292 HD
ENDBRANCH  22  23
ENDBRANCH  13  17
BRANCH  15  25
ATOM     25  N   UNL     1      -1.221   7.069  -0.707  0.00  0.00    -0.328 N 
ATOM     26  H   UNL     1      -2.025   7.543  -0.974  0.00  0.00    +0.145 HD
ATOM     27  H   UNL     1      -0.367   7.528  -0.701  0.00  0.00    +0.145 HD
ENDBRANCH  15  25
BRANCH  14  28
ATOM     28  C   UNL     1      -3.663   5.848  -0.749  0.00  0.00    +0.101 C 
ATOM     29  N   UNL     1      -4.590   6.424  -1.066  0.00  0.00    -0.191 NA
ENDBRANCH  14  28
TORSDOF 4
