REMARK  Name = ZINC59311996
REMARK  10 active torsions:
REMARK  status: ('A' for Active; 'I' for Inactive)
REMARK    1  A    between atoms: C_1  and  C_2
REMARK    2  A    between atoms: C_2  and  N_3
REMARK    3  A    between atoms: C_5  and  C_8
REMARK    4  A    between atoms: N_9  and  N_10
REMARK    5  A    between atoms: C_13  and  S_16
REMARK    6  A    between atoms: S_16  and  C_17
REMARK    7  A    between atoms: C_17  and  C_18
REMARK    8  A    between atoms: C_24  and  S_26
REMARK    9  A    between atoms: S_26  and  C_27
REMARK   10  A    between atoms: C_27  and  C_28
REMARK                            x       y       z     vdW  Elec       q    Type
REMARK                         _______ _______ _______ _____ _____    ______ ____
ROOT
ATOM      1  S   UNL     1       3.863  -2.456  -9.878  0.00  0.00    -0.075 S 
ENDROOT
BRANCH   1   5
ATOM      2  N   UNL     1       4.424  -3.248  -4.828  0.00  0.00    -0.205 N 
ATOM      3  C   UNL     1       4.650  -3.341  -6.189  0.00  0.00    +0.232 A 
ATOM      4  N   UNL     1       3.968  -2.723  -7.130  0.00  0.00    -0.186 NA
ATOM      5  C   UNL     1       4.463  -3.046  -8.330  0.00  0.00    +0.211 A 
ATOM      6  N   UNL     1       5.467  -3.874  -8.167  0.00  0.00    -0.144 NA
ATOM      7  N   UNL     1       5.612  -4.077  -6.785  0.00  0.00    -0.245 N 
ATOM      8  H   UNL     1       4.986  -3.740  -4.209  0.00  0.00    +0.177 HD
ATOM      9  H   UNL     1       6.272  -4.636  -6.346  0.00  0.00    +0.192 HD
BRANCH   2  11
ATOM     10  C   UNL     1       3.173  -2.356  -3.066  0.00  0.00    +0.141 C 
ATOM     11  N   UNL     1       3.385  -2.443  -4.343  0.00  0.00    -0.187 NA
BRANCH  10  14
ATOM     12  N   UNL     1       0.688  -0.476  -1.203  0.00  0.00    -0.271 N 
ATOM     13  C   UNL     1       1.739  -1.321  -1.234  0.00  0.00    +0.117 A 
ATOM     14  C   UNL     1       2.079  -1.508  -2.556  0.00  0.00    +0.032 A 
ATOM     15  C   UNL     1       1.185  -0.738  -3.331  0.00  0.00    +0.143 A 
ATOM     16  N   UNL     1       0.360  -0.133  -2.520  0.00  0.00    -0.179 NA
BRANCH  12  18
ATOM     17  C   UNL     1      -0.019   1.526   0.010  0.00  0.00    +0.029 C 
ATOM     18  C   UNL     1       0.002  -0.004   0.002  0.00  0.00    +0.140 C 
ENDBRANCH  12  18
ENDBRANCH  10  14
ENDBRANCH   2  11
ENDBRANCH   1   5
BRANCH   1  19
ATOM     19  C   UNL     1       4.942  -3.252 -11.099  0.00  0.00    +0.173 C 
BRANCH  19  20
ATOM     20  C   UNL     1       4.531  -2.826 -12.485  0.00  0.00    +0.229 C 
ATOM     21  O   UNL     1       3.602  -2.061 -12.634  0.00  0.00    -0.275 OA
ATOM     22  N   UNL     1       5.197  -3.296 -13.559  0.00  0.00    -0.263 N 
ATOM     23  C   UNL     1       4.817  -2.903 -14.840  0.00  0.00    +0.189 A 
ATOM     24  N   UNL     1       3.852  -2.085 -15.228  0.00  0.00    -0.125 NA
ATOM     25  N   UNL     1       3.639  -1.832 -16.445  0.00  0.00    -0.133 NA
ATOM     26  C   UNL     1       4.369  -2.370 -17.411  0.00  0.00    +0.160 A 
ATOM     27  S   UNL     1       5.502  -3.353 -16.432  0.00  0.00    -0.024 S 
ATOM     28  H   UNL     1       5.940  -3.908 -13.440  0.00  0.00    +0.157 HD
BRANCH  26  29
ATOM     29  S   UNL     1       4.261  -2.170 -19.158  0.00  0.00    -0.092 S 
BRANCH  29  30
ATOM     30  C   UNL     1       2.877  -1.019 -19.383  0.00  0.00    +0.111 C 
BRANCH  30  31
ATOM     31  C   UNL     1       2.674  -0.759 -20.854  0.00  0.00    -0.037 A 
ATOM     32  C   UNL     1       3.345   0.281 -21.471  0.00  0.00    +0.004 A 
ATOM     33  C   UNL     1       3.159   0.519 -22.819  0.00  0.00    +0.000 A 
ATOM     34  C   UNL     1       2.302  -0.282 -23.551  0.00  0.00    +0.000 A 
ATOM     35  C   UNL     1       1.633  -1.322 -22.934  0.00  0.00    +0.000 A 
ATOM     36  C   UNL     1       1.822  -1.563 -21.587  0.00  0.00    +0.004 A 
ENDBRANCH  30  31
ENDBRANCH  29  30
ENDBRANCH  26  29
ENDBRANCH  19  20
ENDBRANCH   1  19
TORSDOF 9
