REMARK  Name = ZINC04048060
REMARK  8 active torsions:
REMARK  status: ('A' for Active; 'I' for Inactive)
REMARK    1  A    between atoms: C_1  and  C_2
REMARK    2  A    between atoms: C_2  and  C_3
REMARK    3  A    between atoms: C_3  and  O_4
REMARK    4  A    between atoms: O_4  and  C_5
REMARK    5  A    between atoms: C_8  and  C_13
REMARK    6  A    between atoms: C_10  and  O_11
REMARK    7  A    between atoms: O_11  and  C_12
REMARK    8  A    between atoms: C_18  and  C_23
REMARK                            x       y       z     vdW  Elec       q    Type
REMARK                         _______ _______ _______ _____ _____    ______ ____
ROOT
ATOM      1  C   UNL     1       2.282   0.479   3.597  0.00  0.00    +0.136 C 
ATOM      2  C   UNL     1       1.558   0.865   2.328  0.00  0.00    +0.036 C 
ATOM      3  C   UNL     1       0.238   1.075   2.207  0.00  0.00    +0.017 C 
ATOM      4  C   UNL     1      -0.350   1.509   0.873  0.00  0.00    +0.059 C 
ATOM      5  C   UNL     1       0.440   0.876  -0.271  0.00  0.00    +0.032 C 
ATOM      6  C   UNL     1       1.892   1.355  -0.157  0.00  0.00    +0.088 C 
ATOM      7  C   UNL     1       2.408   0.999   1.205  0.00  0.00    +0.163 C 
ATOM      8  O   UNL     1       3.602   0.820   1.350  0.00  0.00    -0.292 OA
ATOM      9  N   UNL     1      -0.672   0.945   3.207  0.00  0.00    -0.316 N 
ATOM     10  C   UNL     1      -0.524   1.475   4.485  0.00  0.00    +0.052 A 
ATOM     11  C   UNL     1      -1.375   2.443   4.988  0.00  0.00    +0.025 A 
ATOM     12  C   UNL     1      -1.200   2.892   6.286  0.00  0.00    +0.002 A 
ATOM     13  C   UNL     1      -0.185   2.374   7.070  0.00  0.00    +0.002 A 
ATOM     14  C   UNL     1       0.677   1.419   6.562  0.00  0.00    +0.025 A 
ATOM     15  C   UNL     1       0.518   0.983   5.255  0.00  0.00    +0.049 A 
ATOM     16  N   UNL     1       1.409   0.081   4.681  0.00  0.00    -0.331 N 
ATOM     17  H   UNL     1      -1.482   0.447   3.016  0.00  0.00    +0.152 HD
ATOM     18  H   UNL     1       1.446  -0.830   5.012  0.00  0.00    +0.147 HD
ENDROOT
BRANCH   1  22
ATOM     19  C   UNL     1       4.619   3.818   4.893  0.00  0.00    +0.162 A 
ATOM     20  C   UNL     1       3.237   3.914   4.842  0.00  0.00    +0.050 A 
ATOM     21  C   UNL     1       2.485   2.833   4.423  0.00  0.00    +0.009 A 
ATOM     22  C   UNL     1       3.107   1.655   4.053  0.00  0.00    -0.019 A 
ATOM     23  C   UNL     1       4.484   1.550   4.107  0.00  0.00    +0.055 A 
ATOM     24  C   UNL     1       5.245   2.632   4.522  0.00  0.00    +0.162 A 
BRANCH  24  25
ATOM     25  O   UNL     1       6.601   2.533   4.571  0.00  0.00    -0.491 OA
ATOM     26  C   UNL     1       7.175   1.286   4.175  0.00  0.00    +0.277 C 
ENDBRANCH  24  25
BRANCH  19  27
ATOM     27  O   UNL     1       5.361   4.880   5.306  0.00  0.00    -0.488 OA
BRANCH  27  28
ATOM     28  C   UNL     1       4.650   6.065   5.672  0.00  0.00    +0.229 C 
BRANCH  28  30
ATOM     29  C   UNL     1       4.885   8.411   6.497  0.00  0.00    +0.007 C 
ATOM     30  C   UNL     1       5.646   7.143   6.105  0.00  0.00    +0.038 C 
ENDBRANCH  28  30
ENDBRANCH  27  28
ENDBRANCH  19  27
ENDBRANCH   1  22
BRANCH   5  31
ATOM     31  C   UNL     1      -0.138   1.310  -1.594  0.00  0.00    -0.044 A 
ATOM     32  C   UNL     1      -0.198   2.654  -1.914  0.00  0.00    +0.004 A 
ATOM     33  C   UNL     1      -0.724   3.052  -3.129  0.00  0.00    +0.000 A 
ATOM     34  C   UNL     1      -1.199   2.107  -4.019  0.00  0.00    +0.000 A 
ATOM     35  C   UNL     1      -1.144   0.764  -3.697  0.00  0.00    +0.000 A 
ATOM     36  C   UNL     1      -0.613   0.366  -2.484  0.00  0.00    +0.004 A 
ENDBRANCH   5  31
TORSDOF 6
