REMARK  Name = ZINC65181472
REMARK  7 active torsions:
REMARK  status: ('A' for Active; 'I' for Inactive)
REMARK    1  A    between atoms: C_1  and  N_2
REMARK    2  A    between atoms: N_2  and  C_3
REMARK    3  A    between atoms: C_3  and  C_4
REMARK    4  A    between atoms: C_4  and  C_5
REMARK    5  A    between atoms: C_8  and  C_11
REMARK    6  A    between atoms: C_21  and  C_23
REMARK    7  A    between atoms: C_28  and  C_29
REMARK                            x       y       z     vdW  Elec       q    Type
REMARK                         _______ _______ _______ _____ _____    ______ ____
ROOT
ATOM      1  C   UNL     1      -0.894  -0.800   1.970  0.00  0.00    +0.094 C 
ENDROOT
BRANCH   1   2
ATOM      2  C   UNL     1      -0.752  -1.586   3.248  0.00  0.00    +0.139 C 
ATOM      3  N   UNL     1       0.329  -2.168   3.621  0.00  0.00    -0.072 NA
ATOM      4  O   UNL     1       0.149  -2.824   4.863  0.00  0.00    -0.367 OA
ATOM      5  C   UNL     1      -1.213  -2.586   5.252  0.00  0.00    +0.318 C 
ATOM      6  N   UNL     1      -1.764  -1.765   4.162  0.00  0.00    -0.291 N 
ATOM      7  H   UNL     1      -2.667  -1.417   4.100  0.00  0.00    +0.151 HD
BRANCH   5   8
ATOM      8  C   UNL     1      -1.266  -1.821   6.576  0.00  0.00    +0.165 C 
ATOM      9  C   UNL     1      -2.702  -1.595   6.990  0.00  0.00    +0.012 C 
ATOM     10  C   UNL     1      -2.851  -2.220   8.181  0.00  0.00    -0.004 A 
ATOM     11  C   UNL     1      -3.994  -2.368   9.090  0.00  0.00    +0.010 A 
ATOM     12  C   UNL     1      -3.834  -3.066  10.237  0.00  0.00    +0.001 A 
ATOM     13  C   UNL     1      -2.607  -3.652  10.578  0.00  0.00    +0.002 A 
ATOM     14  C   UNL     1      -1.512  -3.560   9.794  0.00  0.00    +0.026 A 
ATOM     15  C   UNL     1      -1.566  -2.848   8.564  0.00  0.00    +0.043 A 
ATOM     16  N   UNL     1      -0.657  -2.619   7.646  0.00  0.00    -0.373 N 
ATOM     17  H   UNL     1       0.263  -2.926   7.670  0.00  0.00    +0.160 HD
ENDBRANCH   5   8
ENDBRANCH   1   2
BRANCH   1  18
ATOM     18  C   UNL     1       0.434  -0.820   1.209  0.00  0.00    +0.115 C 
BRANCH  18  20
ATOM     19  C   UNL     1       0.591   1.379  -0.047  0.00  0.00    +0.132 C 
ATOM     20  N   UNL     1       0.296  -0.056  -0.033  0.00  0.00    -0.300 N 
ATOM     21  C   UNL     1      -0.102  -0.673  -1.163  0.00  0.00    +0.247 C 
ATOM     22  O   UNL     1      -0.442  -1.839  -1.131  0.00  0.00    -0.270 OA
BRANCH  21  23
ATOM     23  C   UNL     1      -0.124   0.069  -2.442  0.00  0.00    +0.049 A 
ATOM     24  C   UNL     1       0.997   0.793  -2.852  0.00  0.00    +0.013 A 
ATOM     25  C   UNL     1       0.969   1.483  -4.046  0.00  0.00    +0.001 A 
ATOM     26  C   UNL     1      -0.166   1.458  -4.837  0.00  0.00    +0.001 A 
ATOM     27  C   UNL     1      -1.280   0.742  -4.437  0.00  0.00    +0.013 A 
ATOM     28  C   UNL     1      -1.264   0.043  -3.247  0.00  0.00    +0.067 A 
BRANCH  28  29
ATOM     29  C   UNL     1      -2.476  -0.741  -2.816  0.00  0.00    +0.418 C 
ATOM     30  F   UNL     1      -3.481  -0.614  -3.780  0.00  0.00    -0.166 F 
ATOM     31  F   UNL     1      -2.133  -2.090  -2.674  0.00  0.00    -0.166 F 
ATOM     32  F   UNL     1      -2.939  -0.247  -1.591  0.00  0.00    -0.166 F 
ENDBRANCH  28  29
ENDBRANCH  21  23
ENDBRANCH  18  20
ENDBRANCH   1  18
TORSDOF 6
