REMARK  Name = ZINC41640767
REMARK  8 active torsions:
REMARK  status: ('A' for Active; 'I' for Inactive)
REMARK    1  A    between atoms: C_1  and  C_2
REMARK    2  A    between atoms: C_2  and  C_4
REMARK    3  A    between atoms: C_2  and  N_7
REMARK    4  A    between atoms: C_4  and  O_5
REMARK    5  A    between atoms: O_5  and  C_6
REMARK    6  A    between atoms: N_7  and  C_8
REMARK    7  A    between atoms: C_8  and  C_10
REMARK    8  A    between atoms: C_8  and  C_11
REMARK                            x       y       z     vdW  Elec       q    Type
REMARK                         _______ _______ _______ _____ _____    ______ ____
ROOT
ATOM      1  C   UNL     1      -0.154  -0.330   2.373  0.00  0.00    -0.043 C 
ATOM      2  C   UNL     1      -0.289   1.181   2.572  0.00  0.00    -0.009 C 
ENDROOT
BRANCH   1   3
ATOM      3  C   UNL     1       0.492  -0.941   3.590  0.00  0.00    -0.048 A 
ATOM      4  C   UNL     1       1.859  -1.150   3.615  0.00  0.00    +0.004 A 
ATOM      5  C   UNL     1       2.452  -1.710   4.731  0.00  0.00    +0.015 A 
ATOM      6  C   UNL     1       1.679  -2.062   5.823  0.00  0.00    +0.019 A 
ATOM      7  C   UNL     1       0.312  -1.853   5.798  0.00  0.00    +0.030 A 
ATOM      8  C   UNL     1      -0.281  -1.288   4.683  0.00  0.00    +0.021 A 
ATOM      9 BR   UNL     1      -2.149  -0.996   4.651  0.00  0.00    -0.050 Br
ATOM     10 BR   UNL     1       2.491  -2.828   7.349  0.00  0.00    -0.050 Br
ENDBRANCH   1   3
BRANCH   1  11
ATOM     11  N   UNL     1       0.677  -0.596   1.192  0.00  0.00    +0.387 N 
ATOM     12  H   UNL     1       0.849  -1.588   1.118  0.00  0.00    -0.085 HD
ATOM     13  H   UNL     1       1.556  -0.108   1.282  0.00  0.00    -0.085 HD
BRANCH  11  15
ATOM     14  C   UNL     1       0.904  -0.263  -1.224  0.00  0.00    -0.011 C 
ATOM     15  C   UNL     1      -0.021  -0.129  -0.013  0.00  0.00    -0.048 C 
BRANCH  15  16
ATOM     16  C   UNL     1      -1.277  -0.975  -0.235  0.00  0.00    +0.143 C 
BRANCH  16  17
ATOM     17  O   UNL     1      -0.899  -2.324  -0.517  0.00  0.00    -0.385 OA
ATOM     18  C   UNL     1      -2.003  -3.202  -0.741  0.00  0.00    +0.193 C 
ENDBRANCH  16  17
ENDBRANCH  15  16
ENDBRANCH  11  15
ENDBRANCH   1  11
TORSDOF 5
