REMARK  Name = ZINC10003679
REMARK  7 active torsions:
REMARK  status: ('A' for Active; 'I' for Inactive)
REMARK    1  A    between atoms: C_4  and  C_7
REMARK    2  A    between atoms: C_7  and  C_8
REMARK    3  A    between atoms: C_7  and  C_14
REMARK    4  A    between atoms: C_7  and  O_33
REMARK    5  A    between atoms: C_19  and  C_20
REMARK    6  A    between atoms: C_19  and  N_62
REMARK    7  A    between atoms: N_24  and  C_25
REMARK                            x       y       z     vdW  Elec       q    Type
REMARK                         _______ _______ _______ _____ _____    ______ ____
ROOT
ATOM      1  C   UNL     1       2.652   5.023  -2.269  0.00  0.00    +0.026 C 
ATOM      2  C   UNL     1       1.667   5.334  -3.399  0.00  0.00    -0.012 C 
ATOM      3  C   UNL     1       0.658   4.190  -3.519  0.00  0.00    -0.078 C 
ATOM      4  C   UNL     1       0.859   3.687  -1.157  0.00  0.00    -0.078 C 
ATOM      5  C   UNL     1       1.874   4.817  -0.966  0.00  0.00    -0.012 C 
ATOM      6  N   UNL     1      -0.074   4.059  -2.242  0.00  0.00    +0.383 N 
ATOM      7  H   UNL     1      -0.508   4.961  -2.013  0.00  0.00    -0.081 HD
ENDROOT
BRANCH   1   8
ATOM      8  C   UNL     1       3.627   6.191  -2.104  0.00  0.00    +0.119 C 
BRANCH   8  12
ATOM      9  C   UNL     1       6.373   5.320   1.050  0.00  0.00    +0.000 A 
ATOM     10  C   UNL     1       6.022   6.630   0.781  0.00  0.00    +0.000 A 
ATOM     11  C   UNL     1       5.133   6.912  -0.240  0.00  0.00    +0.007 A 
ATOM     12  C   UNL     1       4.596   5.884  -0.992  0.00  0.00    -0.011 A 
ATOM     13  C   UNL     1       4.942   4.574  -0.720  0.00  0.00    +0.007 A 
ATOM     14  C   UNL     1       5.835   4.292   0.298  0.00  0.00    +0.000 A 
ENDBRANCH   8  12
BRANCH   8  15
ATOM     15  C   UNL     1       4.386   6.396  -3.390  0.00  0.00    -0.011 A 
ATOM     16  C   UNL     1       4.646   5.321  -4.218  0.00  0.00    +0.007 A 
ATOM     17  C   UNL     1       5.339   5.510  -5.399  0.00  0.00    +0.000 A 
ATOM     18  C   UNL     1       5.780   6.773  -5.747  0.00  0.00    +0.000 A 
ATOM     19  C   UNL     1       5.524   7.847  -4.916  0.00  0.00    +0.000 A 
ATOM     20  C   UNL     1       4.828   7.659  -3.737  0.00  0.00    +0.007 A 
ENDBRANCH   8  15
BRANCH   8  21
ATOM     21  O   UNL     1       2.898   7.378  -1.787  0.00  0.00    -0.379 OA
ATOM     22  H   UNL     1       2.254   7.637  -2.460  0.00  0.00    +0.211 HD
ENDBRANCH   8  21
ENDBRANCH   1   8
BRANCH   6  23
ATOM     23  C   UNL     1      -1.133   3.036  -2.369  0.00  0.00    -0.024 C 
BRANCH  23  24
ATOM     24  C   UNL     1      -1.783   2.832  -1.025  0.00  0.00    +0.007 A 
ATOM     25  C   UNL     1      -1.470   1.869  -0.133  0.00  0.00    +0.021 A 
ATOM     26  C   UNL     1      -2.317   2.034   0.981  0.00  0.00    +0.020 A 
ATOM     27  C   UNL     1      -3.112   3.094   0.732  0.00  0.00    +0.091 A 
ATOM     28  N   UNL     1      -2.787   3.592  -0.497  0.00  0.00    -0.321 N 
BRANCH  28  29
ATOM     29  C   UNL     1      -3.389   4.696  -1.118  0.00  0.00    +0.065 A 
ATOM     30  C   UNL     1      -3.224   5.968  -0.587  0.00  0.00    +0.029 A 
ATOM     31  C   UNL     1      -3.813   7.055  -1.203  0.00  0.00    +0.022 A 
ATOM     32  C   UNL     1      -4.569   6.877  -2.349  0.00  0.00    +0.042 A 
ATOM     33  C   UNL     1      -4.736   5.611  -2.881  0.00  0.00    +0.042 A 
ATOM     34  C   UNL     1      -4.148   4.520  -2.268  0.00  0.00    +0.066 A 
ATOM     35 CL   UNL     1      -4.357   2.931  -2.936  0.00  0.00    -0.081 Cl
ATOM     36 CL   UNL     1      -5.308   8.245  -3.120  0.00  0.00    -0.083 Cl
ENDBRANCH  28  29
ENDBRANCH  23  24
ENDBRANCH   6  23
TORSDOF 7
