REMARK  Name = ZINC22008814
REMARK  3 active torsions:
REMARK  status: ('A' for Active; 'I' for Inactive)
REMARK    1  A    between atoms: N_14  and  C_17
REMARK    2  A    between atoms: C_17  and  C_18
REMARK    3  A    between atoms: C_18  and  C_19
REMARK                            x       y       z     vdW  Elec       q    Type
REMARK                         _______ _______ _______ _____ _____    ______ ____
ROOT
ATOM      1  C   UNL     1      -2.612 -12.129   2.028  0.00  0.00    +0.002 A 
ATOM      2  C   UNL     1      -1.758 -11.070   2.003  0.00  0.00    +0.012 A 
ATOM      3  C   UNL     1      -0.362 -11.276   1.966  0.00  0.00    +0.032 A 
ATOM      4  C   UNL     1       0.088 -12.616   1.946  0.00  0.00    +0.055 A 
ATOM      5  C   UNL     1      -0.789 -13.681   1.972  0.00  0.00    +0.034 A 
ATOM      6  C   UNL     1      -2.148 -13.438   2.014  0.00  0.00    +0.016 A 
ATOM      7 BR   UNL     1      -0.137 -15.456   1.952  0.00  0.00    -0.049 Br
ATOM      8  S   UNL     1       1.850 -12.441   1.894  0.00  0.00    +0.015 S 
ATOM      9  N   UNL     1       1.961 -10.736   1.891  0.00  0.00    -0.194 NA
ATOM     10  C   UNL     1       0.730 -10.315   1.929  0.00  0.00    +0.138 A 
ATOM     11  N   UNL     1       0.458  -8.946   1.938  0.00  0.00    -0.318 N 
ATOM     12  C   UNL     1       1.463  -8.215   2.724  0.00  0.00    +0.088 C 
ATOM     13  C   UNL     1       1.086  -6.733   2.776  0.00  0.00    -0.060 C 
ATOM     14  N   UNL     1       1.004  -6.202   1.407  0.00  0.00    +0.382 N 
ATOM     15  C   UNL     1      -0.000  -6.933   0.622  0.00  0.00    -0.060 C 
ATOM     16  C   UNL     1       0.376  -8.416   0.570  0.00  0.00    +0.088 C 
ATOM     17  H   UNL     1       1.983  -6.348   0.927  0.00  0.00    -0.082 HD
ENDROOT
BRANCH  14  18
ATOM     18  C   UNL     1       0.718  -4.762   1.417  0.00  0.00    -0.074 C 
BRANCH  18  19
ATOM     19  C   UNL     1       0.886  -4.199   0.005  0.00  0.00    +0.018 C 
BRANCH  19  20
ATOM     20  C   UNL     1       0.593  -2.720   0.015  0.00  0.00    -0.030 A 
ATOM     21  C   UNL     1       1.632  -1.807   0.040  0.00  0.00    +0.011 A 
ATOM     22  C   UNL     1       1.360  -0.457   0.049  0.00  0.00    -0.017 A 
ATOM     23  C   UNL     1       0.050   0.005   0.035  0.00  0.00    +0.038 A 
ATOM     24  C   UNL     1      -0.991  -0.919   0.010  0.00  0.00    +0.043 A 
ATOM     25  C   UNL     1      -0.717  -2.273   0.000  0.00  0.00    +0.046 A 
ATOM     26 CL   UNL     1      -2.021  -3.418  -0.030  0.00  0.00    -0.083 Cl
ATOM     27  N   UNL     1       0.031   1.400   0.049  0.00  0.00    -0.285 N 
ATOM     28  C   UNL     1       1.268   1.926   0.072  0.00  0.00    +0.222 C 
ATOM     29  O   UNL     1       1.549   3.106   0.088  0.00  0.00    -0.275 OA
ATOM     30  C   UNL     1       2.244   0.769   0.075  0.00  0.00    +0.133 C 
ATOM     31  H   UNL     1      -0.929   1.938   0.040  0.00  0.00    +0.155 HD
ENDBRANCH  19  20
ENDBRANCH  18  19
ENDBRANCH  14  18
TORSDOF 3
