REMARK  Name = ZINC16612994
REMARK  6 active torsions:
REMARK  status: ('A' for Active; 'I' for Inactive)
REMARK    1  A    between atoms: C_4  and  N_7
REMARK    2  A    between atoms: N_9  and  C_27
REMARK    3  A    between atoms: C_18  and  C_20
REMARK    4  A    between atoms: C_27  and  C_28
REMARK    5  A    between atoms: N_30  and  C_31
REMARK    6  A    between atoms: C_31  and  C_32
REMARK                            x       y       z     vdW  Elec       q    Type
REMARK                         _______ _______ _______ _____ _____    ______ ____
ROOT
ATOM      1  N   UNL     1      -1.944  -0.072   0.884  0.00  0.00    -0.300 N 
ATOM      2  C   UNL     1      -0.487  -0.322   0.785  0.00  0.00    +0.217 C 
ATOM      3  N   UNL     1      -0.036  -0.656   2.141  0.00  0.00    -0.275 N 
ATOM      4  C   UNL     1      -1.098  -1.001   2.899  0.00  0.00    +0.241 C 
ATOM      5  O   UNL     1      -1.059  -1.347   4.061  0.00  0.00    -0.273 OA
ATOM      6  C   UNL     1      -2.343  -0.882   2.054  0.00  0.00    +0.115 C 
ATOM      7  C   UNL     1      -2.805  -2.264   1.600  0.00  0.00    +0.054 C 
ATOM      8  C   UNL     1      -3.170  -3.108   2.826  0.00  0.00    +0.110 C 
ATOM      9  N   UNL     1      -4.147  -2.367   3.635  0.00  0.00    -0.297 N 
ATOM     10  C   UNL     1      -3.820  -1.000   4.064  0.00  0.00    +0.110 C 
ATOM     11  C   UNL     1      -3.450  -0.172   2.828  0.00  0.00    +0.054 C 
ATOM     12  C   UNL     1      -5.322  -2.932   3.979  0.00  0.00    +0.247 C 
ATOM     13  O   UNL     1      -5.537  -4.098   3.711  0.00  0.00    -0.270 OA
ENDROOT
BRANCH  12  14
ATOM     14  C   UNL     1      -6.348  -2.133   4.681  0.00  0.00    +0.037 A 
ATOM     15  C   UNL     1      -6.483  -0.770   4.408  0.00  0.00    +0.014 A 
ATOM     16  C   UNL     1      -7.447  -0.031   5.062  0.00  0.00    +0.021 A 
ATOM     17  C   UNL     1      -8.271  -0.636   5.996  0.00  0.00    +0.041 A 
ATOM     18  C   UNL     1      -8.138  -1.986   6.275  0.00  0.00    +0.021 A 
ATOM     19  C   UNL     1      -7.182  -2.736   5.623  0.00  0.00    +0.014 A 
ATOM     20 CL   UNL     1      -9.478   0.302   6.820  0.00  0.00    -0.084 Cl
ENDBRANCH  12  14
BRANCH   1  24
ATOM     21  C   UNL     1      -3.915  -1.346  -2.556  0.00  0.00    +0.000 A 
ATOM     22  C   UNL     1      -4.644  -0.921  -1.460  0.00  0.00    +0.002 A 
ATOM     23  C   UNL     1      -3.994  -0.498  -0.317  0.00  0.00    +0.023 A 
ATOM     24  C   UNL     1      -2.605  -0.500  -0.270  0.00  0.00    +0.032 A 
ATOM     25  C   UNL     1      -1.876  -0.921  -1.374  0.00  0.00    +0.023 A 
ATOM     26  C   UNL     1      -2.533  -1.348  -2.511  0.00  0.00    +0.002 A 
ENDBRANCH   1  24
BRANCH   3  27
ATOM     27  C   UNL     1       1.355  -0.625   2.601  0.00  0.00    +0.205 C 
BRANCH  27  28
ATOM     28  C   UNL     1       1.674   0.744   3.145  0.00  0.00    +0.231 C 
ATOM     29  O   UNL     1       0.824   1.610   3.144  0.00  0.00    -0.274 OA
ATOM     30  N   UNL     1       2.904   1.008   3.627  0.00  0.00    -0.312 N 
ATOM     31  H   UNL     1       3.585   0.316   3.624  0.00  0.00    +0.149 HD
BRANCH  30  32
ATOM     32  C   UNL     1       3.214   2.338   4.157  0.00  0.00    +0.135 C 
BRANCH  32  33
ATOM     33  C   UNL     1       4.667   2.370   4.636  0.00  0.00    +0.135 C 
ATOM     34  C   UNL     1       5.003   3.767   5.195  0.00  0.00    +0.035 C 
ATOM     35  C   UNL     1       5.438   3.496   6.656  0.00  0.00    +0.031 C 
ATOM     36  C   UNL     1       5.823   1.995   6.607  0.00  0.00    +0.160 C 
ATOM     37  O   UNL     1       4.850   1.427   5.705  0.00  0.00    -0.375 OA
ENDBRANCH  32  33
ENDBRANCH  30  32
ENDBRANCH  27  28
ENDBRANCH   3  27
TORSDOF 6
