REMARK  Name = ZINC48819521
REMARK  5 active torsions:
REMARK  status: ('A' for Active; 'I' for Inactive)
REMARK    1  A    between atoms: C_5  and  C_7
REMARK    2  A    between atoms: C_7  and  N_8
REMARK    3  A    between atoms: N_8  and  S_9
REMARK    4  A    between atoms: S_9  and  C_12
REMARK    5  A    between atoms: C_15  and  N_19
REMARK                            x       y       z     vdW  Elec       q    Type
REMARK                         _______ _______ _______ _____ _____    ______ ____
ROOT
ATOM      1  S   UNL     1       1.203  -4.267   1.705  0.00  0.00    +0.061 S 
ATOM      2  O   UNL     1       1.573  -4.438   3.067  0.00  0.00    -0.153 OA
ATOM      3  O   UNL     1      -0.100  -4.569   1.226  0.00  0.00    -0.153 OA
ENDROOT
BRANCH   1   4
ATOM      4  C   UNL     1       2.326  -5.235   0.753  0.00  0.00    +0.133 A 
ATOM      5  C   UNL     1       1.964  -5.673  -0.508  0.00  0.00    +0.047 A 
ATOM      6  C   UNL     1       2.842  -6.432  -1.257  0.00  0.00    +0.040 A 
ATOM      7  C   UNL     1       4.091  -6.756  -0.742  0.00  0.00    +0.027 A 
ATOM      8  C   UNL     1       4.453  -6.315   0.525  0.00  0.00    +0.040 A 
ATOM      9  C   UNL     1       3.572  -5.551   1.267  0.00  0.00    +0.047 A 
ATOM     10 BR   UNL     1       4.066  -4.944   2.988  0.00  0.00    -0.048 Br
ATOM     11 BR   UNL     1       0.263  -5.231  -1.208  0.00  0.00    -0.048 Br
BRANCH   7  12
ATOM     12  N   UNL     1       4.981  -7.524  -1.496  0.00  0.00    -0.358 N 
ATOM     13  H   UNL     1       4.728  -7.832  -2.380  0.00  0.00    +0.142 HD
ATOM     14  H   UNL     1       5.853  -7.750  -1.135  0.00  0.00    +0.142 HD
ENDBRANCH   7  12
ENDBRANCH   1   4
BRANCH   1  15
ATOM     15  N   UNL     1       1.488  -2.679   1.333  0.00  0.00    -0.186 NA
ATOM     16  H   UNL     1       1.827  -2.075   2.012  0.00  0.00    +0.148 HD
BRANCH  15  17
ATOM     17  C   UNL     1       1.229  -2.186  -0.022  0.00  0.00    +0.142 C 
BRANCH  17  22
ATOM     18  C   UNL     1      -0.017   1.378   0.010  0.00  0.00    +0.000 A 
ATOM     19  C   UNL     1       1.171   2.086   0.002  0.00  0.00    +0.001 A 
ATOM     20  C   UNL     1       2.377   1.412  -0.013  0.00  0.00    +0.015 A 
ATOM     21  C   UNL     1       2.397   0.029  -0.021  0.00  0.00    +0.022 A 
ATOM     22  C   UNL     1       1.208  -0.679  -0.013  0.00  0.00    -0.018 A 
ATOM     23  C   UNL     1       0.002  -0.004   0.002  0.00  0.00    +0.006 A 
ATOM     24 BR   UNL     1       4.047  -0.894  -0.042  0.00  0.00    -0.050 Br
ENDBRANCH  17  22
ENDBRANCH  15  17
ENDBRANCH   1  15
TORSDOF 5
