REMARK  Name = ZINC20635512
REMARK  4 active torsions:
REMARK  status: ('A' for Active; 'I' for Inactive)
REMARK    1  A    between atoms: C_1  and  C_2
REMARK    2  A    between atoms: C_2  and  C_32
REMARK    3  A    between atoms: C_6  and  C_22
REMARK    4  A    between atoms: C_25  and  O_28
REMARK                            x       y       z     vdW  Elec       q    Type
REMARK                         _______ _______ _______ _____ _____    ______ ____
ROOT
ATOM      1  C   UNL     1       3.528   6.305  -1.043  0.00  0.00    +0.011 C 
ATOM      2  C   UNL     1       3.306   6.331   0.470  0.00  0.00    -0.023 C 
ATOM      3  C   UNL     1       2.048   5.534   0.821  0.00  0.00    +0.058 C 
ATOM      4  C   UNL     1       2.224   4.096   0.394  0.00  0.00    +0.017 C 
ATOM      5  C   UNL     1       3.443   3.518   0.387  0.00  0.00    +0.024 C 
ATOM      6  C   UNL     1       3.628   2.082  -0.033  0.00  0.00    +0.090 C 
ATOM      7  C   UNL     1       2.330   1.334  -0.016  0.00  0.00    +0.044 A 
ATOM      8  C   UNL     1       2.311  -0.058  -0.023  0.00  0.00    +0.127 A 
ATOM      9  N   UNL     1       1.137  -0.686  -0.013  0.00  0.00    -0.199 NA
ATOM     10  C   UNL     1       0.002  -0.004   0.002  0.00  0.00    +0.221 A 
ATOM     11  N   UNL     1      -0.016   1.321   0.009  0.00  0.00    -0.199 NA
ATOM     12  C   UNL     1       1.120   2.013   0.002  0.00  0.00    +0.134 A 
ATOM     13  N   UNL     1       1.110   3.397   0.018  0.00  0.00    -0.302 N 
ATOM     14  N   UNL     1      -1.198  -0.694   0.010  0.00  0.00    -0.300 N 
ATOM     15  C   UNL     1      -2.027  -0.294   1.153  0.00  0.00    +0.108 C 
ATOM     16  C   UNL     1      -3.399  -0.965   1.050  0.00  0.00    +0.019 C 
ATOM     17  C   UNL     1      -3.218  -2.485   1.034  0.00  0.00    +0.003 C 
ATOM     18  C   UNL     1      -2.311  -2.871  -0.138  0.00  0.00    +0.019 C 
ATOM     19  C   UNL     1      -0.971  -2.145  -0.000  0.00  0.00    +0.108 C 
ATOM     20  N   UNL     1       3.495  -0.778  -0.039  0.00  0.00    -0.343 N 
ATOM     21  C   UNL     1       4.588   4.240   0.770  0.00  0.00    +0.162 C 
ATOM     22  O   UNL     1       5.669   3.684   0.771  0.00  0.00    -0.292 OA
ATOM     23  C   UNL     1       4.501   5.684   1.179  0.00  0.00    +0.086 C 
ATOM     24  C   UNL     1       3.148   7.778   0.943  0.00  0.00    +0.011 C 
ATOM     25  H   UNL     1       0.196   3.935  -0.276  0.00  0.00    +0.153 HD
ATOM     26  H   UNL     1       3.470  -1.878  -0.044  0.00  0.00    +0.144 HD
ATOM     27  H   UNL     1       4.460  -0.250  -0.048  0.00  0.00    +0.144 HD
ENDROOT
BRANCH   6  28
ATOM     28  C   UNL     1       4.199   2.047  -1.428  0.00  0.00    -0.035 A 
ATOM     29  C   UNL     1       3.479   2.581  -2.481  0.00  0.00    +0.008 A 
ATOM     30  C   UNL     1       4.002   2.556  -3.759  0.00  0.00    +0.046 A 
ATOM     31  C   UNL     1       5.245   1.984  -3.988  0.00  0.00    +0.117 A 
ATOM     32  C   UNL     1       5.962   1.444  -2.931  0.00  0.00    +0.046 A 
ATOM     33  C   UNL     1       5.438   1.477  -1.653  0.00  0.00    +0.008 A 
BRANCH  31  34
ATOM     34  O   UNL     1       5.758   1.952  -5.246  0.00  0.00    -0.507 OA
ATOM     35  H   UNL     1       6.744   1.498  -5.426  0.00  0.00    +0.292 HD
ENDBRANCH  31  34
ENDBRANCH   6  28
TORSDOF 2
