REMARK  Name = ZINC44814275
REMARK  6 active torsions:
REMARK  status: ('A' for Active; 'I' for Inactive)
REMARK    1  A    between atoms: C_1  and  C_2
REMARK    2  A    between atoms: C_2  and  C_3
REMARK    3  A    between atoms: C_2  and  C_4
REMARK    4  A    between atoms: C_4  and  C_6
REMARK    5  A    between atoms: C_4  and  C_8
REMARK    6  A    between atoms: N_10  and  C_11
REMARK                            x       y       z     vdW  Elec       q    Type
REMARK                         _______ _______ _______ _____ _____    ______ ____
ROOT
ATOM      1  C   UNL     1      -2.163  -0.034  -1.207  0.00  0.00    +0.234 C 
ATOM      2  O   UNL     1      -1.593   0.682  -2.003  0.00  0.00    -0.274 OA
ATOM      3  N   UNL     1      -3.450  -0.376  -1.411  0.00  0.00    -0.284 N 
ATOM      4  H   UNL     1      -3.886  -1.002  -0.811  0.00  0.00    +0.155 HD
ENDROOT
BRANCH   3   5
ATOM      5  C   UNL     1      -4.158   0.170  -2.487  0.00  0.00    +0.033 A 
ATOM      6  C   UNL     1      -3.510   0.423  -3.689  0.00  0.00    +0.024 A 
ATOM      7  C   UNL     1      -4.212   0.962  -4.750  0.00  0.00    +0.016 A 
ATOM      8  C   UNL     1      -5.558   1.251  -4.615  0.00  0.00    +0.013 A 
ATOM      9  C   UNL     1      -6.206   1.000  -3.419  0.00  0.00    +0.016 A 
ATOM     10  C   UNL     1      -5.511   0.456  -2.357  0.00  0.00    +0.024 A 
ATOM     11  I   UNL     1      -6.618   2.070  -6.226  0.00  0.00    -0.044 I 
ENDBRANCH   3   5
BRANCH   1  12
ATOM     12  C   UNL     1      -1.431  -0.539   0.009  0.00  0.00    +0.180 C 
BRANCH  12  14
ATOM     13  C   UNL     1      -0.020   1.522   0.019  0.00  0.00    +0.009 C 
ATOM     14  C   UNL     1       0.003  -0.007   0.000  0.00  0.00    +0.009 C 
ATOM     15  C   UNL     1       0.746  -0.521   1.236  0.00  0.00    +0.009 C 
ENDBRANCH  12  14
BRANCH  12  16
ATOM     16  C   UNL     1      -1.409  -2.011  -0.009  0.00  0.00    +0.076 C 
ATOM     17  N   UNL     1      -1.391  -3.147  -0.022  0.00  0.00    -0.196 NA
ENDBRANCH  12  16
ENDBRANCH   1  12
TORSDOF 4
