REMARK  Name = ZINC55870825
REMARK  5 active torsions:
REMARK  status: ('A' for Active; 'I' for Inactive)
REMARK    1  A    between atoms: C_1  and  C_2
REMARK    2  A    between atoms: C_7  and  C_13
REMARK    3  A    between atoms: C_13  and  N_14
REMARK    4  A    between atoms: N_14  and  C_15
REMARK    5  A    between atoms: C_20  and  C_21
REMARK                            x       y       z     vdW  Elec       q    Type
REMARK                         _______ _______ _______ _____ _____    ______ ____
ROOT
ATOM      1  C   UNL     1      -0.018   1.503   0.010  0.00  0.00    +0.045 C 
ATOM      2  C   UNL     1       0.002  -0.004   0.002  0.00  0.00    -0.034 A 
ATOM      3  C   UNL     1       0.006  -0.697  -1.217  0.00  0.00    +0.008 A 
ATOM      4  C   UNL     1       0.025  -2.059  -1.216  0.00  0.00    +0.047 A 
ATOM      5  C   UNL     1       0.040  -2.750   0.010  0.00  0.00    +0.141 A 
ATOM      6  N   UNL     1       0.059  -4.082   0.013  0.00  0.00    -0.232 NA
ATOM      7  C   UNL     1       0.074  -4.768   1.145  0.00  0.00    +0.066 A 
ATOM      8  C   UNL     1       0.071  -4.104   2.356  0.00  0.00    +0.095 A 
ATOM      9  C   UNL     1       0.051  -2.704   2.361  0.00  0.00    +0.259 A 
ATOM     10  O   UNL     1       0.048  -2.088   3.415  0.00  0.00    -0.267 OA
ATOM     11  N   UNL     1       0.037  -2.046   1.182  0.00  0.00    -0.268 N 
ATOM     12  C   UNL     1       0.022  -0.685   1.170  0.00  0.00    +0.099 A 
ENDROOT
BRANCH   7  13
ATOM     13  C   UNL     1       0.095  -6.274   1.112  0.00  0.00    +0.157 C 
BRANCH  13  14
ATOM     14  N   UNL     1      -1.153  -6.767   0.524  0.00  0.00    -0.338 N 
ATOM     15  H   UNL     1      -1.832  -6.139   0.230  0.00  0.00    +0.146 HD
BRANCH  14  16
ATOM     16  C   UNL     1      -1.367  -8.140   0.388  0.00  0.00    +0.031 A 
ATOM     17  C   UNL     1      -0.398  -9.041   0.815  0.00  0.00    +0.038 A 
ATOM     18  C   UNL     1      -0.613 -10.399   0.678  0.00  0.00    +0.020 A 
ATOM     19  C   UNL     1      -1.790 -10.862   0.117  0.00  0.00    +0.015 A 
ATOM     20  C   UNL     1      -2.755  -9.968  -0.308  0.00  0.00    +0.006 A 
ATOM     21  C   UNL     1      -2.549  -8.609  -0.169  0.00  0.00    -0.030 A 
ATOM     22  C   UNL     1      -3.605  -7.636  -0.628  0.00  0.00    +0.045 C 
ATOM     23 BR   UNL     1       0.704 -11.626   1.258  0.00  0.00    -0.050 Br
ENDBRANCH  14  16
ENDBRANCH  13  14
ENDBRANCH   7  13
TORSDOF 3
