REMARK  Name = ZINC18939386
REMARK  8 active torsions:
REMARK  status: ('A' for Active; 'I' for Inactive)
REMARK    1  A    between atoms: C_1  and  N_45
REMARK    2  A    between atoms: C_2  and  C_3
REMARK    3  A    between atoms: C_2  and  N_45
REMARK    4  A    between atoms: C_6  and  C_8
REMARK    5  A    between atoms: C_15  and  C_16
REMARK    6  A    between atoms: C_15  and  N_45
REMARK    7  A    between atoms: N_18  and  C_19
REMARK    8  A    between atoms: C_20  and  C_24
REMARK                            x       y       z     vdW  Elec       q    Type
REMARK                         _______ _______ _______ _____ _____    ______ ____
ROOT
ATOM      1  C   UNL     1       0.717  -5.084  -1.286  0.00  0.00    -0.095 C 
ATOM      2  N   UNL     1       1.477  -5.054  -0.018  0.00  0.00    +0.388 N 
ATOM      3  H   UNL     1       0.823  -4.902   0.759  0.00  0.00    -0.081 HD
ENDROOT
BRANCH   2   4
ATOM      4  C   UNL     1       2.172  -6.342   0.184  0.00  0.00    -0.003 C 
BRANCH   4   5
ATOM      5  C   UNL     1       1.144  -7.417   0.426  0.00  0.00    +0.089 A 
ATOM      6  C   UNL     1       0.572  -8.184  -0.522  0.00  0.00    +0.043 A 
ATOM      7  C   UNL     1      -0.324  -9.052   0.134  0.00  0.00    +0.050 A 
ATOM      8  C   UNL     1      -0.248  -8.764   1.460  0.00  0.00    +0.135 A 
ATOM      9  O   UNL     1       0.650  -7.773   1.623  0.00  0.00    -0.462 OA
BRANCH   8  10
ATOM     10  C   UNL     1      -1.014  -9.425   2.537  0.00  0.00    +0.017 A 
ATOM     11  C   UNL     1      -1.918 -10.444   2.229  0.00  0.00    +0.012 A 
ATOM     12  C   UNL     1      -2.626 -11.062   3.240  0.00  0.00    +0.016 A 
ATOM     13  C   UNL     1      -2.450 -10.666   4.554  0.00  0.00    +0.018 A 
ATOM     14  C   UNL     1      -1.558  -9.653   4.865  0.00  0.00    +0.016 A 
ATOM     15  C   UNL     1      -0.841  -9.031   3.865  0.00  0.00    +0.012 A 
ATOM     16 BR   UNL     1      -3.430 -11.512   5.932  0.00  0.00    -0.050 Br
ENDBRANCH   8  10
ENDBRANCH   4   5
ENDBRANCH   2   4
BRANCH   2  17
ATOM     17  C   UNL     1       2.458  -3.949  -0.043  0.00  0.00    +0.019 C 
BRANCH  17  18
ATOM     18  C   UNL     1       1.715  -2.638  -0.029  0.00  0.00    +0.201 C 
ATOM     19  O   UNL     1       0.502  -2.629  -0.017  0.00  0.00    -0.278 OA
ATOM     20  N   UNL     1       2.397  -1.476  -0.029  0.00  0.00    -0.281 N 
ATOM     21  H   UNL     1       3.367  -1.483  -0.039  0.00  0.00    +0.155 HD
BRANCH  20  22
ATOM     22  C   UNL     1       1.713  -0.270  -0.016  0.00  0.00    +0.084 A 
ATOM     23  C   UNL     1       2.234   1.018  -0.014  0.00  0.00    +0.065 A 
ATOM     24  C   UNL     1       1.283   2.104   0.001  0.00  0.00    +0.022 A 
ATOM     25  C   UNL     1      -0.022   1.776   0.012  0.00  0.00    +0.048 A 
ATOM     26  S   UNL     1       0.002  -0.004   0.002  0.00  0.00    -0.081 S 
BRANCH  23  27
ATOM     27  C   UNL     1       3.680   1.263  -0.026  0.00  0.00    +0.244 C 
ATOM     28  O   UNL     1       4.456   0.326  -0.038  0.00  0.00    -0.270 OA
ATOM     29  N   UNL     1       4.149   2.527  -0.024  0.00  0.00    -0.325 N 
ATOM     30  H   UNL     1       3.531   3.274  -0.014  0.00  0.00    +0.145 HD
ATOM     31  H   UNL     1       5.106   2.688  -0.032  0.00  0.00    +0.145 HD
ENDBRANCH  23  27
ENDBRANCH  20  22
ENDBRANCH  17  18
ENDBRANCH   2  17
TORSDOF 7
