REMARK  Name = ZINC33654373
REMARK  13 active torsions:
REMARK  status: ('A' for Active; 'I' for Inactive)
REMARK    1  A    between atoms: C_1  and  C_2
REMARK    2  A    between atoms: N_8  and  C_9
REMARK    3  A    between atoms: C_9  and  C_10
REMARK    4  A    between atoms: C_10  and  C_11
REMARK    5  A    between atoms: C_11  and  N_12
REMARK    6  A    between atoms: C_13  and  C_15
REMARK    7  A    between atoms: C_15  and  S_16
REMARK    8  A    between atoms: S_16  and  C_17
REMARK    9  A    between atoms: C_28  and  C_31
REMARK   10  A    between atoms: N_34  and  C_35
REMARK   11  A    between atoms: C_35  and  C_36
REMARK   12  A    between atoms: C_35  and  C_37
REMARK   13  A    between atoms: C_35  and  C_38
REMARK                            x       y       z     vdW  Elec       q    Type
REMARK                         _______ _______ _______ _____ _____    ______ ____
ROOT
ATOM      1  C   UNL     1      -4.947  -2.267   0.138  0.00  0.00    +0.192 A 
ATOM      2  N   UNL     1      -3.725  -1.754   0.162  0.00  0.00    -0.207 NA
ATOM      3  C   UNL     1      -2.662  -2.542   0.285  0.00  0.00    +0.127 A 
ATOM      4  C   UNL     1      -2.850  -3.921   0.400  0.00  0.00    +0.083 A 
ATOM      5  C   UNL     1      -4.141  -4.415   0.376  0.00  0.00    +0.135 A 
ATOM      6  N   UNL     1      -5.156  -3.571   0.245  0.00  0.00    -0.210 NA
ATOM      7 CL   UNL     1      -4.431  -6.121   0.516  0.00  0.00    -0.062 Cl
ATOM      8  N   UNL     1      -1.386  -2.002   0.305  0.00  0.00    -0.312 N 
ATOM      9  C   UNL     1      -0.667  -2.397   1.524  0.00  0.00    +0.125 C 
ATOM     10  C   UNL     1       0.791  -1.935   1.425  0.00  0.00    +0.128 C 
ATOM     11  N   UNL     1       0.805  -0.493   1.133  0.00  0.00    -0.280 N 
ATOM     12  C   UNL     1      -0.004  -0.003   0.007  0.00  0.00    +0.092 C 
ATOM     13  C   UNL     1      -1.431  -0.541   0.157  0.00  0.00    +0.128 C 
ATOM     14  C   UNL     1      -0.027   1.526   0.018  0.00  0.00    +0.030 C 
ATOM     15  C   UNL     1       1.541   0.356   1.877  0.00  0.00    +0.303 C 
ATOM     16  O   UNL     1       1.475   1.553   1.677  0.00  0.00    -0.253 OA
ATOM     17  N   UNL     1       2.350  -0.122   2.844  0.00  0.00    -0.294 N 
ATOM     18  H   UNL     1       2.473  -1.208   2.970  0.00  0.00    +0.151 HD
ENDROOT
BRANCH  17  19
ATOM     19  C   UNL     1       3.064   0.804   3.726  0.00  0.00    +0.028 C 
ATOM     20  C   UNL     1       2.054   1.669   4.483  0.00  0.00    +0.031 C 
ATOM     21  C   UNL     1       3.906   0.009   4.726  0.00  0.00    +0.031 C 
ATOM     22  C   UNL     1       3.978   1.701   2.890  0.00  0.00    +0.031 C 
ENDBRANCH  17  19
BRANCH   1  23
ATOM     23  S   UNL     1      -6.329  -1.187  -0.035  0.00  0.00    -0.077 S 
BRANCH  23  24
ATOM     24  C   UNL     1      -7.677  -2.394   0.003  0.00  0.00    +0.173 C 
BRANCH  24  26
ATOM     25  N   UNL     1     -10.147  -2.379  -0.131  0.00  0.00    -0.315 N 
ATOM     26  C   UNL     1      -8.996  -1.678  -0.133  0.00  0.00    +0.223 C 
ATOM     27  O   UNL     1      -9.022  -0.470  -0.244  0.00  0.00    -0.275 OA
ATOM     28  H   UNL     1     -10.124  -3.474  -0.031  0.00  0.00    +0.149 HD
BRANCH  25  29
ATOM     29  C   UNL     1     -11.429  -1.683  -0.263  0.00  0.00    +0.102 C 
BRANCH  29  30
ATOM     30  C   UNL     1     -12.569  -2.703  -0.232  0.00  0.00    +0.000 C 
BRANCH  30  31
ATOM     31  C   UNL     1     -13.908  -1.976  -0.370  0.00  0.00    -0.077 C 
BRANCH  31  38
ATOM     32  C   UNL     1     -14.719  -3.227  -2.756  0.00  0.00    -0.013 C 
ATOM     33  C   UNL     1     -14.852  -3.947  -1.413  0.00  0.00    -0.072 C 
ATOM     34  C   UNL     1     -16.080  -4.859  -1.442  0.00  0.00    -0.016 C 
ATOM     35  C   UNL     1     -16.220  -5.562  -0.089  0.00  0.00    -0.003 C 
ATOM     36  C   UNL     1     -16.327  -4.508   1.016  0.00  0.00    -0.019 C 
ATOM     37  C   UNL     1     -15.092  -3.605   0.974  0.00  0.00    -0.078 C 
ATOM     38  N   UNL     1     -15.003  -2.955  -0.340  0.00  0.00    +0.381 N 
ATOM     39  H   UNL     1     -15.946  -2.416  -0.512  0.00  0.00    -0.081 HD
ENDBRANCH  31  38
ENDBRANCH  30  31
ENDBRANCH  29  30
ENDBRANCH  25  29
ENDBRANCH  24  26
ENDBRANCH  23  24
ENDBRANCH   1  23
TORSDOF 8
