REMARK  Name = ZINC32593006
REMARK  5 active torsions:
REMARK  status: ('A' for Active; 'I' for Inactive)
REMARK    1  A    between atoms: C_9  and  N_11
REMARK    2  A    between atoms: N_11  and  N_12
REMARK    3  A    between atoms: C_13  and  C_14
REMARK    4  A    between atoms: C_16  and  O_22
REMARK    5  A    between atoms: C_17  and  O_21
REMARK                            x       y       z     vdW  Elec       q    Type
REMARK                         _______ _______ _______ _____ _____    ______ ____
ROOT
ATOM      1  N   UNL     1      -2.454  -2.787  -0.156  0.00  0.00    -0.190 NA
ATOM      2  C   UNL     1      -2.467  -4.084  -0.095  0.00  0.00    +0.138 C 
ENDROOT
BRANCH   2   3
ATOM      3  C   UNL     1      -1.198  -4.835  -0.112  0.00  0.00    -0.001 A 
ATOM      4  C   UNL     1       0.013  -4.168   0.090  0.00  0.00    +0.058 A 
ATOM      5  C   UNL     1       1.200  -4.877   0.073  0.00  0.00    +0.160 A 
ATOM      6  C   UNL     1       1.187  -6.253  -0.145  0.00  0.00    +0.173 A 
ATOM      7  C   UNL     1      -0.016  -6.916  -0.346  0.00  0.00    +0.063 A 
ATOM      8  C   UNL     1      -1.205  -6.216  -0.324  0.00  0.00    +0.028 A 
ATOM      9 BR   UNL     1      -0.026  -8.784  -0.642  0.00  0.00    -0.046 Br
BRANCH   6  10
ATOM     10  O   UNL     1       2.355  -6.949  -0.161  0.00  0.00    -0.503 OA
ATOM     11  H   UNL     1       2.346  -8.035  -0.333  0.00  0.00    +0.292 HD
ENDBRANCH   6  10
BRANCH   5  12
ATOM     12  O   UNL     1       2.381  -4.231   0.269  0.00  0.00    -0.503 OA
ATOM     13  H   UNL     1       3.325  -4.795   0.256  0.00  0.00    +0.292 HD
ENDBRANCH   5  12
ENDBRANCH   2   3
BRANCH   1  14
ATOM     14  N   UNL     1      -1.338  -2.121  -0.680  0.00  0.00    -0.236 N 
ATOM     15  H   UNL     1      -0.516  -2.696  -1.131  0.00  0.00    +0.174 HD
BRANCH  14  24
ATOM     16  C   UNL     1      -2.241   1.384  -0.010  0.00  0.00    +0.003 A 
ATOM     17  C   UNL     1      -1.168   2.063  -0.505  0.00  0.00    +0.010 A 
ATOM     18  C   UNL     1      -0.104   1.359  -1.092  0.00  0.00    +0.002 A 
ATOM     19  C   UNL     1       1.016   2.033  -1.617  0.00  0.00    +0.011 A 
ATOM     20  C   UNL     1       2.017   1.285  -2.167  0.00  0.00    +0.020 A 
ATOM     21  C   UNL     1       1.911  -0.104  -2.198  0.00  0.00    +0.111 A 
ATOM     22  N   UNL     1       0.866  -0.727  -1.708  0.00  0.00    -0.253 NA
ATOM     23  C   UNL     1      -0.147  -0.054  -1.156  0.00  0.00    +0.093 A 
ATOM     24  C   UNL     1      -1.269  -0.732  -0.630  0.00  0.00    +0.074 A 
ATOM     25  C   UNL     1      -2.297  -0.005  -0.066  0.00  0.00    +0.027 A 
ENDBRANCH  14  24
ENDBRANCH   1  14
TORSDOF 5
