REMARK  Name = ZINC08750207
REMARK  9 active torsions:
REMARK  status: ('A' for Active; 'I' for Inactive)
REMARK    1  A    between atoms: C_1  and  N_2
REMARK    2  A    between atoms: N_2  and  C_3
REMARK    3  A    between atoms: C_4  and  C_6
REMARK    4  A    between atoms: C_9  and  N_12
REMARK    5  A    between atoms: C_13  and  C_15
REMARK    6  A    between atoms: C_15  and  N_50
REMARK    7  A    between atoms: C_16  and  C_18
REMARK    8  A    between atoms: C_16  and  C_24
REMARK    9  A    between atoms: C_16  and  N_50
REMARK                            x       y       z     vdW  Elec       q    Type
REMARK                         _______ _______ _______ _____ _____    ______ ____
ROOT
ATOM      1  C   UNL     1       1.392   0.618   2.069  0.00  0.00    +0.016 C 
ENDROOT
BRANCH   1   3
ATOM      2  N   UNL     1      -1.041   0.851   1.686  0.00  0.00    -0.287 N 
ATOM      3  C   UNL     1       0.054   0.066   1.648  0.00  0.00    +0.200 C 
ATOM      4  O   UNL     1      -0.037  -1.083   1.270  0.00  0.00    -0.278 OA
ATOM      5  H   UNL     1      -0.978   1.754   2.035  0.00  0.00    +0.155 HD
BRANCH   2   9
ATOM      6  C   UNL     1      -4.693  -0.599   0.305  0.00  0.00    +0.037 A 
ATOM      7  C   UNL     1      -4.647   0.218   1.438  0.00  0.00    +0.015 A 
ATOM      8  C   UNL     1      -3.439   0.696   1.891  0.00  0.00    +0.024 A 
ATOM      9  C   UNL     1      -2.264   0.365   1.224  0.00  0.00    +0.033 A 
ATOM     10  C   UNL     1      -2.306  -0.444   0.093  0.00  0.00    +0.024 A 
ATOM     11  C   UNL     1      -3.511  -0.929  -0.363  0.00  0.00    +0.015 A 
BRANCH   6  15
ATOM     12  C   UNL     1      -7.314  -2.916  -1.147  0.00  0.00    +0.132 C 
ATOM     13  N   UNL     1      -6.031  -2.252  -0.904  0.00  0.00    -0.304 N 
ATOM     14  C   UNL     1      -4.796  -2.825  -1.444  0.00  0.00    +0.132 C 
ATOM     15  C   UNL     1      -5.987  -1.114  -0.184  0.00  0.00    +0.246 C 
ATOM     16  O   UNL     1      -7.014  -0.511   0.064  0.00  0.00    -0.270 OA
ENDBRANCH   6  15
ENDBRANCH   2   9
ENDBRANCH   1   3
BRANCH   1  17
ATOM     17  N   UNL     1       2.415  -0.436   1.928  0.00  0.00    +0.392 N 
ATOM     18  H   UNL     1       2.456  -0.739   0.948  0.00  0.00    -0.084 HD
ATOM     19  H   UNL     1       2.164  -1.234   2.522  0.00  0.00    -0.084 HD
BRANCH  17  20
ATOM     20  C   UNL     1       3.737   0.077   2.334  0.00  0.00    -0.003 C 
BRANCH  20  21
ATOM     21  C   UNL     1       4.602  -1.077   2.771  0.00  0.00    -0.057 A 
ATOM     22  C   UNL     1       4.559  -2.273   2.079  0.00  0.00    +0.002 A 
ATOM     23  C   UNL     1       5.356  -3.330   2.477  0.00  0.00    +0.000 A 
ATOM     24  C   UNL     1       6.189  -3.194   3.572  0.00  0.00    +0.000 A 
ATOM     25  C   UNL     1       6.229  -1.999   4.266  0.00  0.00    +0.000 A 
ATOM     26  C   UNL     1       5.435  -0.941   3.865  0.00  0.00    +0.002 A 
ENDBRANCH  20  21
BRANCH  20  27
ATOM     27  C   UNL     1       4.385   0.777   1.167  0.00  0.00    -0.020 A 
ATOM     28  C   UNL     1       5.112   1.921   1.155  0.00  0.00    +0.010 A 
ATOM     29  C   UNL     1       5.618   2.381  -0.046  0.00  0.00    +0.008 A 
ATOM     30  C   UNL     1       5.364   1.681  -1.178  0.00  0.00    +0.045 A 
ATOM     31  S   UNL     1       4.388   0.320  -0.558  0.00  0.00    -0.103 S 
ENDBRANCH  20  27
ENDBRANCH  17  20
ENDBRANCH   1  17
TORSDOF 7
