REMARK  Name = ZINC16440366
REMARK  10 active torsions:
REMARK  status: ('A' for Active; 'I' for Inactive)
REMARK    1  A    between atoms: C_1  and  C_2
REMARK    2  A    between atoms: C_6  and  C_28
REMARK    3  A    between atoms: C_7  and  N_8
REMARK    4  A    between atoms: C_14  and  C_15
REMARK    5  A    between atoms: C_17  and  O_25
REMARK    6  A    between atoms: C_18  and  O_23
REMARK    7  A    between atoms: C_20  and  O_21
REMARK    8  A    between atoms: O_21  and  C_22
REMARK    9  A    between atoms: O_23  and  C_24
REMARK   10  A    between atoms: O_25  and  C_26
REMARK                            x       y       z     vdW  Elec       q    Type
REMARK                         _______ _______ _______ _____ _____    ______ ____
ROOT
ATOM      1  N   UNL     1       2.350   1.151   0.548  0.00  0.00    -0.225 NA
ATOM      2  C   UNL     1       1.134   1.636   0.429  0.00  0.00    +0.166 C 
ATOM      3  N   UNL     1      -0.060   0.950   0.380  0.00  0.00    -0.260 N 
ATOM      4  C   UNL     1      -1.205   1.599   0.250  0.00  0.00    +0.256 C 
ATOM      5  O   UNL     1      -2.268   1.009   0.200  0.00  0.00    -0.269 OA
ATOM      6  C   UNL     1      -1.136   3.069   0.173  0.00  0.00    +0.078 C 
ATOM      7  C   UNL     1      -2.142   3.974   0.044  0.00  0.00    +0.032 C 
ATOM      8  S   UNL     1       0.626   3.342   0.289  0.00  0.00    -0.049 S 
ATOM      9  H   UNL     1      -0.061  -0.018   0.437  0.00  0.00    +0.157 HD
ENDROOT
BRANCH   1  16
ATOM     10  C   UNL     1       3.582   1.813  -1.926  0.00  0.00    +0.046 C 
ATOM     11  C   UNL     1       4.068   2.358  -0.608  0.00  0.00    -0.025 A 
ATOM     12  C   UNL     1       5.146   3.218  -0.571  0.00  0.00    +0.005 A 
ATOM     13  C   UNL     1       5.597   3.715   0.639  0.00  0.00    +0.001 A 
ATOM     14  C   UNL     1       4.968   3.359   1.819  0.00  0.00    +0.005 A 
ATOM     15  C   UNL     1       3.885   2.505   1.796  0.00  0.00    -0.025 A 
ATOM     16  C   UNL     1       3.424   1.999   0.578  0.00  0.00    +0.072 A 
ATOM     17  C   UNL     1       3.200   2.119   3.082  0.00  0.00    +0.046 C 
ENDBRANCH   1  16
BRANCH   7  18
ATOM     18  C   UNL     1      -1.858   5.407   0.160  0.00  0.00    +0.022 A 
ATOM     19  C   UNL     1      -0.670   5.843   0.763  0.00  0.00    +0.061 A 
ATOM     20  C   UNL     1      -0.408   7.193   0.869  0.00  0.00    +0.162 A 
ATOM     21  C   UNL     1      -1.323   8.125   0.378  0.00  0.00    +0.165 A 
ATOM     22  C   UNL     1      -2.501   7.702  -0.219  0.00  0.00    +0.095 A 
ATOM     23  C   UNL     1      -2.772   6.350  -0.338  0.00  0.00    +0.131 A 
BRANCH  23  24
ATOM     24  O   UNL     1      -3.923   5.937  -0.928  0.00  0.00    -0.494 OA
ATOM     25  C   UNL     1      -4.806   6.952  -1.411  0.00  0.00    +0.277 C 
ENDBRANCH  23  24
BRANCH  21  26
ATOM     26  O   UNL     1      -1.059   9.453   0.486  0.00  0.00    -0.491 OA
ATOM     27  C   UNL     1      -2.037  10.354  -0.038  0.00  0.00    +0.277 C 
ENDBRANCH  21  26
BRANCH  20  28
ATOM     28  O   UNL     1       0.745   7.617   1.454  0.00  0.00    -0.491 OA
ATOM     29  C   UNL     1       1.637   6.609   1.935  0.00  0.00    +0.277 C 
ENDBRANCH  20  28
ENDBRANCH   7  18
TORSDOF 5
