REMARK  Name = ZINC35896958
REMARK  12 active torsions:
REMARK  status: ('A' for Active; 'I' for Inactive)
REMARK    1  A    between atoms: C_1  and  C_2
REMARK    2  A    between atoms: C_2  and  C_3
REMARK    3  A    between atoms: C_3  and  C_5
REMARK    4  A    between atoms: C_3  and  O_15
REMARK    5  A    between atoms: N_7  and  C_8
REMARK    6  A    between atoms: C_8  and  C_9
REMARK    7  A    between atoms: C_9  and  N_10
REMARK    8  A    between atoms: O_15  and  C_16
REMARK    9  A    between atoms: C_22  and  C_31
REMARK   10  A    between atoms: C_27  and  C_29
REMARK   11  A    between atoms: C_29  and  C_30
REMARK   12  A    between atoms: C_35  and  C_37
REMARK                            x       y       z     vdW  Elec       q    Type
REMARK                         _______ _______ _______ _____ _____    ______ ____
ROOT
ATOM      1  C   UNL     1       0.189   1.132  -2.909  0.00  0.00    +0.122 A 
ATOM      2  C   UNL     1       1.178   1.944  -2.373  0.00  0.00    +0.046 A 
ATOM      3  C   UNL     1       1.375   3.209  -2.883  0.00  0.00    +0.007 A 
ATOM      4  C   UNL     1       0.596   3.680  -3.933  0.00  0.00    -0.040 A 
ATOM      5  C   UNL     1      -0.379   2.871  -4.473  0.00  0.00    -0.016 A 
ATOM      6  C   UNL     1      -0.583   1.597  -3.961  0.00  0.00    +0.051 A 
ATOM      7  C   UNL     1      -1.240   3.308  -5.631  0.00  0.00    +0.137 C 
ATOM      8  N   UNL     1      -1.066   4.746  -5.861  0.00  0.00    -0.290 N 
ATOM      9  C   UNL     1       0.308   5.272  -5.837  0.00  0.00    +0.113 C 
ATOM     10  C   UNL     1       0.861   5.078  -4.426  0.00  0.00    +0.054 C 
ATOM     11  C   UNL     1      -2.122   5.553  -6.086  0.00  0.00    +0.216 C 
ATOM     12  O   UNL     1      -3.244   5.093  -6.101  0.00  0.00    -0.276 OA
ENDROOT
BRANCH   7  13
ATOM     13  C   UNL     1      -0.837   2.550  -6.870  0.00  0.00    -0.022 A 
ATOM     14  C   UNL     1      -1.784   1.842  -7.586  0.00  0.00    +0.006 A 
ATOM     15  C   UNL     1      -1.414   1.147  -8.722  0.00  0.00    +0.001 A 
ATOM     16  C   UNL     1      -0.097   1.160  -9.142  0.00  0.00    +0.003 A 
ATOM     17  C   UNL     1       0.850   1.868  -8.426  0.00  0.00    -0.050 A 
ATOM     18  C   UNL     1       0.479   2.567  -7.293  0.00  0.00    +0.009 A 
ATOM     19  C   UNL     1       2.285   1.882  -8.884  0.00  0.00    +0.044 C 
ENDBRANCH   7  13
BRANCH  11  20
ATOM     20  C   UNL     1      -1.908   7.026  -6.319  0.00  0.00    +0.092 C 
ATOM     21  C   UNL     1      -3.259   7.708  -6.547  0.00  0.00    +0.013 C 
ENDBRANCH  11  20
BRANCH   1  22
ATOM     22  O   UNL     1      -0.017  -0.115  -2.410  0.00  0.00    -0.480 OA
BRANCH  22  23
ATOM     23  C   UNL     1       0.768  -0.499  -1.280  0.00  0.00    +0.258 C 
BRANCH  23  24
ATOM     24  C   UNL     1       1.083  -1.971  -1.363  0.00  0.00    +0.254 C 
ATOM     25  O   UNL     1       0.600  -2.645  -2.248  0.00  0.00    -0.272 OA
ATOM     26  N   UNL     1       1.900  -2.538  -0.453  0.00  0.00    -0.314 N 
ATOM     27  H   UNL     1       2.286  -1.998   0.255  0.00  0.00    +0.149 HD
BRANCH  26  28
ATOM     28  C   UNL     1       2.205  -3.968  -0.534  0.00  0.00    +0.086 C 
BRANCH  28  29
ATOM     29  C   UNL     1       3.148  -4.354   0.608  0.00  0.00    -0.060 C 
BRANCH  29  30
ATOM     30  N   UNL     1       3.455  -5.788   0.527  0.00  0.00    +0.381 N 
ATOM     31  C   UNL     1       4.289  -6.067  -0.670  0.00  0.00    -0.079 C 
ATOM     32  C   UNL     1       4.972  -7.413  -0.320  0.00  0.00    -0.020 C 
ATOM     33  C   UNL     1       5.256  -7.274   1.193  0.00  0.00    -0.020 C 
ATOM     34  C   UNL     1       4.268  -6.202   1.690  0.00  0.00    -0.079 C 
ATOM     35  H   UNL     1       2.601  -6.325   0.490  0.00  0.00    -0.082 HD
ENDBRANCH  29  30
ENDBRANCH  28  29
ENDBRANCH  26  28
ENDBRANCH  23  24
BRANCH  23  37
ATOM     36  C   UNL     1      -0.225   1.292   0.151  0.00  0.00    +0.008 C 
ATOM     37  C   UNL     1      -0.014  -0.216   0.004  0.00  0.00    +0.051 C 
ENDBRANCH  23  37
ENDBRANCH  22  23
ENDBRANCH   1  22
TORSDOF 9
