REMARK  Name = ZINC06141962
REMARK  8 active torsions:
REMARK  status: ('A' for Active; 'I' for Inactive)
REMARK    1  A    between atoms: C_1  and  C_2
REMARK    2  A    between atoms: C_2  and  C_4
REMARK    3  A    between atoms: C_2  and  O_15
REMARK    4  A    between atoms: O_15  and  C_16
REMARK    5  A    between atoms: C_16  and  C_18
REMARK    6  A    between atoms: C_23  and  N_24
REMARK    7  A    between atoms: N_24  and  S_25
REMARK    8  A    between atoms: S_25  and  C_28
REMARK                            x       y       z     vdW  Elec       q    Type
REMARK                         _______ _______ _______ _____ _____    ______ ____
ROOT
ATOM      1  C   UNL     1       1.621  -1.827  -3.352  0.00  0.00    +0.081 A 
ATOM      2  C   UNL     1       2.708  -1.249  -4.014  0.00  0.00    +0.017 A 
ATOM      3  C   UNL     1       3.902  -1.073  -3.351  0.00  0.00    +0.001 A 
ATOM      4  C   UNL     1       4.032  -1.460  -2.026  0.00  0.00    +0.002 A 
ATOM      5  C   UNL     1       2.967  -2.026  -1.356  0.00  0.00    +0.025 A 
ATOM      6  C   UNL     1       1.754  -2.212  -2.008  0.00  0.00    +0.062 A 
ENDROOT
BRANCH   1   7
ATOM      7  C   UNL     1       0.343  -2.024  -4.057  0.00  0.00    +0.342 C 
ATOM      8  O   UNL     1      -0.601  -2.523  -3.476  0.00  0.00    -0.245 OA
BRANCH   7   9
ATOM      9  O   UNL     1       0.221  -1.653  -5.346  0.00  0.00    -0.449 OA
BRANCH   9  11
ATOM     10  C   UNL     1      -1.086  -3.267  -6.618  0.00  0.00    +0.062 C 
ATOM     11  C   UNL     1      -1.067  -1.877  -5.977  0.00  0.00    +0.259 C 
BRANCH  11  12
ATOM     12  C   UNL     1      -1.296  -0.832  -7.038  0.00  0.00    +0.260 C 
ATOM     13  O   UNL     1      -0.381  -0.122  -7.397  0.00  0.00    -0.271 OA
ATOM     14  N   UNL     1      -2.518  -0.686  -7.588  0.00  0.00    -0.268 N 
ATOM     15  C   UNL     1      -3.722  -1.404  -7.162  0.00  0.00    +0.118 C 
ATOM     16  C   UNL     1      -4.842  -0.896  -8.084  0.00  0.00    +0.056 C 
ATOM     17  C   UNL     1      -4.163   0.105  -8.992  0.00  0.00    -0.024 A 
ATOM     18  C   UNL     1      -2.824   0.178  -8.645  0.00  0.00    +0.040 A 
ATOM     19  C   UNL     1      -1.985   1.039  -9.354  0.00  0.00    +0.024 A 
ATOM     20  C   UNL     1      -2.489   1.813 -10.378  0.00  0.00    +0.002 A 
ATOM     21  C   UNL     1      -3.828   1.736 -10.714  0.00  0.00    +0.000 A 
ATOM     22  C   UNL     1      -4.664   0.881 -10.020  0.00  0.00    +0.005 A 
ENDBRANCH  11  12
ENDBRANCH   9  11
ENDBRANCH   7   9
ENDBRANCH   1   7
BRANCH   6  23
ATOM     23  N   UNL     1       0.681  -2.782  -1.336  0.00  0.00    -0.215 N 
ATOM     24  H   UNL     1       0.064  -3.360  -1.811  0.00  0.00    +0.174 HD
BRANCH  23  25
ATOM     25  S   UNL     1       0.455  -2.474   0.275  0.00  0.00    +0.072 S 
ATOM     26  O   UNL     1       1.678  -2.794   0.925  0.00  0.00    -0.150 OA
ATOM     27  O   UNL     1      -0.780  -3.078   0.635  0.00  0.00    -0.150 OA
BRANCH  25  28
ATOM     28  C   UNL     1       0.234  -0.734   0.447  0.00  0.00    +0.109 A 
ATOM     29  C   UNL     1      -1.034  -0.189   0.375  0.00  0.00    +0.031 A 
ATOM     30  C   UNL     1      -1.209   1.175   0.510  0.00  0.00    +0.040 A 
ATOM     31  C   UNL     1      -0.114   1.996   0.718  0.00  0.00    +0.124 A 
ATOM     32  C   UNL     1       1.156   1.449   0.790  0.00  0.00    +0.040 A 
ATOM     33  C   UNL     1       1.329   0.084   0.654  0.00  0.00    +0.031 A 
ATOM     34  F   UNL     1      -0.283   3.330   0.850  0.00  0.00    -0.205 F 
ENDBRANCH  25  28
ENDBRANCH  23  25
ENDBRANCH   6  23
TORSDOF 7
