REMARK  Name = ZINC20920949
REMARK  10 active torsions:
REMARK  status: ('A' for Active; 'I' for Inactive)
REMARK    1  A    between atoms: C_1  and  O_2
REMARK    2  A    between atoms: O_2  and  C_3
REMARK    3  A    between atoms: C_8  and  C_9
REMARK    4  A    between atoms: N_22  and  C_23
REMARK    5  A    between atoms: C_23  and  C_24
REMARK    6  A    between atoms: N_26  and  C_27
REMARK    7  A    between atoms: C_29  and  O_35
REMARK    8  A    between atoms: C_31  and  O_33
REMARK    9  A    between atoms: O_33  and  C_34
REMARK   10  A    between atoms: O_35  and  C_36
REMARK                            x       y       z     vdW  Elec       q    Type
REMARK                         _______ _______ _______ _____ _____    ______ ____
ROOT
ATOM      1  C   UNL     1      -2.709   2.211   0.221  0.00  0.00    +0.005 C 
ATOM      2  C   UNL     1      -1.885   2.142  -1.023  0.00  0.00    -0.016 A 
ATOM      3  C   UNL     1      -0.668   1.551  -1.167  0.00  0.00    -0.037 A 
ATOM      4  C   UNL     1      -0.066   1.601  -2.435  0.00  0.00    -0.034 A 
ATOM      5  C   UNL     1      -0.743   2.237  -3.426  0.00  0.00    -0.007 A 
ATOM      6  S   UNL     1      -2.234   2.785  -2.636  0.00  0.00    -0.099 S 
ATOM      7  C   UNL     1      -0.319   2.425  -4.847  0.00  0.00    +0.043 C 
ATOM      8  C   UNL     1       1.180   2.105  -4.949  0.00  0.00    +0.005 C 
ATOM      9  C   UNL     1       1.450   0.783  -4.225  0.00  0.00    +0.005 C 
ATOM     10  C   UNL     1       1.296   0.971  -2.716  0.00  0.00    +0.036 C 
ATOM     11  C   UNL     1      -0.018   0.871   0.036  0.00  0.00    +0.018 C 
ATOM     12  C   UNL     1      -0.704   1.386   1.304  0.00  0.00    -0.072 C 
ATOM     13  N   UNL     1      -2.162   1.239   1.189  0.00  0.00    +0.393 N 
ATOM     14  H   UNL     1      -2.374   0.225   0.819  0.00  0.00    -0.080 HD
ENDROOT
BRANCH   1  20
ATOM     15  C   UNL     1      -4.979   2.818  -0.653  0.00  0.00    +0.122 A 
ATOM     16  C   UNL     1      -6.295   2.493  -0.949  0.00  0.00    +0.046 A 
ATOM     17  C   UNL     1      -6.770   1.224  -0.680  0.00  0.00    +0.004 A 
ATOM     18  C   UNL     1      -5.933   0.276  -0.120  0.00  0.00    +0.000 A 
ATOM     19  C   UNL     1      -4.620   0.596   0.171  0.00  0.00    +0.006 A 
ATOM     20  C   UNL     1      -4.140   1.863  -0.097  0.00  0.00    -0.014 A 
BRANCH  15  22
ATOM     21  C   UNL     1      -5.431   4.998  -1.486  0.00  0.00    +0.277 C 
ATOM     22  O   UNL     1      -4.511   4.067  -0.913  0.00  0.00    -0.495 OA
ENDBRANCH  15  22
ENDBRANCH   1  20
BRANCH  13  23
ATOM     23  C   UNL     1      -2.811   1.380   2.499  0.00  0.00    +0.020 C 
BRANCH  23  24
ATOM     24  C   UNL     1      -2.449   2.714   3.098  0.00  0.00    +0.201 C 
ATOM     25  O   UNL     1      -1.807   3.515   2.452  0.00  0.00    -0.278 OA
ATOM     26  N   UNL     1      -2.837   3.018   4.353  0.00  0.00    -0.287 N 
ATOM     27  H   UNL     1      -3.352   2.264   4.966  0.00  0.00    +0.155 HD
BRANCH  26  28
ATOM     28  C   UNL     1      -2.586   4.291   4.875  0.00  0.00    +0.040 A 
ATOM     29  C   UNL     1      -1.418   4.962   4.538  0.00  0.00    +0.069 A 
ATOM     30  C   UNL     1      -1.171   6.225   5.051  0.00  0.00    +0.125 A 
ATOM     31  C   UNL     1      -2.087   6.816   5.910  0.00  0.00    +0.091 A 
ATOM     32  C   UNL     1      -3.252   6.145   6.251  0.00  0.00    +0.125 A 
ATOM     33  C   UNL     1      -3.502   4.883   5.734  0.00  0.00    +0.069 A 
BRANCH  32  34
ATOM     34  O   UNL     1      -4.148   6.724   7.092  0.00  0.00    -0.495 OA
ATOM     35  C   UNL     1      -3.826   8.025   7.587  0.00  0.00    +0.277 C 
ENDBRANCH  32  34
BRANCH  30  36
ATOM     36  O   UNL     1      -0.030   6.884   4.718  0.00  0.00    -0.495 OA
ATOM     37  C   UNL     1       0.161   8.180   5.288  0.00  0.00    +0.277 C 
ENDBRANCH  30  36
ENDBRANCH  26  28
ENDBRANCH  23  24
ENDBRANCH  13  23
TORSDOF 7
