REMARK  Name = ZINC50988224
REMARK  6 active torsions:
REMARK  status: ('A' for Active; 'I' for Inactive)
REMARK    1  A    between atoms: C_1  and  C_2
REMARK    2  A    between atoms: C_2  and  C_3
REMARK    3  A    between atoms: C_3  and  N_4
REMARK    4  A    between atoms: C_5  and  C_17
REMARK    5  A    between atoms: C_7  and  C_10
REMARK    6  A    between atoms: C_17  and  C_18
REMARK                            x       y       z     vdW  Elec       q    Type
REMARK                         _______ _______ _______ _____ _____    ______ ____
ROOT
ATOM      1  N   UNL     1       0.762  -1.976   1.234  0.00  0.00    -0.279 N 
ATOM      2  C   UNL     1       1.737  -2.742   0.660  0.00  0.00    +0.076 C 
ATOM      3  N   UNL     1       1.531  -4.006   0.785  0.00  0.00    -0.363 N 
ATOM      4  C   UNL     1       0.275  -4.195   1.526  0.00  0.00    +0.172 C 
ATOM      5  C   UNL     1      -0.197  -2.782   1.808  0.00  0.00    +0.101 C 
ATOM      6  N   UNL     1      -1.262  -2.415   2.443  0.00  0.00    -0.388 N 
ATOM      7  H   UNL     1      -1.458  -1.472   2.557  0.00  0.00    +0.157 HD
ATOM      8  H   UNL     1      -1.864  -3.083   2.805  0.00  0.00    +0.157 HD
ATOM      9  H   UNL     1       2.105  -4.711   0.448  0.00  0.00    +0.162 HD
ENDROOT
BRANCH   4  10
ATOM     10  C   UNL     1      -0.731  -4.936   0.683  0.00  0.00    -0.017 A 
ATOM     11  C   UNL     1      -0.823  -4.674  -0.671  0.00  0.00    +0.006 A 
ATOM     12  C   UNL     1      -1.745  -5.353  -1.446  0.00  0.00    +0.001 A 
ATOM     13  C   UNL     1      -2.576  -6.294  -0.866  0.00  0.00    +0.015 A 
ATOM     14  C   UNL     1      -2.483  -6.556   0.489  0.00  0.00    +0.018 A 
ATOM     15  C   UNL     1      -1.556  -5.880   1.262  0.00  0.00    +0.021 A 
ATOM     16 BR   UNL     1      -3.619  -7.843   1.283  0.00  0.00    -0.050 Br
ENDBRANCH   4  10
BRANCH   2  17
ATOM     17  C   UNL     1       2.934  -2.164  -0.049  0.00  0.00    +0.066 C 
ATOM     18  C   UNL     1       4.073  -1.965   0.953  0.00  0.00    +0.011 C 
ENDBRANCH   2  17
BRANCH   1  19
ATOM     19  C   UNL     1       0.742  -0.511   1.242  0.00  0.00    +0.113 C 
BRANCH  19  21
ATOM     20  C   UNL     1      -0.019   1.526   0.010  0.00  0.00    +0.005 C 
ATOM     21  C   UNL     1       0.002  -0.004   0.002  0.00  0.00    +0.016 C 
ENDBRANCH  19  21
ENDBRANCH   1  19
TORSDOF 4
