REMARK  Name = ZINC37254748
REMARK  8 active torsions:
REMARK  status: ('A' for Active; 'I' for Inactive)
REMARK    1  A    between atoms: C_1  and  C_2
REMARK    2  A    between atoms: C_7  and  N_10
REMARK    3  A    between atoms: N_10  and  C_11
REMARK    4  A    between atoms: C_14  and  S_18
REMARK    5  A    between atoms: C_16  and  N_17
REMARK    6  A    between atoms: S_18  and  N_21
REMARK    7  A    between atoms: N_21  and  C_22
REMARK    8  A    between atoms: N_21  and  C_23
REMARK                            x       y       z     vdW  Elec       q    Type
REMARK                         _______ _______ _______ _____ _____    ______ ____
ROOT
ATOM      1  C   UNL     1      -0.883  -3.824   1.752  0.00  0.00    +0.048 A 
ATOM      2  C   UNL     1       0.146  -4.607   2.251  0.00  0.00    +0.027 A 
ATOM      3  C   UNL     1      -0.124  -5.867   2.753  0.00  0.00    +0.030 A 
ATOM      4  C   UNL     1      -1.420  -6.349   2.759  0.00  0.00    +0.107 A 
ATOM      5  C   UNL     1      -2.452  -5.575   2.263  0.00  0.00    +0.053 A 
ATOM      6  C   UNL     1      -2.191  -4.309   1.763  0.00  0.00    +0.048 A 
ENDROOT
BRANCH   6   7
ATOM      7  N   UNL     1      -3.236  -3.521   1.265  0.00  0.00    -0.356 N 
ATOM      8  H   UNL     1      -3.051  -2.636   0.912  0.00  0.00    +0.142 HD
ATOM      9  H   UNL     1      -4.145  -3.859   1.273  0.00  0.00    +0.142 HD
ENDBRANCH   6   7
BRANCH   4  10
ATOM     10  S   UNL     1      -1.756  -7.956   3.400  0.00  0.00    +0.060 S 
ATOM     11  O   UNL     1      -2.965  -8.391   2.792  0.00  0.00    -0.153 OA
ATOM     12  O   UNL     1      -0.545  -8.694   3.301  0.00  0.00    -0.153 OA
BRANCH  10  13
ATOM     13  N   UNL     1      -2.074  -7.782   5.016  0.00  0.00    -0.183 NA
ATOM     14  C   UNL     1      -3.446  -7.551   5.471  0.00  0.00    +0.131 C 
ATOM     15  C   UNL     1      -0.982  -7.859   5.989  0.00  0.00    +0.131 C 
ENDBRANCH  10  13
ENDBRANCH   4  10
BRANCH   1  16
ATOM     16  N   UNL     1      -0.612  -2.548   1.244  0.00  0.00    -0.340 N 
ATOM     17  H   UNL     1      -1.333  -2.000   0.898  0.00  0.00    +0.146 HD
BRANCH  16  23
ATOM     18  C   UNL     1      -0.019   1.526   0.010  0.00  0.00    +0.007 C 
ATOM     19  C   UNL     1       0.002  -0.004   0.002  0.00  0.00    -0.012 C 
ATOM     20  C   UNL     1       0.718  -0.497  -1.257  0.00  0.00    +0.003 C 
ATOM     21  C   UNL     1       0.739  -2.027  -1.265  0.00  0.00    +0.002 C 
ATOM     22  C   UNL     1       1.479  -2.534  -0.026  0.00  0.00    +0.022 C 
ATOM     23  C   UNL     1       0.763  -2.041   1.233  0.00  0.00    +0.071 C 
ATOM     24  C   UNL     1       0.742  -0.511   1.242  0.00  0.00    +0.025 C 
ENDBRANCH  16  23
ENDBRANCH   1  16
TORSDOF 5
