REMARK  Name = ZINC16647658
REMARK  9 active torsions:
REMARK  status: ('A' for Active; 'I' for Inactive)
REMARK    1  A    between atoms: C_1  and  C_2
REMARK    2  A    between atoms: C_2  and  C_3
REMARK    3  A    between atoms: C_3  and  C_5
REMARK    4  A    between atoms: C_3  and  C_6
REMARK    5  A    between atoms: C_6  and  N_7
REMARK    6  A    between atoms: C_8  and  C_10
REMARK    7  A    between atoms: C_10  and  N_11
REMARK    8  A    between atoms: N_13  and  C_34
REMARK    9  A    between atoms: C_22  and  C_24
REMARK                            x       y       z     vdW  Elec       q    Type
REMARK                         _______ _______ _______ _____ _____    ______ ____
ROOT
ATOM      1  N   UNL     1       4.168   5.985   1.752  0.00  0.00    -0.275 N 
ATOM      2  C   UNL     1       3.622   4.622   1.771  0.00  0.00    +0.217 C 
ATOM      3  N   UNL     1       2.854   4.467   0.513  0.00  0.00    -0.300 N 
ATOM      4  C   UNL     1       2.455   5.854   0.193  0.00  0.00    +0.115 C 
ATOM      5  C   UNL     1       3.498   6.728   0.846  0.00  0.00    +0.241 C 
ATOM      6  O   UNL     1       3.700   7.898   0.599  0.00  0.00    -0.273 OA
ATOM      7  C   UNL     1       1.075   6.147   0.775  0.00  0.00    +0.054 C 
ATOM      8  C   UNL     1       0.695   7.602   0.476  0.00  0.00    +0.110 C 
ATOM      9  N   UNL     1       0.816   7.834  -0.970  0.00  0.00    -0.301 N 
ATOM     10  C   UNL     1       2.088   7.516  -1.633  0.00  0.00    +0.110 C 
ATOM     11  C   UNL     1       2.457   6.062  -1.319  0.00  0.00    +0.054 C 
ATOM     12  C   UNL     1      -0.221   8.330  -1.674  0.00  0.00    +0.222 C 
ATOM     13  O   UNL     1      -0.142   8.427  -2.881  0.00  0.00    -0.275 OA
ENDROOT
BRANCH  12  14
ATOM     14  C   UNL     1      -1.477   8.763  -0.963  0.00  0.00    +0.048 C 
ATOM     15  C   UNL     1      -2.159   7.541  -0.344  0.00  0.00    +0.019 C 
ATOM     16  C   UNL     1      -3.434   7.981   0.379  0.00  0.00    -0.009 C 
ATOM     17  C   UNL     1      -4.384   8.643  -0.622  0.00  0.00    +0.007 C 
ATOM     18  C   UNL     1      -3.702   9.864  -1.241  0.00  0.00    -0.009 C 
ATOM     19  C   UNL     1      -2.426   9.425  -1.963  0.00  0.00    +0.019 C 
ATOM     20  C   UNL     1      -3.345  10.863  -0.138  0.00  0.00    +0.007 C 
ATOM     21  C   UNL     1      -2.395  10.201   0.862  0.00  0.00    -0.009 C 
ATOM     22  C   UNL     1      -3.077   8.980   1.481  0.00  0.00    +0.007 C 
ATOM     23  C   UNL     1      -1.120   9.761   0.140  0.00  0.00    +0.019 C 
ENDBRANCH  12  14
BRANCH   3  24
ATOM     24  C   UNL     1       1.734   3.656   0.707  0.00  0.00    +0.032 A 
ATOM     25  C   UNL     1       0.786   3.526  -0.300  0.00  0.00    +0.023 A 
ATOM     26  C   UNL     1      -0.321   2.723  -0.105  0.00  0.00    +0.002 A 
ATOM     27  C   UNL     1      -0.488   2.053   1.094  0.00  0.00    +0.000 A 
ATOM     28  C   UNL     1       0.456   2.176   2.096  0.00  0.00    +0.002 A 
ATOM     29  C   UNL     1       1.565   2.977   1.907  0.00  0.00    +0.023 A 
ENDBRANCH   3  24
BRANCH   1  30
ATOM     30  C   UNL     1       5.271   6.465   2.588  0.00  0.00    +0.205 C 
BRANCH  30  32
ATOM     31  N   UNL     1       5.556   7.517   4.809  0.00  0.00    -0.314 N 
ATOM     32  C   UNL     1       4.720   7.016   3.878  0.00  0.00    +0.230 C 
ATOM     33  O   UNL     1       3.524   7.008   4.079  0.00  0.00    -0.274 OA
ATOM     34  H   UNL     1       6.513   7.523   4.648  0.00  0.00    +0.149 HD
BRANCH  31  35
ATOM     35  C   UNL     1       5.021   8.053   6.063  0.00  0.00    +0.107 C 
BRANCH  35  36
ATOM     36  C   UNL     1       6.173   8.554   6.936  0.00  0.00    +0.003 C 
ATOM     37  C   UNL     1       7.055   7.372   7.345  0.00  0.00    +0.009 C 
BRANCH  36  39
ATOM     38  C   UNL     1       6.752   9.836   9.001  0.00  0.00    +0.004 C 
ATOM     39  C   UNL     1       5.607   9.226   8.189  0.00  0.00    +0.001 C 
ENDBRANCH  36  39
ENDBRANCH  35  36
ENDBRANCH  31  35
ENDBRANCH  30  32
ENDBRANCH   1  30
TORSDOF 7
