REMARK  Name = ZINC40146930
REMARK  13 active torsions:
REMARK  status: ('A' for Active; 'I' for Inactive)
REMARK    1  A    between atoms: C_1  and  C_2
REMARK    2  A    between atoms: C_5  and  S_8
REMARK    3  A    between atoms: S_8  and  N_11
REMARK    4  A    between atoms: N_11  and  C_12
REMARK    5  A    between atoms: C_12  and  C_14
REMARK    6  A    between atoms: C_12  and  C_15
REMARK    7  A    between atoms: N_17  and  C_18
REMARK    8  A    between atoms: C_18  and  C_20
REMARK    9  A    between atoms: C_18  and  C_31
REMARK   10  A    between atoms: C_20  and  N_21
REMARK   11  A    between atoms: C_31  and  C_32
REMARK   12  A    between atoms: C_31  and  C_33
REMARK   13  A    between atoms: C_31  and  C_34
REMARK                            x       y       z     vdW  Elec       q    Type
REMARK                         _______ _______ _______ _____ _____    ______ ____
ROOT
ATOM      1  C   UNL     1       3.545  -5.696   1.939  0.00  0.00    +0.232 C 
ATOM      2  O   UNL     1       3.653  -6.351   0.924  0.00  0.00    -0.274 OA
ATOM      3  N   UNL     1       4.507  -5.750   2.882  0.00  0.00    -0.312 N 
ATOM      4  H   UNL     1       4.392  -5.276   3.720  0.00  0.00    +0.149 HD
ENDROOT
BRANCH   1   5
ATOM      5  C   UNL     1       2.335  -4.822   2.147  0.00  0.00    +0.159 C 
ATOM      6  C   UNL     1       2.753  -3.351   2.096  0.00  0.00    +0.035 C 
BRANCH   5   7
ATOM      7  N   UNL     1       1.354  -5.087   1.091  0.00  0.00    -0.178 NA
ATOM      8  H   UNL     1       1.653  -5.300   0.193  0.00  0.00    +0.149 HD
BRANCH   7   9
ATOM      9  S   UNL     1      -0.266  -5.024   1.431  0.00  0.00    +0.059 S 
ATOM     10  O   UNL     1      -0.465  -5.799   2.606  0.00  0.00    -0.153 OA
ATOM     11  O   UNL     1      -0.947  -5.297   0.214  0.00  0.00    -0.153 OA
BRANCH   9  16
ATOM     12  C   UNL     1      -1.565   0.684   2.892  0.00  0.00    +0.044 C 
ATOM     13  C   UNL     1      -1.240  -0.742   2.527  0.00  0.00    -0.050 A 
ATOM     14  C   UNL     1      -1.322  -1.154   1.210  0.00  0.00    +0.005 A 
ATOM     15  C   UNL     1      -1.024  -2.462   0.875  0.00  0.00    +0.029 A 
ATOM     16  C   UNL     1      -0.644  -3.357   1.858  0.00  0.00    +0.105 A 
ATOM     17  C   UNL     1      -0.561  -2.945   3.174  0.00  0.00    +0.029 A 
ATOM     18  C   UNL     1      -0.855  -1.636   3.509  0.00  0.00    +0.005 A 
ENDBRANCH   9  16
ENDBRANCH   7   9
ENDBRANCH   5   7
ENDBRANCH   1   5
BRANCH   3  19
ATOM     19  C   UNL     1       5.726  -6.526   2.640  0.00  0.00    +0.062 C 
BRANCH  19  20
ATOM     20  C   UNL     1       5.555  -7.935   3.212  0.00  0.00    -0.021 C 
ATOM     21  C   UNL     1       4.370  -8.622   2.530  0.00  0.00    +0.012 C 
ATOM     22  C   UNL     1       6.829  -8.745   2.959  0.00  0.00    +0.012 C 
ATOM     23  C   UNL     1       5.296  -7.847   4.717  0.00  0.00    +0.012 C 
ENDBRANCH  19  20
BRANCH  19  24
ATOM     24  C   UNL     1       6.911  -5.839   3.322  0.00  0.00    -0.055 C 
BRANCH  24  25
ATOM     25  N   UNL     1       7.169  -4.547   2.672  0.00  0.00    +0.384 N 
ATOM     26  C   UNL     1       8.406  -3.963   3.211  0.00  0.00    -0.074 C 
ATOM     27  C   UNL     1       8.820  -2.791   2.321  0.00  0.00    +0.017 C 
ATOM     28  C   UNL     1       7.651  -1.859   2.127  0.00  0.00    -0.048 A 
ATOM     29  C   UNL     1       7.892  -0.580   1.652  0.00  0.00    +0.004 A 
ATOM     30  C   UNL     1       6.846   0.300   1.459  0.00  0.00    +0.000 A 
ATOM     31  C   UNL     1       5.552  -0.098   1.739  0.00  0.00    +0.000 A 
ATOM     32  C   UNL     1       5.311  -1.372   2.213  0.00  0.00    +0.002 A 
ATOM     33  C   UNL     1       6.362  -2.256   2.410  0.00  0.00    -0.061 A 
ATOM     34  C   UNL     1       6.054  -3.633   2.936  0.00  0.00    -0.043 C 
ATOM     35  H   UNL     1       7.264  -4.684   1.677  0.00  0.00    -0.081 HD
ENDBRANCH  24  25
ENDBRANCH  19  24
ENDBRANCH   3  19
TORSDOF 8
