REMARK  Name = ZINC02662072
REMARK  9 active torsions:
REMARK  status: ('A' for Active; 'I' for Inactive)
REMARK    1  A    between atoms: C_1  and  C_2
REMARK    2  A    between atoms: C_2  and  N_3
REMARK    3  A    between atoms: N_3  and  C_4
REMARK    4  A    between atoms: C_5  and  N_20
REMARK    5  A    between atoms: N_6  and  C_13
REMARK    6  A    between atoms: C_13  and  C_14
REMARK    7  A    between atoms: C_21  and  C_23
REMARK    8  A    between atoms: C_23  and  N_24
REMARK    9  A    between atoms: C_32  and  C_34
REMARK                            x       y       z     vdW  Elec       q    Type
REMARK                         _______ _______ _______ _____ _____    ______ ____
ROOT
ATOM      1  C   UNL     1      -2.136  -0.676  -1.110  0.00  0.00    +0.140 A 
ATOM      2  C   UNL     1      -1.809  -1.580  -2.100  0.00  0.00    +0.128 A 
ATOM      3  N   UNL     1      -2.635  -1.706  -3.193  0.00  0.00    -0.276 N 
ATOM      4  C   UNL     1      -3.748  -0.957  -3.295  0.00  0.00    +0.331 A 
ATOM      5  O   UNL     1      -4.465  -1.084  -4.269  0.00  0.00    -0.246 OA
ATOM      6  N   UNL     1      -4.083  -0.072  -2.340  0.00  0.00    -0.273 N 
ATOM      7  H   UNL     1      -4.891   0.455  -2.437  0.00  0.00    +0.173 HD
ATOM      8  C   UNL     1      -3.311   0.086  -1.246  0.00  0.00    +0.277 A 
ATOM      9  O   UNL     1      -3.627   0.888  -0.384  0.00  0.00    -0.266 OA
ENDROOT
BRANCH   1  10
ATOM     10  N   UNL     1      -1.309  -0.523   0.024  0.00  0.00    -0.263 N 
ATOM     11  C   UNL     1      -1.766  -0.875   1.244  0.00  0.00    +0.237 C 
ATOM     12  O   UNL     1      -2.848  -1.411   1.355  0.00  0.00    -0.274 OA
BRANCH  10  14
ATOM     13  C   UNL     1      -0.011   1.545  -0.100  0.00  0.00    +0.025 C 
ATOM     14  C   UNL     1       0.044   0.016  -0.125  0.00  0.00    +0.110 C 
ENDBRANCH  10  14
BRANCH  11  15
ATOM     15  C   UNL     1      -0.931  -0.600   2.468  0.00  0.00    +0.201 C 
BRANCH  15  16
ATOM     16  N   UNL     1      -1.642  -1.071   3.659  0.00  0.00    -0.318 N 
ATOM     17  C   UNL     1      -2.531  -0.305   4.415  0.00  0.00    +0.034 A 
ATOM     18  C   UNL     1      -2.937   1.018   4.231  0.00  0.00    +0.023 A 
ATOM     19  C   UNL     1      -3.836   1.597   5.101  0.00  0.00    +0.002 A 
ATOM     20  C   UNL     1      -4.343   0.871   6.163  0.00  0.00    +0.000 A 
ATOM     21  C   UNL     1      -3.947  -0.440   6.352  0.00  0.00    +0.005 A 
ATOM     22  C   UNL     1      -3.046  -1.024   5.482  0.00  0.00    -0.025 A 
ATOM     23  C   UNL     1      -2.453  -2.415   5.456  0.00  0.00    +0.059 C 
ATOM     24  C   UNL     1      -1.528  -2.417   4.228  0.00  0.00    +0.075 C 
ATOM     25  C   UNL     1      -0.084  -2.692   4.655  0.00  0.00    +0.028 C 
ENDBRANCH  15  16
ENDBRANCH  11  15
ENDBRANCH   1  10
BRANCH   2  26
ATOM     26  N   UNL     1      -0.671  -2.344  -1.996  0.00  0.00    -0.343 N 
ATOM     27  H   UNL     1      -0.059  -2.204  -1.257  0.00  0.00    +0.144 HD
ATOM     28  H   UNL     1      -0.481  -3.023  -2.662  0.00  0.00    +0.144 HD
ENDBRANCH   2  26
BRANCH   3  29
ATOM     29  C   UNL     1      -2.300  -2.661  -4.252  0.00  0.00    +0.163 C 
BRANCH  29  30
ATOM     30  C   UNL     1      -2.924  -3.997  -3.940  0.00  0.00    -0.028 A 
ATOM     31  C   UNL     1      -2.228  -4.927  -3.192  0.00  0.00    +0.005 A 
ATOM     32  C   UNL     1      -2.801  -6.152  -2.906  0.00  0.00    +0.000 A 
ATOM     33  C   UNL     1      -4.070  -6.447  -3.367  0.00  0.00    +0.000 A 
ATOM     34  C   UNL     1      -4.767  -5.516  -4.115  0.00  0.00    +0.000 A 
ATOM     35  C   UNL     1      -4.196  -4.289  -4.397  0.00  0.00    +0.005 A 
ENDBRANCH  29  30
ENDBRANCH   3  29
TORSDOF 7
