REMARK  Name = ZINC10153743
REMARK  10 active torsions:
REMARK  status: ('A' for Active; 'I' for Inactive)
REMARK    1  A    between atoms: C_1  and  C_2
REMARK    2  A    between atoms: C_5  and  O_9
REMARK    3  A    between atoms: C_7  and  C_8
REMARK    4  A    between atoms: O_9  and  C_10
REMARK    5  A    between atoms: C_10  and  C_12
REMARK    6  A    between atoms: C_10  and  C_13
REMARK    7  A    between atoms: N_15  and  N_16
REMARK    8  A    between atoms: N_16  and  C_17
REMARK    9  A    between atoms: C_17  and  N_19
REMARK   10  A    between atoms: C_20  and  C_22
REMARK                            x       y       z     vdW  Elec       q    Type
REMARK                         _______ _______ _______ _____ _____    ______ ____
ROOT
ATOM      1  N   UNL     1      -1.000   5.144   0.068  0.00  0.00    -0.245 N 
ATOM      2  H   UNL     1      -0.405   5.607   0.679  0.00  0.00    +0.172 HD
ENDROOT
BRANCH   1   5
ATOM      3  C   UNL     1      -0.535   3.072   1.146  0.00  0.00    +0.270 C 
ATOM      4  O   UNL     1       0.208   3.651   1.909  0.00  0.00    -0.270 OA
ATOM      5  N   UNL     1      -1.184   3.760   0.185  0.00  0.00    -0.232 N 
ATOM      6  H   UNL     1      -1.779   3.296  -0.425  0.00  0.00    +0.173 HD
BRANCH   3   7
ATOM      7  C   UNL     1      -0.734   1.583   1.272  0.00  0.00    +0.257 C 
ATOM      8  C   UNL     1      -0.188   0.889   0.022  0.00  0.00    +0.062 C 
BRANCH   7   9
ATOM      9  O   UNL     1      -0.038   1.106   2.425  0.00  0.00    -0.480 OA
BRANCH   9  14
ATOM     10  C   UNL     1      -1.924  -3.661   4.758  0.00  0.00    +0.044 C 
ATOM     11  C   UNL     1      -1.419  -2.386   4.133  0.00  0.00    -0.047 A 
ATOM     12  C   UNL     1      -0.401  -1.675   4.742  0.00  0.00    +0.007 A 
ATOM     13  C   UNL     1       0.064  -0.506   4.172  0.00  0.00    +0.046 A 
ATOM     14  C   UNL     1      -0.493  -0.044   2.987  0.00  0.00    +0.122 A 
ATOM     15  C   UNL     1      -1.518  -0.756   2.382  0.00  0.00    +0.049 A 
ATOM     16  C   UNL     1      -1.976  -1.927   2.954  0.00  0.00    -0.044 A 
ATOM     17  C   UNL     1      -3.086  -2.704   2.294  0.00  0.00    +0.044 C 
ENDBRANCH   9  14
ENDBRANCH   7   9
ENDBRANCH   3   7
ENDBRANCH   1   5
BRANCH   1  18
ATOM     18  C   UNL     1      -1.649   5.831  -0.892  0.00  0.00    +0.153 C 
ATOM     19  S   UNL     1      -1.424   7.522  -1.035  0.00  0.00    -0.017 S 
BRANCH  18  20
ATOM     20  N   UNL     1      -2.476   5.187  -1.740  0.00  0.00    -0.263 N 
ATOM     21  C   UNL     1      -3.125   5.875  -2.700  0.00  0.00    +0.251 C 
ATOM     22  O   UNL     1      -2.965   7.076  -2.802  0.00  0.00    -0.270 OA
ATOM     23  H   UNL     1      -2.603   4.229  -1.659  0.00  0.00    +0.157 HD
BRANCH  21  24
ATOM     24  C   UNL     1      -4.030   5.170  -3.629  0.00  0.00    +0.055 A 
ATOM     25  C   UNL     1      -4.216   3.790  -3.515  0.00  0.00    +0.016 A 
ATOM     26  C   UNL     1      -5.063   3.138  -4.385  0.00  0.00    +0.021 A 
ATOM     27  C   UNL     1      -5.729   3.847  -5.372  0.00  0.00    +0.042 A 
ATOM     28  C   UNL     1      -5.550   5.214  -5.491  0.00  0.00    +0.040 A 
ATOM     29  C   UNL     1      -4.709   5.881  -4.622  0.00  0.00    +0.054 A 
ATOM     30 CL   UNL     1      -4.491   7.597  -4.768  0.00  0.00    -0.083 Cl
ATOM     31 CL   UNL     1      -6.794   3.016  -6.463  0.00  0.00    -0.083 Cl
ENDBRANCH  21  24
ENDBRANCH  18  20
ENDBRANCH   1  18
TORSDOF 7
