REMARK  Name = ZINC09045641
REMARK  10 active torsions:
REMARK  status: ('A' for Active; 'I' for Inactive)
REMARK    1  A    between atoms: C_2  and  C_3
REMARK    2  A    between atoms: C_3  and  O_4
REMARK    3  A    between atoms: O_4  and  C_5
REMARK    4  A    between atoms: C_8  and  C_11
REMARK    5  A    between atoms: C_13  and  C_27
REMARK    6  A    between atoms: N_17  and  C_18
REMARK    7  A    between atoms: C_18  and  C_19
REMARK    8  A    between atoms: C_19  and  C_20
REMARK    9  A    between atoms: C_20  and  N_21
REMARK   10  A    between atoms: C_27  and  C_29
REMARK                            x       y       z     vdW  Elec       q    Type
REMARK                         _______ _______ _______ _____ _____    ______ ____
ROOT
ATOM      1  C   UNL     1       1.216  -1.582  -0.160  0.00  0.00    +0.145 C 
ATOM      2  C   UNL     1       1.348  -2.475  -1.371  0.00  0.00    +0.076 C 
ATOM      3  C   UNL     1       2.406  -3.289  -1.144  0.00  0.00    +0.249 C 
ATOM      4  C   UNL     1       2.987  -2.971   0.177  0.00  0.00    +0.288 C 
ATOM      5  O   UNL     1       3.949  -3.529   0.668  0.00  0.00    -0.266 OA
ATOM      6  N   UNL     1       2.293  -1.973   0.757  0.00  0.00    -0.283 N 
ATOM      7  O   UNL     1       2.859  -4.241  -1.992  0.00  0.00    -0.282 OA
ENDROOT
BRANCH   1  11
ATOM      8  C   UNL     1       1.669   2.512  -1.297  0.00  0.00    +0.121 A 
ATOM      9  C   UNL     1       0.407   2.000  -1.032  0.00  0.00    +0.046 A 
ATOM     10  C   UNL     1       0.263   0.676  -0.664  0.00  0.00    +0.009 A 
ATOM     11  C   UNL     1       1.376  -0.138  -0.561  0.00  0.00    -0.022 A 
ATOM     12  C   UNL     1       2.635   0.370  -0.825  0.00  0.00    +0.009 A 
ATOM     13  C   UNL     1       2.784   1.693  -1.192  0.00  0.00    +0.046 A 
BRANCH   8  14
ATOM     14  O   UNL     1       1.813   3.814  -1.659  0.00  0.00    -0.488 OA
BRANCH  14  15
ATOM     15  C   UNL     1       3.141   4.273  -1.916  0.00  0.00    +0.256 C 
BRANCH  15  17
ATOM     16  C   UNL     1       3.965   6.567  -1.778  0.00  0.00    +0.007 C 
ATOM     17  C   UNL     1       3.104   5.730  -2.301  0.00  0.00    +0.006 C 
ENDBRANCH  15  17
ENDBRANCH  14  15
ENDBRANCH   8  14
ENDBRANCH   1  11
BRANCH   2  18
ATOM     18  C   UNL     1       0.494  -2.464  -2.563  0.00  0.00    +0.195 C 
ATOM     19  O   UNL     1       0.963  -2.163  -3.644  0.00  0.00    -0.287 OA
BRANCH  18  20
ATOM     20  C   UNL     1      -0.937  -2.817  -2.451  0.00  0.00    +0.022 A 
ATOM     21  C   UNL     1      -1.451  -3.282  -1.238  0.00  0.00    +0.013 A 
ATOM     22  C   UNL     1      -2.788  -3.605  -1.138  0.00  0.00    +0.016 A 
ATOM     23  C   UNL     1      -3.618  -3.481  -2.240  0.00  0.00    +0.018 A 
ATOM     24  C   UNL     1      -3.112  -3.026  -3.447  0.00  0.00    +0.016 A 
ATOM     25  C   UNL     1      -1.779  -2.694  -3.558  0.00  0.00    +0.013 A 
ATOM     26 BR   UNL     1      -5.448  -3.933  -2.097  0.00  0.00    -0.050 Br
ENDBRANCH  18  20
ENDBRANCH   2  18
BRANCH   6  27
ATOM     27  C   UNL     1       2.565  -1.381   2.070  0.00  0.00    +0.111 C 
BRANCH  27  28
ATOM     28  C   UNL     1       1.784  -2.142   3.143  0.00  0.00    +0.040 C 
BRANCH  28  29
ATOM     29  C   UNL     1       2.068  -1.524   4.514  0.00  0.00    +0.124 C 
BRANCH  29  30
ATOM     30  N   UNL     1       1.320  -2.251   5.542  0.00  0.00    -0.337 N 
ATOM     31  C   UNL     1       0.056  -1.965   5.983  0.00  0.00    +0.106 A 
ATOM     32  C   UNL     1      -0.245  -2.880   6.924  0.00  0.00    +0.130 A 
ATOM     33  N   UNL     1       0.809  -3.697   7.061  0.00  0.00    -0.244 NA
ATOM     34  C   UNL     1       1.751  -3.327   6.236  0.00  0.00    +0.199 A 
ENDBRANCH  29  30
ENDBRANCH  28  29
ENDBRANCH  27  28
ENDBRANCH   6  27
TORSDOF 10
