REMARK  Name = ZINC02570315
REMARK  8 active torsions:
REMARK  status: ('A' for Active; 'I' for Inactive)
REMARK    1  A    between atoms: C_1  and  C_2
REMARK    2  A    between atoms: C_2  and  C_32
REMARK    3  A    between atoms: C_6  and  C_21
REMARK    4  A    between atoms: C_8  and  C_19
REMARK    5  A    between atoms: C_9  and  N_18
REMARK    6  A    between atoms: N_10  and  C_11
REMARK    7  A    between atoms: C_24  and  S_27
REMARK    8  A    between atoms: S_27  and  C_28
REMARK                            x       y       z     vdW  Elec       q    Type
REMARK                         _______ _______ _______ _____ _____    ______ ____
ROOT
ATOM      1  C   UNL     1       0.119   3.392   3.127  0.00  0.00    +0.011 C 
ATOM      2  C   UNL     1      -0.743   3.670   1.893  0.00  0.00    -0.023 C 
ATOM      3  C   UNL     1       0.110   4.332   0.809  0.00  0.00    +0.058 C 
ATOM      4  C   UNL     1       1.225   3.401   0.403  0.00  0.00    +0.025 C 
ATOM      5  C   UNL     1       1.063   2.061   0.447  0.00  0.00    +0.025 C 
ATOM      6  C   UNL     1       2.170   1.132   0.018  0.00  0.00    +0.097 C 
ATOM      7  C   UNL     1       3.493   1.839  -0.004  0.00  0.00    +0.077 C 
ATOM      8  C   UNL     1       3.563   3.196  -0.023  0.00  0.00    +0.107 C 
ATOM      9  N   UNL     1       2.410   3.947  -0.015  0.00  0.00    -0.260 N 
ATOM     10  C   UNL     1      -0.143   1.492   0.890  0.00  0.00    +0.162 C 
ATOM     11  O   UNL     1      -0.260   0.282   0.909  0.00  0.00    -0.292 OA
ATOM     12  C   UNL     1      -1.295   2.351   1.336  0.00  0.00    +0.086 C 
ATOM     13  C   UNL     1      -1.901   4.595   2.274  0.00  0.00    +0.011 C 
ENDROOT
BRANCH   9  14
ATOM     14  C   UNL     1       2.448   5.281  -0.439  0.00  0.00    +0.040 A 
ATOM     15  C   UNL     1       2.766   6.288   0.463  0.00  0.00    +0.025 A 
ATOM     16  C   UNL     1       2.809   7.603   0.041  0.00  0.00    +0.022 A 
ATOM     17  C   UNL     1       2.523   7.918  -1.276  0.00  0.00    +0.041 A 
ATOM     18  C   UNL     1       2.200   6.917  -2.175  0.00  0.00    +0.022 A 
ATOM     19  C   UNL     1       2.162   5.600  -1.760  0.00  0.00    +0.025 A 
ATOM     20 CL   UNL     1       2.570   9.572  -1.801  0.00  0.00    -0.084 Cl
ENDBRANCH   9  14
BRANCH   6  21
ATOM     21  C   UNL     1       1.868   0.607  -1.362  0.00  0.00    -0.035 A 
ATOM     22  C   UNL     1       1.727   1.488  -2.420  0.00  0.00    +0.005 A 
ATOM     23  C   UNL     1       1.455   1.010  -3.686  0.00  0.00    +0.015 A 
ATOM     24  C   UNL     1       1.312  -0.356  -3.896  0.00  0.00    +0.008 A 
ATOM     25  C   UNL     1       1.449  -1.238  -2.830  0.00  0.00    +0.015 A 
ATOM     26  C   UNL     1       1.726  -0.753  -1.567  0.00  0.00    +0.005 A 
BRANCH  24  27
ATOM     27  S   UNL     1       0.957  -0.970  -5.509  0.00  0.00    -0.129 S 
ATOM     28  C   UNL     1       0.874   0.522  -6.538  0.00  0.00    +0.090 C 
ENDBRANCH  24  27
ENDBRANCH   6  21
BRANCH   8  29
ATOM     29  N   UNL     1       4.788   3.819  -0.049  0.00  0.00    -0.345 N 
ATOM     30  H   UNL     1       4.842   4.785   0.026  0.00  0.00    +0.144 HD
ATOM     31  H   UNL     1       5.598   3.293  -0.143  0.00  0.00    +0.144 HD
ENDBRANCH   8  29
BRANCH   7  32
ATOM     32  C   UNL     1       4.702   1.072  -0.005  0.00  0.00    +0.099 C 
ATOM     33  N   UNL     1       5.662   0.463  -0.005  0.00  0.00    -0.191 NA
ENDBRANCH   7  32
TORSDOF 5
