REMARK  Name = ZINC09334201
REMARK  7 active torsions:
REMARK  status: ('A' for Active; 'I' for Inactive)
REMARK    1  A    between atoms: C_1  and  C_2
REMARK    2  A    between atoms: C_9  and  O_20
REMARK    3  A    between atoms: C_12  and  C_14
REMARK    4  A    between atoms: C_23  and  O_38
REMARK    5  A    between atoms: C_24  and  C_31
REMARK    6  A    between atoms: C_27  and  O_30
REMARK    7  A    between atoms: C_32  and  N_78
REMARK                            x       y       z     vdW  Elec       q    Type
REMARK                         _______ _______ _______ _____ _____    ______ ____
ROOT
ATOM      1  C   UNL     1       5.749   0.116  -5.712  0.00  0.00    +0.014 C 
ATOM      2  C   UNL     1       4.822   1.039  -4.918  0.00  0.00    +0.004 C 
ATOM      3  C   UNL     1       3.498   0.340  -4.705  0.00  0.00    +0.010 C 
ATOM      4  C   UNL     1       2.573   1.136  -3.790  0.00  0.00    +0.005 C 
ATOM      5  C   UNL     1       3.283   1.324  -2.444  0.00  0.00    +0.009 C 
ATOM      6  C   UNL     1       4.543   2.156  -2.668  0.00  0.00    +0.025 C 
ATOM      7  C   UNL     1       5.516   1.430  -3.601  0.00  0.00    +0.075 C 
ATOM      8  C   UNL     1       6.540   2.497  -4.091  0.00  0.00    +0.036 C 
ATOM      9  C   UNL     1       5.762   3.294  -5.160  0.00  0.00    +0.011 C 
ATOM     10  C   UNL     1       4.655   2.357  -5.685  0.00  0.00    +0.027 C 
ATOM     11  C   UNL     1       5.247   2.399  -1.330  0.00  0.00    +0.009 C 
ATOM     12  C   UNL     1       4.303   3.136  -0.377  0.00  0.00    +0.036 C 
ATOM     13  C   UNL     1       3.051   2.287  -0.148  0.00  0.00    +0.079 C 
ATOM     14  C   UNL     1       2.342   2.057  -1.484  0.00  0.00    +0.036 C 
ATOM     15  C   UNL     1       1.088   1.210  -1.258  0.00  0.00    +0.018 C 
ATOM     16  C   UNL     1       0.145   1.943  -0.302  0.00  0.00    +0.032 C 
ATOM     17  C   UNL     1       0.853   2.170   1.036  0.00  0.00    +0.117 C 
ATOM     18  C   UNL     1       2.108   3.016   0.811  0.00  0.00    +0.067 C 
ENDROOT
BRANCH  10  19
ATOM     19  C   UNL     1       3.298   2.950  -5.409  0.00  0.00    -0.022 C 
ATOM     20  C   UNL     1       2.131   2.510  -5.874  0.00  0.00    +0.094 C 
ATOM     21  C   UNL     1       1.051   3.363  -5.373  0.00  0.00    +0.332 C 
ATOM     22  O   UNL     1      -0.129   3.214  -5.624  0.00  0.00    -0.246 OA
ATOM     23  O   UNL     1       1.558   4.336  -4.593  0.00  0.00    -0.457 OA
ATOM     24  C   UNL     1       3.001   4.155  -4.547  0.00  0.00    +0.264 C 
ENDBRANCH  10  19
BRANCH  14  25
ATOM     25  C   UNL     1       1.951   3.384  -2.080  0.00  0.00    +0.060 C 
ATOM     26  N   UNL     1       2.338   4.467  -1.445  0.00  0.00    -0.390 N 
ATOM     27  H   UNL     1       2.884   4.387  -0.579  0.00  0.00    +0.159 HD
BRANCH  26  28
ATOM     28  C   UNL     1       1.981   5.824  -1.986  0.00  0.00    +0.078 C 
ATOM     29  C   UNL     1       3.277   6.590  -2.257  0.00  0.00    +0.024 C 
ATOM     30  C   UNL     1       2.943   7.995  -2.761  0.00  0.00    +0.002 C 
ATOM     31  C   UNL     1       2.126   8.736  -1.700  0.00  0.00    +0.000 C 
ATOM     32  C   UNL     1       0.829   7.970  -1.429  0.00  0.00    +0.002 C 
ATOM     33  C   UNL     1       1.163   6.564  -0.925  0.00  0.00    +0.024 C 
ENDBRANCH  26  28
ENDBRANCH  14  25
BRANCH   7  34
ATOM     34  O   UNL     1       6.138   0.312  -2.965  0.00  0.00    -0.388 OA
ATOM     35  H   UNL     1       6.644   0.541  -2.173  0.00  0.00    +0.210 HD
ENDBRANCH   7  34
BRANCH  17  36
ATOM     36  O   UNL     1      -0.027   2.851   1.931  0.00  0.00    -0.392 OA
ATOM     37  H   UNL     1      -0.845   2.371   2.119  0.00  0.00    +0.210 HD
ENDBRANCH  17  36
BRANCH  13  38
ATOM     38  O   UNL     1       3.425   1.028   0.417  0.00  0.00    -0.388 OA
ATOM     39  H   UNL     1       3.881   1.098   1.266  0.00  0.00    +0.210 HD
ENDBRANCH  13  38
TORSDOF 6
