REMARK  Name = ZINC32643275
REMARK  6 active torsions:
REMARK  status: ('A' for Active; 'I' for Inactive)
REMARK    1  A    between atoms: C_1  and  C_2
REMARK    2  A    between atoms: C_2  and  C_4
REMARK    3  A    between atoms: C_2  and  N_14
REMARK    4  A    between atoms: C_15  and  C_17
REMARK    5  A    between atoms: N_27  and  S_28
REMARK    6  A    between atoms: S_28  and  C_31
REMARK                            x       y       z     vdW  Elec       q    Type
REMARK                         _______ _______ _______ _____ _____    ______ ____
ROOT
ATOM      1  C   UNL     1      -1.096   2.856  -1.259  0.00  0.00    +0.170 C 
ATOM      2  C   UNL     1      -1.876   3.599  -0.175  0.00  0.00    +0.065 C 
ATOM      3  C   UNL     1      -1.492   3.105   1.195  0.00  0.00    -0.041 A 
ATOM      4  C   UNL     1      -1.775   3.928   2.279  0.00  0.00    +0.004 A 
ATOM      5  C   UNL     1      -1.459   3.532   3.561  0.00  0.00    +0.000 A 
ATOM      6  C   UNL     1      -0.854   2.307   3.774  0.00  0.00    +0.000 A 
ATOM      7  C   UNL     1      -0.569   1.490   2.699  0.00  0.00    +0.005 A 
ATOM      8  C   UNL     1      -0.884   1.889   1.407  0.00  0.00    -0.028 A 
ATOM      9  C   UNL     1      -0.535   0.952   0.278  0.00  0.00    +0.145 C 
ATOM     10  N   UNL     1      -1.168   1.416  -0.962  0.00  0.00    -0.160 NA
ENDROOT
BRANCH   1  12
ATOM     11  N   UNL     1      -0.922   3.408  -3.664  0.00  0.00    -0.307 N 
ATOM     12  C   UNL     1      -1.711   3.130  -2.608  0.00  0.00    +0.233 C 
ATOM     13  O   UNL     1      -2.916   3.099  -2.742  0.00  0.00    -0.274 OA
ATOM     14  H   UNL     1       0.171   3.435  -3.542  0.00  0.00    +0.149 HD
BRANCH  11  16
ATOM     15  C   UNL     1      -1.854   5.162  -5.091  0.00  0.00    +0.033 C 
ATOM     16  C   UNL     1      -1.520   3.674  -4.975  0.00  0.00    +0.101 C 
BRANCH  16  17
ATOM     17  C   UNL     1      -0.544   3.292  -6.059  0.00  0.00    -0.020 A 
ATOM     18  C   UNL     1       0.794   3.297  -5.808  0.00  0.00    +0.006 A 
ATOM     19  C   UNL     1       1.710   2.947  -6.797  0.00  0.00    +0.001 A 
ATOM     20  C   UNL     1       1.295   2.590  -8.043  0.00  0.00    +0.008 A 
ATOM     21  C   UNL     1      -0.079   2.573  -8.339  0.00  0.00    -0.018 A 
ATOM     22  C   UNL     1      -1.012   2.924  -7.332  0.00  0.00    -0.013 A 
ATOM     23  C   UNL     1      -2.385   2.911  -7.629  0.00  0.00    +0.009 A 
ATOM     24  C   UNL     1      -2.800   2.555  -8.876  0.00  0.00    +0.001 A 
ATOM     25  C   UNL     1      -1.883   2.205  -9.865  0.00  0.00    +0.001 A 
ATOM     26  C   UNL     1      -0.546   2.210  -9.614  0.00  0.00    +0.008 A 
ENDBRANCH  16  17
ENDBRANCH  11  16
ENDBRANCH   1  12
BRANCH  10  27
ATOM     27  S   UNL     1      -1.935   0.362  -1.984  0.00  0.00    +0.062 S 
ATOM     28  O   UNL     1      -2.042   1.020  -3.239  0.00  0.00    -0.153 OA
ATOM     29  O   UNL     1      -1.285  -0.893  -1.835  0.00  0.00    -0.153 OA
BRANCH  27  30
ATOM     30  C   UNL     1      -3.577   0.154  -1.382  0.00  0.00    +0.106 A 
ATOM     31  C   UNL     1      -3.859  -0.851  -0.475  0.00  0.00    +0.031 A 
ATOM     32  C   UNL     1      -5.146  -1.012   0.001  0.00  0.00    +0.040 A 
ATOM     33  C   UNL     1      -6.156  -0.173  -0.439  0.00  0.00    +0.124 A 
ATOM     34  C   UNL     1      -5.874   0.830  -1.351  0.00  0.00    +0.040 A 
ATOM     35  C   UNL     1      -4.585   0.992  -1.822  0.00  0.00    +0.031 A 
ATOM     36  F   UNL     1      -7.416  -0.333   0.023  0.00  0.00    -0.205 F 
ENDBRANCH  27  30
ENDBRANCH  10  27
TORSDOF 5
