REMARK  Name = ZINC43288918
REMARK  10 active torsions:
REMARK  status: ('A' for Active; 'I' for Inactive)
REMARK    1  A    between atoms: C_1  and  C_2
REMARK    2  A    between atoms: C_2  and  C_3
REMARK    3  A    between atoms: C_3  and  O_4
REMARK    4  A    between atoms: O_4  and  C_5
REMARK    5  A    between atoms: C_10  and  O_11
REMARK    6  A    between atoms: O_11  and  C_12
REMARK    7  A    between atoms: C_12  and  C_14
REMARK    8  A    between atoms: C_12  and  C_20
REMARK    9  A    between atoms: C_20  and  C_22
REMARK   10  A    between atoms: C_20  and  N_23
REMARK                            x       y       z     vdW  Elec       q    Type
REMARK                         _______ _______ _______ _____ _____    ______ ____
ROOT
ATOM      1  C   UNL     1      -1.654  -6.134   0.096  0.00  0.00    +0.196 C 
ENDROOT
BRANCH   1   2
ATOM      2  C   UNL     1      -0.453  -6.796  -0.529  0.00  0.00    +0.029 A 
ATOM      3  C   UNL     1      -0.398  -7.907  -1.304  0.00  0.00    +0.030 A 
ATOM      4  C   UNL     1       0.830  -8.337  -1.772  0.00  0.00    +0.025 A 
ATOM      5  C   UNL     1       1.942  -7.634  -1.443  0.00  0.00    +0.060 A 
ATOM      6  S   UNL     1       1.264  -6.316  -0.448  0.00  0.00    -0.097 S 
ATOM      7 BR   UNL     1       0.957  -9.882  -2.856  0.00  0.00    -0.050 Br
ENDBRANCH   1   2
BRANCH   1   8
ATOM      8  C   UNL     1      -1.745  -6.530   1.571  0.00  0.00    -0.032 C 
ATOM      9  C   UNL     1      -1.884  -8.050   1.683  0.00  0.00    -0.010 C 
BRANCH   8  10
ATOM     10  N   UNL     1      -2.916  -5.885   2.180  0.00  0.00    +0.382 N 
ATOM     11  H   UNL     1      -3.752  -6.183   1.700  0.00  0.00    -0.089 HD
ATOM     12  H   UNL     1      -2.976  -6.147   3.153  0.00  0.00    -0.089 HD
ATOM     13  H   UNL     1      -2.824  -4.883   2.106  0.00  0.00    -0.089 HD
ENDBRANCH   8  10
ENDBRANCH   1   8
BRANCH   1  14
ATOM     14  O   UNL     1      -1.524  -4.715  -0.009  0.00  0.00    -0.482 OA
BRANCH  14  20
ATOM     15  C   UNL     1      -2.626  -2.607  -0.164  0.00  0.00    +0.162 A 
ATOM     16  C   UNL     1      -3.799  -1.880  -0.298  0.00  0.00    +0.049 A 
ATOM     17  C   UNL     1      -5.011  -2.537  -0.398  0.00  0.00    +0.004 A 
ATOM     18  C   UNL     1      -5.058  -3.918  -0.363  0.00  0.00    +0.004 A 
ATOM     19  C   UNL     1      -3.892  -4.649  -0.228  0.00  0.00    +0.049 A 
ATOM     20  C   UNL     1      -2.673  -3.997  -0.135  0.00  0.00    +0.163 A 
BRANCH  15  21
ATOM     21  O   UNL     1      -1.433  -1.962  -0.067  0.00  0.00    -0.488 OA
BRANCH  21  22
ATOM     22  C   UNL     1      -1.461  -0.534  -0.104  0.00  0.00    +0.229 C 
BRANCH  22  24
ATOM     23  C   UNL     1      -0.067   1.537  -0.022  0.00  0.00    +0.007 C 
ATOM     24  C   UNL     1      -0.036   0.008   0.018  0.00  0.00    +0.038 C 
ENDBRANCH  22  24
ENDBRANCH  21  22
ENDBRANCH  15  21
ENDBRANCH  14  20
ENDBRANCH   1  14
TORSDOF 8
