REMARK  Name = ZINC15225117
REMARK  7 active torsions:
REMARK  status: ('A' for Active; 'I' for Inactive)
REMARK    1  A    between atoms: C_1  and  C_2
REMARK    2  A    between atoms: C_5  and  C_8
REMARK    3  A    between atoms: C_22  and  C_23
REMARK    4  A    between atoms: C_23  and  O_25
REMARK    5  A    between atoms: O_25  and  C_26
REMARK    6  A    between atoms: C_26  and  C_28
REMARK    7  A    between atoms: C_26  and  C_29
REMARK                            x       y       z     vdW  Elec       q    Type
REMARK                         _______ _______ _______ _____ _____    ______ ____
ROOT
ATOM      1  C   UNL     1       1.295   3.470  -0.231  0.00  0.00    +0.013 C 
ATOM      2  C   UNL     1       1.286   2.128  -0.157  0.00  0.00    -0.021 C 
ATOM      3  C   UNL     1       2.577   1.337  -0.142  0.00  0.00    +0.037 C 
ATOM      4  C   UNL     1       2.392   0.134  -1.075  0.00  0.00    +0.009 C 
ATOM      5  C   UNL     1       1.305  -0.778  -0.513  0.00  0.00    +0.038 C 
ATOM      6  C   UNL     1       0.029  -0.022  -0.269  0.00  0.00    -0.007 A 
ATOM      7  C   UNL     1       0.015   1.373  -0.090  0.00  0.00    +0.072 A 
ATOM      8  N   UNL     1      -1.106   2.038   0.133  0.00  0.00    -0.247 NA
ATOM      9  C   UNL     1      -2.294   1.440   0.205  0.00  0.00    +0.072 A 
ATOM     10  C   UNL     1      -3.468   2.179   0.447  0.00  0.00    +0.028 A 
ATOM     11  C   UNL     1      -4.667   1.539   0.512  0.00  0.00    +0.002 A 
ATOM     12  C   UNL     1      -4.756   0.159   0.342  0.00  0.00    +0.001 A 
ATOM     13  C   UNL     1      -3.640  -0.589   0.106  0.00  0.00    +0.011 A 
ATOM     14  C   UNL     1      -2.391   0.036   0.034  0.00  0.00    +0.015 A 
ATOM     15  C   UNL     1      -1.167  -0.725  -0.216  0.00  0.00    +0.073 A 
ENDROOT
BRANCH   1  20
ATOM     16  C   UNL     1       6.260   6.341   0.183  0.00  0.00    +0.044 C 
ATOM     17  C   UNL     1       4.958   5.588   0.075  0.00  0.00    -0.050 A 
ATOM     18  C   UNL     1       3.944   6.080  -0.728  0.00  0.00    +0.004 A 
ATOM     19  C   UNL     1       2.750   5.397  -0.832  0.00  0.00    +0.008 A 
ATOM     20  C   UNL     1       2.567   4.206  -0.124  0.00  0.00    -0.025 A 
ATOM     21  C   UNL     1       3.594   3.719   0.689  0.00  0.00    +0.008 A 
ATOM     22  C   UNL     1       4.784   4.409   0.778  0.00  0.00    +0.004 A 
ENDBRANCH   1  20
BRANCH  15  23
ATOM     23  C   UNL     1      -1.202  -2.191  -0.404  0.00  0.00    +0.341 C 
ATOM     24  O   UNL     1      -1.091  -2.929   0.555  0.00  0.00    -0.245 OA
BRANCH  23  25
ATOM     25  O   UNL     1      -1.358  -2.708  -1.638  0.00  0.00    -0.449 OA
BRANCH  25  26
ATOM     26  C   UNL     1      -1.383  -4.156  -1.747  0.00  0.00    +0.259 C 
ATOM     27  C   UNL     1      -2.824  -4.653  -1.610  0.00  0.00    +0.062 C 
BRANCH  26  28
ATOM     28  C   UNL     1      -0.836  -4.568  -3.090  0.00  0.00    +0.261 C 
ATOM     29  O   UNL     1      -0.462  -3.724  -3.876  0.00  0.00    -0.271 OA
ATOM     30  N   UNL     1      -0.763  -5.873  -3.416  0.00  0.00    -0.237 N 
ATOM     31  C   UNL     1      -0.273  -6.242  -4.616  0.00  0.00    +0.303 C 
ATOM     32  O   UNL     1       0.102  -5.396  -5.404  0.00  0.00    -0.253 OA
ATOM     33  N   UNL     1      -0.200  -7.547  -4.942  0.00  0.00    -0.313 N 
ATOM     34  H   UNL     1      -1.062  -6.548  -2.786  0.00  0.00    +0.159 HD
ATOM     35  H   UNL     1      -0.499  -8.222  -4.313  0.00  0.00    +0.146 HD
ATOM     36  H   UNL     1       0.153  -7.812  -5.806  0.00  0.00    +0.146 HD
ENDBRANCH  26  28
ENDBRANCH  25  26
ENDBRANCH  23  25
ENDBRANCH  15  23
TORSDOF 5
