REMARK  Name = ZINC58324021
REMARK  6 active torsions:
REMARK  status: ('A' for Active; 'I' for Inactive)
REMARK    1  A    between atoms: C_1  and  C_2
REMARK    2  A    between atoms: C_15  and  C_17
REMARK    3  A    between atoms: C_17  and  C_18
REMARK    4  A    between atoms: C_18  and  C_19
REMARK    5  A    between atoms: C_19  and  C_20
REMARK    6  A    between atoms: C_20  and  C_21
REMARK                            x       y       z     vdW  Elec       q    Type
REMARK                         _______ _______ _______ _____ _____    ______ ____
ROOT
ATOM      1  C   UNL     1      -2.481  -3.913   1.869  0.00  0.00    +0.096 C 
ENDROOT
BRANCH   1  13
ATOM      2  C   UNL     1      -0.116   1.523  -0.045  0.00  0.00    +0.008 C 
ATOM      3  C   UNL     1      -0.045  -0.005  -0.025  0.00  0.00    -0.008 C 
ATOM      4  C   UNL     1      -1.462  -0.583  -0.050  0.00  0.00    +0.022 C 
ATOM      5  C   UNL     1      -1.391  -2.113  -0.065  0.00  0.00    +0.108 C 
ATOM      6  N   UNL     1      -0.570  -2.562   1.069  0.00  0.00    -0.298 N 
ATOM      7  C   UNL     1       0.774  -1.995   1.229  0.00  0.00    +0.079 C 
ATOM      8  C   UNL     1       0.667  -0.468   1.252  0.00  0.00    +0.012 C 
ATOM      9  C   UNL     1      -0.161  -0.032   2.463  0.00  0.00    +0.005 C 
ATOM     10  C   UNL     1       0.499  -0.531   3.749  0.00  0.00    +0.000 C 
ATOM     11  C   UNL     1       0.570  -2.060   3.720  0.00  0.00    +0.002 C 
ATOM     12  C   UNL     1       1.402  -2.492   2.527  0.00  0.00    +0.023 C 
ATOM     13  C   UNL     1      -1.042  -3.475   1.942  0.00  0.00    +0.216 C 
ATOM     14  O   UNL     1      -0.307  -3.943   2.786  0.00  0.00    -0.276 OA
ENDBRANCH   1  13
BRANCH   1  15
ATOM     15  C   UNL     1      -2.756  -4.947   2.963  0.00  0.00    +0.009 C 
BRANCH  15  16
ATOM     16  C   UNL     1      -4.217  -5.392   2.890  0.00  0.00    +0.002 C 
BRANCH  16  17
ATOM     17  C   UNL     1      -4.492  -6.426   3.984  0.00  0.00    +0.016 C 
BRANCH  17  18
ATOM     18  C   UNL     1      -5.954  -6.871   3.910  0.00  0.00    +0.069 C 
ATOM     19  C   UNL     1      -6.259  -7.948   4.973  0.00  0.00    +0.108 C 
ATOM     20  C   UNL     1      -7.625  -7.778   5.646  0.00  0.00    +0.105 C 
ATOM     21  C   UNL     1      -8.421  -6.559   5.134  0.00  0.00    +0.093 C 
ATOM     22  S   UNL     1      -7.088  -5.511   4.430  0.00  0.00    -0.154 S 
ATOM     23  N   UNL     1      -7.300  -7.569   7.066  0.00  0.00    -0.294 N 
ATOM     24  C   UNL     1      -5.969  -7.607   7.220  0.00  0.00    +0.300 C 
ATOM     25  O   UNL     1      -5.422  -7.463   8.296  0.00  0.00    -0.253 OA
ATOM     26  N   UNL     1      -5.304  -7.812   6.084  0.00  0.00    -0.294 N 
ATOM     27  H   UNL     1      -7.945  -7.427   7.776  0.00  0.00    +0.151 HD
ATOM     28  H   UNL     1      -4.338  -7.865   6.007  0.00  0.00    +0.151 HD
ENDBRANCH  17  18
ENDBRANCH  16  17
ENDBRANCH  15  16
ENDBRANCH   1  15
TORSDOF 5
