REMARK  Name = ZINC05205506
REMARK  8 active torsions:
REMARK  status: ('A' for Active; 'I' for Inactive)
REMARK    1  A    between atoms: C_1  and  C_2
REMARK    2  A    between atoms: C_6  and  C_8
REMARK    3  A    between atoms: C_8  and  C_25
REMARK    4  A    between atoms: C_10  and  C_12
REMARK    5  A    between atoms: N_14  and  N_15
REMARK    6  A    between atoms: C_16  and  C_17
REMARK    7  A    between atoms: C_18  and  C_19
REMARK    8  A    between atoms: C_29  and  C_31
REMARK                            x       y       z     vdW  Elec       q    Type
REMARK                         _______ _______ _______ _____ _____    ______ ____
ROOT
ATOM      1  C   UNL     1       2.534   2.224  -0.677  0.00  0.00    +0.033 C 
ATOM      2  C   UNL     1       2.021   3.610  -0.282  0.00  0.00    +0.031 C 
ATOM      3  C   UNL     1       3.503   3.269  -0.120  0.00  0.00    +0.093 C 
ENDROOT
BRANCH   1   9
ATOM      4  C   UNL     1       0.152  -2.119   0.034  0.00  0.00    +0.044 C 
ATOM      5  C   UNL     1       1.030  -1.012   0.556  0.00  0.00    -0.050 A 
ATOM      6  C   UNL     1       1.506  -1.060   1.854  0.00  0.00    +0.003 A 
ATOM      7  C   UNL     1       2.307  -0.041   2.334  0.00  0.00    +0.001 A 
ATOM      8  C   UNL     1       2.642   1.020   1.515  0.00  0.00    +0.004 A 
ATOM      9  C   UNL     1       2.170   1.066   0.216  0.00  0.00    -0.036 A 
ATOM     10  C   UNL     1       1.365   0.050  -0.263  0.00  0.00    +0.008 A 
ENDBRANCH   1   9
BRANCH   1  11
ATOM     11  C   UNL     1       2.622   1.908  -2.148  0.00  0.00    -0.036 A 
ATOM     12  C   UNL     1       3.506   0.944  -2.596  0.00  0.00    +0.004 A 
ATOM     13  C   UNL     1       3.587   0.654  -3.945  0.00  0.00    +0.001 A 
ATOM     14  C   UNL     1       2.782   1.327  -4.846  0.00  0.00    +0.003 A 
ATOM     15  C   UNL     1       1.898   2.290  -4.398  0.00  0.00    -0.050 A 
ATOM     16  C   UNL     1       1.814   2.577  -3.048  0.00  0.00    +0.008 A 
ATOM     17  C   UNL     1       1.022   3.023  -5.380  0.00  0.00    +0.044 C 
ENDBRANCH   1  11
BRANCH   3  18
ATOM     18  C   UNL     1       4.473   3.903  -1.084  0.00  0.00    +0.236 C 
ATOM     19  O   UNL     1       4.212   4.974  -1.590  0.00  0.00    -0.274 OA
ATOM     20  N   UNL     1       5.630   3.280  -1.383  0.00  0.00    -0.207 N 
ATOM     21  H   UNL     1       5.838   2.423  -0.979  0.00  0.00    +0.177 HD
BRANCH  20  22
ATOM     22  N   UNL     1       6.531   3.869  -2.280  0.00  0.00    -0.188 NA
ATOM     23  C   UNL     1       7.649   3.267  -2.569  0.00  0.00    +0.130 C 
BRANCH  23  24
ATOM     24  C   UNL     1       8.562   3.864  -3.476  0.00  0.00    +0.022 C 
ATOM     25  C   UNL     1       9.719   3.240  -3.776  0.00  0.00    +0.009 C 
BRANCH  25  26
ATOM     26  C   UNL     1      10.666   3.859  -4.717  0.00  0.00    -0.025 A 
ATOM     27  C   UNL     1      10.367   5.091  -5.307  0.00  0.00    +0.008 A 
ATOM     28  C   UNL     1      11.261   5.668  -6.184  0.00  0.00    +0.001 A 
ATOM     29  C   UNL     1      12.448   5.025  -6.489  0.00  0.00    +0.000 A 
ATOM     30  C   UNL     1      12.750   3.802  -5.914  0.00  0.00    +0.001 A 
ATOM     31  C   UNL     1      11.868   3.216  -5.031  0.00  0.00    +0.008 A 
ENDBRANCH  25  26
ENDBRANCH  23  24
ENDBRANCH  20  22
ENDBRANCH   3  18
TORSDOF 6
