REMARK  Name = ZINC16386202
REMARK  7 active torsions:
REMARK  status: ('A' for Active; 'I' for Inactive)
REMARK    1  A    between atoms: C_3  and  C_8
REMARK    2  A    between atoms: C_8  and  N_36
REMARK    3  A    between atoms: C_9  and  C_10
REMARK    4  A    between atoms: C_9  and  N_36
REMARK    5  A    between atoms: C_10  and  N_11
REMARK    6  A    between atoms: N_11  and  C_12
REMARK    7  A    between atoms: C_15  and  N_19
REMARK                            x       y       z     vdW  Elec       q    Type
REMARK                         _______ _______ _______ _____ _____    ______ ____
ROOT
ATOM      1  C   UNL     1      -2.495   1.321   0.021  0.00  0.00    +0.082 C 
ENDROOT
BRANCH   1   2
ATOM      2  N   UNL     1      -1.236   2.068   0.019  0.00  0.00    -0.345 N 
ATOM      3  H   UNL     1      -1.247   3.038   0.025  0.00  0.00    +0.146 HD
BRANCH   2   4
ATOM      4  C   UNL     1      -0.017   1.385   0.010  0.00  0.00    +0.046 A 
ATOM      5  C   UNL     1       0.002  -0.004   0.002  0.00  0.00    +0.026 A 
ATOM      6  C   UNL     1       1.208  -0.677  -0.013  0.00  0.00    +0.034 A 
ATOM      7  C   UNL     1       2.397   0.030  -0.021  0.00  0.00    +0.128 A 
ATOM      8  C   UNL     1       2.382   1.413  -0.014  0.00  0.00    +0.054 A 
ATOM      9  C   UNL     1       1.179   2.093   0.002  0.00  0.00    +0.064 A 
ATOM     10 CL   UNL     1       1.162   3.829   0.011  0.00  0.00    -0.082 Cl
BRANCH   7  11
ATOM     11  N   UNL     1       3.687  -0.695  -0.038  0.00  0.00    +0.056 N 
ATOM     12  O   UNL     1       3.701  -1.913  -0.045  0.00  0.00    -0.126 OA
ATOM     13  O   UNL     1       4.734  -0.074  -0.045  0.00  0.00    -0.126 OA
ENDBRANCH   7  11
ENDBRANCH   2   4
ENDBRANCH   1   2
BRANCH   1  14
ATOM     14  C   UNL     1      -3.670   2.300   0.032  0.00  0.00    -0.063 C 
BRANCH  14  15
ATOM     15  N   UNL     1      -4.934   1.540   0.034  0.00  0.00    +0.383 N 
ATOM     16  H   UNL     1      -4.977   0.953  -0.807  0.00  0.00    -0.085 HD
ATOM     17  H   UNL     1      -4.969   0.944   0.869  0.00  0.00    -0.085 HD
BRANCH  15  18
ATOM     18  C   UNL     1      -6.086   2.461   0.044  0.00  0.00    -0.047 C 
BRANCH  18  21
ATOM     19  C   UNL     1      -9.121   0.559  -1.149  0.00  0.00    +0.001 A 
ATOM     20  C   UNL     1      -7.954   1.300  -1.150  0.00  0.00    +0.002 A 
ATOM     21  C   UNL     1      -7.361   1.657   0.046  0.00  0.00    -0.063 A 
ATOM     22  C   UNL     1      -7.940   1.282   1.244  0.00  0.00    +0.017 A 
ATOM     23  C   UNL     1      -9.110   0.545   1.245  0.00  0.00    +0.018 A 
ATOM     24  C   UNL     1      -9.701   0.183   0.048  0.00  0.00    +0.015 A 
ATOM     25 BR   UNL     1      -9.903   0.032   2.884  0.00  0.00    -0.050 Br
ENDBRANCH  18  21
ENDBRANCH  15  18
ENDBRANCH  14  15
ENDBRANCH   1  14
TORSDOF 7
