REMARK  Name = ZINC36566873
REMARK  13 active torsions:
REMARK  status: ('A' for Active; 'I' for Inactive)
REMARK    1  A    between atoms: C_1  and  C_2
REMARK    2  A    between atoms: C_2  and  C_3
REMARK    3  A    between atoms: N_5  and  C_6
REMARK    4  A    between atoms: C_10  and  N_13
REMARK    5  A    between atoms: C_11  and  C_12
REMARK    6  A    between atoms: N_13  and  C_14
REMARK    7  A    between atoms: C_14  and  N_16
REMARK    8  A    between atoms: C_17  and  C_19
REMARK    9  A    between atoms: C_24  and  O_25
REMARK   10  A    between atoms: O_25  and  C_26
REMARK   11  A    between atoms: C_26  and  C_27
REMARK   12  A    between atoms: C_27  and  C_28
REMARK   13  A    between atoms: C_27  and  C_29
REMARK                            x       y       z     vdW  Elec       q    Type
REMARK                         _______ _______ _______ _____ _____    ______ ____
ROOT
ATOM      1  C   UNL     1       2.669  -5.798  -5.447  0.00  0.00    +0.141 C 
ATOM      2  S   UNL     1       3.315  -4.678  -6.569  0.00  0.00    -0.018 S 
ENDROOT
BRANCH   1   3
ATOM      3  N   UNL     1       2.794  -7.122  -5.668  0.00  0.00    -0.263 N 
ATOM      4  C   UNL     1       3.428  -7.564  -6.772  0.00  0.00    +0.253 C 
ATOM      5  O   UNL     1       3.887  -6.768  -7.569  0.00  0.00    -0.270 OA
ATOM      6  H   UNL     1       2.428  -7.757  -5.033  0.00  0.00    +0.157 HD
BRANCH   4   7
ATOM      7  C   UNL     1       3.565  -9.012  -7.015  0.00  0.00    +0.080 A 
ATOM      8  C   UNL     1       3.034  -9.930  -6.105  0.00  0.00    +0.032 A 
ATOM      9  C   UNL     1       3.166 -11.282  -6.337  0.00  0.00    +0.019 A 
ATOM     10  C   UNL     1       3.823 -11.736  -7.470  0.00  0.00    +0.019 A 
ATOM     11  C   UNL     1       4.352 -10.839  -8.377  0.00  0.00    +0.047 A 
ATOM     12  C   UNL     1       4.224  -9.475  -8.162  0.00  0.00    +0.133 A 
ATOM     13 BR   UNL     1       2.447 -12.523  -5.105  0.00  0.00    -0.050 Br
BRANCH  12  14
ATOM     14  O   UNL     1       4.738  -8.594  -9.055  0.00  0.00    -0.491 OA
BRANCH  14  15
ATOM     15  C   UNL     1       5.396  -9.139 -10.201  0.00  0.00    +0.232 C 
BRANCH  15  16
ATOM     16  C   UNL     1       5.906  -8.001 -11.086  0.00  0.00    +0.020 C 
ATOM     17  C   UNL     1       6.717  -8.582 -12.247  0.00  0.00    +0.010 C 
ATOM     18  C   UNL     1       4.717  -7.213 -11.640  0.00  0.00    +0.010 C 
ENDBRANCH  15  16
ENDBRANCH  14  15
ENDBRANCH  12  14
ENDBRANCH   4   7
ENDBRANCH   1   3
BRANCH   1  19
ATOM     19  N   UNL     1       2.035  -5.357  -4.343  0.00  0.00    -0.296 N 
ATOM     20  H   UNL     1       1.607  -5.989  -3.743  0.00  0.00    +0.154 HD
BRANCH  19  25
ATOM     21  C   UNL     1       2.242  -2.173  -2.507  0.00  0.00    +0.038 A 
ATOM     22  C   UNL     1       1.906  -1.273  -3.510  0.00  0.00    +0.024 A 
ATOM     23  C   UNL     1       1.617  -1.729  -4.781  0.00  0.00    +0.004 A 
ATOM     24  C   UNL     1       1.659  -3.082  -5.059  0.00  0.00    +0.023 A 
ATOM     25  C   UNL     1       1.993  -3.987  -4.061  0.00  0.00    +0.037 A 
ATOM     26  C   UNL     1       2.291  -3.532  -2.784  0.00  0.00    -0.008 A 
ATOM     27  C   UNL     1       2.661  -4.511  -1.700  0.00  0.00    +0.047 C 
BRANCH  21  30
ATOM     28  C   UNL     1       2.892  -0.424  -1.030  0.00  0.00    +0.217 C 
ATOM     29  O   UNL     1       3.057   0.305  -1.985  0.00  0.00    -0.275 OA
ATOM     30  N   UNL     1       2.535  -1.710  -1.219  0.00  0.00    -0.285 N 
ATOM     31  H   UNL     1       2.482  -2.315  -0.463  0.00  0.00    +0.155 HD
BRANCH  28  33
ATOM     32  C   UNL     1       3.485   1.582   0.300  0.00  0.00    +0.013 C 
ATOM     33  C   UNL     1       3.086   0.106   0.366  0.00  0.00    +0.093 C 
ENDBRANCH  28  33
ENDBRANCH  21  30
ENDBRANCH  19  25
ENDBRANCH   1  19
TORSDOF 9
