REMARK  Name = ZINC13216659
REMARK  4 active torsions:
REMARK  status: ('A' for Active; 'I' for Inactive)
REMARK    1  A    between atoms: C_1  and  C_2
REMARK    2  A    between atoms: C_7  and  N_8
REMARK    3  A    between atoms: C_9  and  N_24
REMARK    4  A    between atoms: C_10  and  C_14
REMARK                            x       y       z     vdW  Elec       q    Type
REMARK                         _______ _______ _______ _____ _____    ______ ____
ROOT
ATOM      1  N   UNL     1      -2.429   1.040   0.019  0.00  0.00    -0.285 N 
ATOM      2  C   UNL     1      -3.009   0.686   1.191  0.00  0.00    +0.120 A 
ATOM      3  C   UNL     1      -4.184  -0.011   1.137  0.00  0.00    +0.095 A 
ATOM      4  S   UNL     1      -4.439  -0.147  -0.625  0.00  0.00    -0.057 S 
ATOM      5  C   UNL     1      -3.022   0.704  -1.148  0.00  0.00    +0.132 A 
ATOM      6  S   UNL     1      -2.501   1.035  -2.745  0.00  0.00    -0.024 S 
ENDROOT
BRANCH   3   7
ATOM      7  C   UNL     1      -5.015  -0.512   2.233  0.00  0.00    +0.149 A 
ATOM      8  N   UNL     1      -6.192  -1.203   2.083  0.00  0.00    -0.337 N 
ATOM      9  H   UNL     1      -6.630  -1.448   1.219  0.00  0.00    +0.167 HD
ATOM     10  C   UNL     1      -6.658  -1.496   3.354  0.00  0.00    +0.066 A 
ATOM     11  C   UNL     1      -7.774  -2.162   3.836  0.00  0.00    +0.028 A 
ATOM     12  C   UNL     1      -7.967  -2.286   5.197  0.00  0.00    +0.002 A 
ATOM     13  C   UNL     1      -7.050  -1.749   6.088  0.00  0.00    +0.002 A 
ATOM     14  C   UNL     1      -5.936  -1.084   5.629  0.00  0.00    +0.030 A 
ATOM     15  C   UNL     1      -5.726  -0.949   4.253  0.00  0.00    +0.089 A 
ATOM     16  N   UNL     1      -4.749  -0.364   3.515  0.00  0.00    -0.227 NA
ENDBRANCH   3   7
BRANCH   1  23
ATOM     17  C   UNL     1      -2.551   3.883   0.045  0.00  0.00    +0.046 C 
ATOM     18  C   UNL     1      -1.239   3.143   0.029  0.00  0.00    -0.027 A 
ATOM     19  C   UNL     1      -0.049   3.845   0.022  0.00  0.00    +0.005 A 
ATOM     20  C   UNL     1       1.155   3.166   0.007  0.00  0.00    +0.000 A 
ATOM     21  C   UNL     1       1.173   1.783   0.000  0.00  0.00    +0.002 A 
ATOM     22  C   UNL     1      -0.013   1.076   0.008  0.00  0.00    +0.026 A 
ATOM     23  C   UNL     1      -1.224   1.754   0.017  0.00  0.00    +0.052 A 
ENDBRANCH   1  23
BRANCH   2  24
ATOM     24  N   UNL     1      -2.431   1.019   2.404  0.00  0.00    -0.343 N 
ATOM     25  H   UNL     1      -1.597   1.514   2.424  0.00  0.00    +0.144 HD
ATOM     26  H   UNL     1      -2.860   0.758   3.234  0.00  0.00    +0.144 HD
ENDBRANCH   2  24
TORSDOF 3
