REMARK  Name = ZINC32835699
REMARK  9 active torsions:
REMARK  status: ('A' for Active; 'I' for Inactive)
REMARK    1  A    between atoms: C_1  and  C_2
REMARK    2  A    between atoms: C_2  and  C_19
REMARK    3  A    between atoms: N_5  and  C_9
REMARK    4  A    between atoms: C_9  and  C_10
REMARK    5  A    between atoms: C_10  and  C_12
REMARK    6  A    between atoms: C_22  and  C_25
REMARK    7  A    between atoms: C_25  and  C_26
REMARK    8  A    between atoms: C_25  and  C_27
REMARK    9  A    between atoms: C_25  and  C_28
REMARK                            x       y       z     vdW  Elec       q    Type
REMARK                         _______ _______ _______ _____ _____    ______ ____
ROOT
ATOM      1  C   UNL     1      -5.053   6.227   1.172  0.00  0.00    +0.047 C 
ATOM      2  C   UNL     1      -4.775   4.804   0.685  0.00  0.00    +0.135 C 
ATOM      3  C   UNL     1      -3.412   4.335   1.157  0.00  0.00    +0.251 C 
ATOM      4  O   UNL     1      -3.040   4.203   2.303  0.00  0.00    -0.272 OA
ATOM      5  N   UNL     1      -2.701   4.097   0.037  0.00  0.00    -0.216 N 
ATOM      6  C   UNL     1      -3.416   4.351  -1.065  0.00  0.00    +0.310 C 
ATOM      7  O   UNL     1      -2.988   4.215  -2.194  0.00  0.00    -0.252 OA
ATOM      8  N   UNL     1      -4.662   4.771  -0.783  0.00  0.00    -0.281 N 
ATOM      9  H   UNL     1      -5.520   5.064  -1.407  0.00  0.00    +0.152 HD
ENDROOT
BRANCH   2  10
ATOM     10  C   UNL     1      -5.852   3.860   1.155  0.00  0.00    -0.015 A 
ATOM     11  C   UNL     1      -5.689   3.159   2.335  0.00  0.00    +0.006 A 
ATOM     12  C   UNL     1      -6.679   2.297   2.769  0.00  0.00    +0.004 A 
ATOM     13  C   UNL     1      -7.827   2.129   2.018  0.00  0.00    -0.042 A 
ATOM     14  C   UNL     1      -7.987   2.826   0.835  0.00  0.00    +0.004 A 
ATOM     15  C   UNL     1      -7.000   3.692   0.404  0.00  0.00    +0.006 A 
BRANCH  13  16
ATOM     16  C   UNL     1      -8.904   1.185   2.487  0.00  0.00    -0.013 C 
ATOM     17  C   UNL     1      -9.116   0.091   1.439  0.00  0.00    +0.015 C 
ATOM     18  C   UNL     1      -8.480   0.547   3.812  0.00  0.00    +0.015 C 
ATOM     19  C   UNL     1     -10.208   1.958   2.688  0.00  0.00    +0.015 C 
ENDBRANCH  13  16
ENDBRANCH   2  10
BRANCH   5  20
ATOM     20  C   UNL     1      -1.315   3.623   0.028  0.00  0.00    +0.197 C 
BRANCH  20  21
ATOM     21  C   UNL     1      -1.299   2.116   0.020  0.00  0.00    +0.181 C 
ATOM     22  O   UNL     1      -2.342   1.499   0.021  0.00  0.00    -0.290 OA
BRANCH  21  23
ATOM     23  C   UNL     1      -0.017   1.395   0.010  0.00  0.00    +0.019 A 
ATOM     24  C   UNL     1       1.189   2.103   0.002  0.00  0.00    +0.012 A 
ATOM     25  C   UNL     1       2.386   1.420  -0.013  0.00  0.00    +0.015 A 
ATOM     26  C   UNL     1       2.397   0.035  -0.020  0.00  0.00    +0.013 A 
ATOM     27  C   UNL     1       1.207  -0.673  -0.013  0.00  0.00    +0.015 A 
ATOM     28  C   UNL     1       0.002  -0.004   0.002  0.00  0.00    +0.012 A 
ATOM     29  I   UNL     1       4.222  -0.993  -0.043  0.00  0.00    -0.044 I 
ENDBRANCH  21  23
ENDBRANCH  20  21
ENDBRANCH   5  20
TORSDOF 5
