REMARK  Name = ZINC43547846
REMARK  14 active torsions:
REMARK  status: ('A' for Active; 'I' for Inactive)
REMARK    1  A    between atoms: C_1  and  C_2
REMARK    2  A    between atoms: C_2  and  O_39
REMARK    3  A    between atoms: C_5  and  C_21
REMARK    4  A    between atoms: C_9  and  C_19
REMARK    5  A    between atoms: C_9  and  C_20
REMARK    6  A    between atoms: C_11  and  N_13
REMARK    7  A    between atoms: C_14  and  C_16
REMARK    8  A    between atoms: C_16  and  O_17
REMARK    9  A    between atoms: O_17  and  C_18
REMARK   10  A    between atoms: C_21  and  C_22
REMARK   11  A    between atoms: C_22  and  C_23
REMARK   12  A    between atoms: N_28  and  C_31
REMARK   13  A    between atoms: C_36  and  O_37
REMARK   14  A    between atoms: O_37  and  C_38
REMARK                            x       y       z     vdW  Elec       q    Type
REMARK                         _______ _______ _______ _____ _____    ______ ____
ROOT
ATOM      1  C   UNL     1      -0.084   1.533  -0.023  0.00  0.00    +0.041 C 
ATOM      2  C   UNL     1      -0.047   0.003  -0.025  0.00  0.00    +0.064 C 
ATOM      3  C   UNL     1      -1.476  -0.531  -0.060  0.00  0.00    +0.035 C 
ATOM      4  C   UNL     1      -1.507  -2.064   0.054  0.00  0.00    +0.012 C 
ATOM      5  C   UNL     1      -0.811  -2.433   1.351  0.00  0.00    -0.007 C 
ATOM      6  C   UNL     1       0.673  -1.999   1.209  0.00  0.00    +0.005 C 
ATOM      7  C   UNL     1       0.704  -0.483   1.226  0.00  0.00    +0.039 C 
ATOM      8  C   UNL     1       1.359  -2.708   2.373  0.00  0.00    -0.030 C 
ATOM      9  C   UNL     1       0.529  -3.993   2.615  0.00  0.00    +0.029 C 
ATOM     10  C   UNL     1      -0.669  -3.934   1.628  0.00  0.00    +0.080 C 
ATOM     11  C   UNL     1       2.798  -3.068   2.000  0.00  0.00    +0.011 C 
ATOM     12  C   UNL     1       1.339  -1.821   3.619  0.00  0.00    +0.011 C 
ENDROOT
BRANCH  10  13
ATOM     13  N   UNL     1      -0.362  -4.662   0.395  0.00  0.00    -0.310 N 
ATOM     14  C   UNL     1      -0.682  -5.966   0.285  0.00  0.00    +0.239 C 
ATOM     15  O   UNL     1      -1.225  -6.537   1.207  0.00  0.00    -0.273 OA
ATOM     16  H   UNL     1       0.072  -4.205  -0.343  0.00  0.00    +0.149 HD
BRANCH  14  17
ATOM     17  C   UNL     1      -0.366  -6.716  -0.984  0.00  0.00    +0.255 C 
BRANCH  17  18
ATOM     18  O   UNL     1      -0.799  -8.072  -0.857  0.00  0.00    -0.374 OA
ATOM     19  C   UNL     1      -0.544  -8.873  -2.012  0.00  0.00    +0.194 C 
ENDBRANCH  17  18
ENDBRANCH  14  17
ENDBRANCH  10  13
BRANCH   2  20
ATOM     20  O   UNL     1       0.647  -0.446  -1.190  0.00  0.00    -0.389 OA
ATOM     21  H   UNL     1       0.241  -0.166  -2.022  0.00  0.00    +0.210 HD
ENDBRANCH   2  20
BRANCH   5  22
ATOM     22  C   UNL     1      -1.482  -1.733   2.534  0.00  0.00    +0.018 C 
BRANCH  22  23
ATOM     23  C   UNL     1      -2.982  -2.037   2.522  0.00  0.00    +0.096 C 
BRANCH  23  24
ATOM     24  C   UNL     1      -3.643  -1.348   3.688  0.00  0.00    +0.216 C 
ATOM     25  O   UNL     1      -2.981  -0.679   4.452  0.00  0.00    -0.276 OA
ATOM     26  N   UNL     1      -4.971  -1.475   3.881  0.00  0.00    -0.298 N 
ATOM     27  C   UNL     1      -5.785  -2.287   2.966  0.00  0.00    +0.126 C 
ATOM     28  C   UNL     1      -6.543  -3.339   3.787  0.00  0.00    +0.124 C 
ATOM     29  N   UNL     1      -7.202  -2.667   4.915  0.00  0.00    -0.324 N 
ATOM     30  C   UNL     1      -6.388  -1.855   5.830  0.00  0.00    +0.124 C 
ATOM     31  C   UNL     1      -5.630  -0.808   5.013  0.00  0.00    +0.126 C 
BRANCH  29  32
ATOM     32  C   UNL     1      -8.581  -2.799   5.116  0.00  0.00    +0.072 A 
ATOM     33  C   UNL     1      -9.074  -3.827   5.906  0.00  0.00    +0.027 A 
ATOM     34  C   UNL     1     -10.436  -3.955   6.103  0.00  0.00    +0.002 A 
ATOM     35  C   UNL     1     -11.310  -3.060   5.513  0.00  0.00    +0.004 A 
ATOM     36  C   UNL     1     -10.826  -2.033   4.724  0.00  0.00    +0.047 A 
ATOM     37  C   UNL     1      -9.462  -1.895   4.526  0.00  0.00    +0.141 A 
BRANCH  37  38
ATOM     38  O   UNL     1      -8.984  -0.882   3.754  0.00  0.00    -0.493 OA
ATOM     39  C   UNL     1      -9.946   0.007   3.182  0.00  0.00    +0.277 C 
ENDBRANCH  37  38
ENDBRANCH  29  32
ENDBRANCH  23  24
ENDBRANCH  22  23
ENDBRANCH   5  22
TORSDOF 9
