REMARK  Name = ZINC20723744
REMARK  4 active torsions:
REMARK  status: ('A' for Active; 'I' for Inactive)
REMARK    1  A    between atoms: C_9  and  S_14
REMARK    2  A    between atoms: S_14  and  C_15
REMARK    3  A    between atoms: C_18  and  C_21
REMARK    4  A    between atoms: C_21  and  C_22
REMARK                            x       y       z     vdW  Elec       q    Type
REMARK                         _______ _______ _______ _____ _____    ______ ____
ROOT
ATOM      1  C   UNL     1      -0.017   1.372   0.010  0.00  0.00    +0.000 A 
ATOM      2  C   UNL     1       1.179   2.068   0.002  0.00  0.00    +0.002 A 
ATOM      3  C   UNL     1       2.365   1.376  -0.009  0.00  0.00    +0.023 A 
ATOM      4  C   UNL     1       2.396  -0.029  -0.019  0.00  0.00    +0.037 A 
ATOM      5  C   UNL     1       1.202  -0.717  -0.015  0.00  0.00    -0.026 A 
ATOM      6  C   UNL     1       0.002  -0.004   0.002  0.00  0.00    +0.005 A 
ATOM      7  C   UNL     1       1.065  -2.205  -0.038  0.00  0.00    +0.038 C 
ATOM      8  C   UNL     1       2.088  -2.941  -0.845  0.00  0.00    +0.028 C 
ATOM      9  C   UNL     1       3.424  -3.065  -0.153  0.00  0.00    +0.141 C 
ATOM     10  C   UNL     1       4.162  -1.775  -0.136  0.00  0.00    +0.231 C 
ATOM     11  O   UNL     1       5.368  -1.841  -0.249  0.00  0.00    -0.274 OA
ATOM     12  N   UNL     1       3.656  -0.581  -0.012  0.00  0.00    -0.284 N 
ATOM     13  H   UNL     1       4.343   0.091   0.116  0.00  0.00    +0.155 HD
ENDROOT
BRANCH   9  14
ATOM     14  S   UNL     1       4.426  -4.304  -1.021  0.00  0.00    -0.074 S 
BRANCH  14  15
ATOM     15  C   UNL     1       5.876  -4.449  -0.030  0.00  0.00    +0.185 A 
ATOM     16  N   UNL     1       6.127  -3.787   1.079  0.00  0.00    -0.205 NA
ATOM     17  H   UNL     1       7.026  -5.878  -1.016  0.00  0.00    +0.191 HD
ATOM     18  C   UNL     1       7.316  -4.149   1.560  0.00  0.00    +0.157 A 
ATOM     19  N   UNL     1       7.843  -5.045   0.769  0.00  0.00    -0.156 NA
ATOM     20  N   UNL     1       6.925  -5.265  -0.271  0.00  0.00    -0.254 N 
BRANCH  18  21
ATOM     21  C   UNL     1       7.953  -3.611   2.815  0.00  0.00    +0.120 C 
BRANCH  21  22
ATOM     22  C   UNL     1       7.545  -4.462   3.990  0.00  0.00    -0.003 A 
ATOM     23  C   UNL     1       8.154  -5.560   4.501  0.00  0.00    +0.011 A 
ATOM     24  C   UNL     1       7.594  -6.188   5.598  0.00  0.00    +0.008 A 
ATOM     25  C   UNL     1       6.453  -5.687   6.130  0.00  0.00    +0.045 A 
ATOM     26  S   UNL     1       6.139  -4.281   5.075  0.00  0.00    -0.101 S 
ENDBRANCH  21  22
ENDBRANCH  18  21
ENDBRANCH  14  15
ENDBRANCH   9  14
TORSDOF 4
