REMARK  Name = ZINC02916457
REMARK  6 active torsions:
REMARK  status: ('A' for Active; 'I' for Inactive)
REMARK    1  A    between atoms: C_1  and  O_2
REMARK    2  A    between atoms: O_2  and  C_3
REMARK    3  A    between atoms: C_6  and  O_27
REMARK    4  A    between atoms: C_7  and  C_9
REMARK    5  A    between atoms: C_12  and  C_20
REMARK    6  A    between atoms: O_27  and  C_28
REMARK                            x       y       z     vdW  Elec       q    Type
REMARK                         _______ _______ _______ _____ _____    ______ ____
ROOT
ATOM      1  C   UNL     1       1.323  -4.108  -2.285  0.00  0.00    +0.148 C 
ATOM      2  C   UNL     1      -0.103  -4.674  -2.296  0.00  0.00    +0.059 C 
ATOM      3  C   UNL     1      -0.060  -6.193  -2.095  0.00  0.00    +0.106 C 
ATOM      4  N   UNL     1       0.527  -6.479  -0.771  0.00  0.00    -0.305 N 
ATOM      5  C   UNL     1       1.648  -5.736  -0.425  0.00  0.00    +0.236 A 
ATOM      6  N   UNL     1       2.033  -4.635  -1.123  0.00  0.00    -0.206 N 
ATOM      7  N   UNL     1       3.186  -4.173  -0.489  0.00  0.00    -0.042 NA
ATOM      8  N   UNL     1       3.413  -4.979   0.496  0.00  0.00    -0.021 NA
ATOM      9  N   UNL     1       2.506  -5.901   0.542  0.00  0.00    -0.092 NA
ATOM     10  H   UNL     1       0.151  -7.146  -0.176  0.00  0.00    +0.150 HD
ENDROOT
BRANCH   3  11
ATOM     11  C   UNL     1      -1.458  -6.752  -2.163  0.00  0.00    -0.027 A 
ATOM     12  C   UNL     1      -2.292  -6.662  -1.065  0.00  0.00    +0.006 A 
ATOM     13  C   UNL     1      -3.574  -7.174  -1.127  0.00  0.00    +0.015 A 
ATOM     14  C   UNL     1      -4.022  -7.777  -2.288  0.00  0.00    +0.013 A 
ATOM     15  C   UNL     1      -3.187  -7.868  -3.386  0.00  0.00    +0.015 A 
ATOM     16  C   UNL     1      -1.907  -7.350  -3.325  0.00  0.00    +0.006 A 
ATOM     17  I   UNL     1      -5.965  -8.555  -2.382  0.00  0.00    -0.044 I 
ENDBRANCH   3  11
BRANCH   1  22
ATOM     18  C   UNL     1       0.606  -0.608  -1.056  0.00  0.00    +0.121 A 
ATOM     19  C   UNL     1       1.173   0.161  -2.062  0.00  0.00    +0.049 A 
ATOM     20  C   UNL     1       1.786  -0.452  -3.138  0.00  0.00    +0.049 A 
ATOM     21  C   UNL     1       1.835  -1.836  -3.211  0.00  0.00    +0.126 A 
ATOM     22  C   UNL     1       1.269  -2.604  -2.205  0.00  0.00    +0.022 A 
ATOM     23  C   UNL     1       0.661  -1.991  -1.127  0.00  0.00    +0.055 A 
BRANCH  18  25
ATOM     24  C   UNL     1      -0.017   1.425   0.010  0.00  0.00    +0.277 C 
ATOM     25  O   UNL     1       0.002  -0.004   0.002  0.00  0.00    -0.495 OA
ENDBRANCH  18  25
BRANCH  21  26
ATOM     26  O   UNL     1       2.439  -2.439  -4.270  0.00  0.00    -0.495 OA
ATOM     27  C   UNL     1       3.000  -1.586  -5.269  0.00  0.00    +0.277 C 
ENDBRANCH  21  26
ENDBRANCH   1  22
TORSDOF 4
