REMARK  Name = ZINC03977862
REMARK  5 active torsions:
REMARK  status: ('A' for Active; 'I' for Inactive)
REMARK    1  A    between atoms: C_3  and  O_29
REMARK    2  A    between atoms: C_10  and  O_28
REMARK    3  A    between atoms: N_14  and  C_15
REMARK    4  A    between atoms: C_15  and  C_16
REMARK    5  A    between atoms: C_23  and  O_27
REMARK                            x       y       z     vdW  Elec       q    Type
REMARK                         _______ _______ _______ _____ _____    ______ ____
ROOT
ATOM      1  C   UNL     1      -0.288   1.218   0.425  0.00  0.00    +0.007 A 
ATOM      2  C   UNL     1       0.871   1.974   0.547  0.00  0.00    +0.049 A 
ATOM      3  C   UNL     1       2.156   1.428   0.576  0.00  0.00    +0.159 A 
ATOM      4  C   UNL     1       2.262   0.051   0.431  0.00  0.00    +0.166 A 
ATOM      5  C   UNL     1       1.069  -0.651   0.205  0.00  0.00    +0.013 A 
ATOM      6  C   UNL     1      -0.201  -0.149   0.283  0.00  0.00    -0.041 A 
ATOM      7  C   UNL     1      -1.307  -1.156   0.321  0.00  0.00    +0.023 C 
ATOM      8  C   UNL     1      -0.882  -2.532  -0.151  0.00  0.00    -0.031 C 
ATOM      9  C   UNL     1       0.438  -3.086   0.367  0.00  0.00    +0.068 C 
ATOM     10  C   UNL     1       1.483  -2.074  -0.036  0.00  0.00    +0.064 C 
ATOM     11  C   UNL     1       1.731  -2.260  -1.512  0.00  0.00    -0.001 C 
ATOM     12  C   UNL     1       0.391  -1.876  -2.180  0.00  0.00    -0.077 C 
ATOM     13  N   UNL     1      -0.759  -2.576  -1.622  0.00  0.00    +0.384 N 
ATOM     14  C   UNL     1       2.616  -2.012   0.985  0.00  0.00    +0.215 C 
ATOM     15  O   UNL     1       3.300  -0.854   0.534  0.00  0.00    -0.481 OA
ATOM     16  C   UNL     1       3.099  -3.392   1.268  0.00  0.00    +0.156 C 
ATOM     17  C   UNL     1       1.966  -4.045   2.108  0.00  0.00    +0.038 C 
ATOM     18  C   UNL     1       0.646  -3.302   1.855  0.00  0.00    +0.037 C 
ATOM     19  H   UNL     1      -0.709  -3.542  -1.907  0.00  0.00    -0.081 HD
ENDROOT
BRANCH  16  20
ATOM     20  O   UNL     1       4.316  -3.349   2.017  0.00  0.00    -0.388 OA
ATOM     21  H   UNL     1       4.677  -4.221   2.230  0.00  0.00    +0.210 HD
ENDBRANCH  16  20
BRANCH   9  22
ATOM     22  O   UNL     1       0.714  -4.312  -0.312  0.00  0.00    -0.389 OA
ATOM     23  H   UNL     1       0.040  -4.993  -0.184  0.00  0.00    +0.210 HD
ENDBRANCH   9  22
BRANCH   3  24
ATOM     24  O   UNL     1       3.256   2.211   0.739  0.00  0.00    -0.503 OA
ATOM     25  H   UNL     1       3.513   2.341   1.662  0.00  0.00    +0.292 HD
ENDBRANCH   3  24
BRANCH  13  26
ATOM     26  C   UNL     1      -1.977  -1.994  -2.203  0.00  0.00    -0.075 C 
BRANCH  26  27
ATOM     27  C   UNL     1      -1.957  -2.180  -3.721  0.00  0.00    -0.028 C 
ATOM     28  C   UNL     1      -1.236  -1.047  -4.471  0.00  0.00    +0.002 C 
ATOM     29  C   UNL     1      -2.349  -1.145  -5.528  0.00  0.00    +0.000 C 
ATOM     30  C   UNL     1      -3.247  -1.713  -4.416  0.00  0.00    +0.002 C 
ENDBRANCH  26  27
ENDBRANCH  13  26
TORSDOF 5
