REMARK  Name = ZINC41627040
REMARK  10 active torsions:
REMARK  status: ('A' for Active; 'I' for Inactive)
REMARK    1  A    between atoms: C_1  and  C_2
REMARK    2  A    between atoms: C_2  and  C_4
REMARK    3  A    between atoms: C_2  and  S_17
REMARK    4  A    between atoms: N_6  and  C_7
REMARK    5  A    between atoms: C_10  and  S_13
REMARK    6  A    between atoms: S_13  and  N_16
REMARK    7  A    between atoms: S_17  and  C_18
REMARK    8  A    between atoms: C_24  and  C_26
REMARK    9  A    between atoms: C_26  and  C_27
REMARK   10  A    between atoms: C_26  and  C_28
REMARK                            x       y       z     vdW  Elec       q    Type
REMARK                         _______ _______ _______ _____ _____    ______ ____
ROOT
ATOM      1  C   UNL     1      -1.411  -0.527   0.013  0.00  0.00    +0.230 C 
ATOM      2  O   UNL     1      -1.935  -0.837   1.062  0.00  0.00    -0.274 OA
ATOM      3  N   UNL     1      -2.090  -0.657  -1.144  0.00  0.00    -0.285 N 
ATOM      4  H   UNL     1      -1.697  -0.348  -1.975  0.00  0.00    +0.155 HD
ENDROOT
BRANCH   3   5
ATOM      5  C   UNL     1      -3.363  -1.239  -1.147  0.00  0.00    +0.034 A 
ATOM      6  C   UNL     1      -3.765  -2.028  -2.216  0.00  0.00    +0.025 A 
ATOM      7  C   UNL     1      -5.022  -2.600  -2.216  0.00  0.00    +0.030 A 
ATOM      8  C   UNL     1      -5.880  -2.388  -1.152  0.00  0.00    +0.105 A 
ATOM      9  C   UNL     1      -5.482  -1.602  -0.086  0.00  0.00    +0.030 A 
ATOM     10  C   UNL     1      -4.224  -1.032  -0.077  0.00  0.00    +0.025 A 
BRANCH   8  11
ATOM     11  S   UNL     1      -7.482  -3.120  -1.155  0.00  0.00    +0.056 S 
ATOM     12  O   UNL     1      -8.294  -2.325  -0.301  0.00  0.00    -0.153 OA
ATOM     13  O   UNL     1      -7.816  -3.362  -2.515  0.00  0.00    -0.153 OA
BRANCH  11  14
ATOM     14  N   UNL     1      -7.345  -4.603  -0.431  0.00  0.00    -0.204 NA
ATOM     15  H   UNL     1      -6.483  -4.905  -0.103  0.00  0.00    +0.144 HD
ATOM     16  H   UNL     1      -8.126  -5.170  -0.334  0.00  0.00    +0.144 HD
ENDBRANCH  11  14
ENDBRANCH   8  11
ENDBRANCH   3   5
BRANCH   1  18
ATOM     17  C   UNL     1      -0.030   1.532   0.018  0.00  0.00    +0.029 C 
ATOM     18  C   UNL     1      -0.000   0.002   0.002  0.00  0.00    +0.137 C 
BRANCH  18  19
ATOM     19  S   UNL     1       0.882  -0.600   1.468  0.00  0.00    -0.075 S 
BRANCH  19  20
ATOM     20  C   UNL     1       2.533  -0.027   1.238  0.00  0.00    +0.170 A 
ATOM     21  N   UNL     1       3.479  -0.317   2.174  0.00  0.00    -0.302 N 
ATOM     22  H   UNL     1       3.243  -0.834   2.960  0.00  0.00    +0.171 HD
ATOM     23  C   UNL     1       4.745   0.119   2.003  0.00  0.00    +0.252 A 
ATOM     24  O   UNL     1       5.605  -0.131   2.832  0.00  0.00    -0.268 OA
ATOM     25  C   UNL     1       5.054   0.867   0.853  0.00  0.00    +0.093 A 
ATOM     26  C   UNL     1       4.064   1.126  -0.051  0.00  0.00    +0.052 A 
ATOM     27  N   UNL     1       2.832   0.670   0.159  0.00  0.00    -0.228 NA
BRANCH  26  28
ATOM     28  C   UNL     1       4.370   1.925  -1.291  0.00  0.00    +0.032 C 
ATOM     29  C   UNL     1       4.067   1.080  -2.530  0.00  0.00    +0.014 C 
ATOM     30  C   UNL     1       3.505   3.187  -1.311  0.00  0.00    +0.014 C 
ENDBRANCH  26  28
ENDBRANCH  19  20
ENDBRANCH  18  19
ENDBRANCH   1  18
TORSDOF 7
