REMARK  Name = ZINC12502400
REMARK  9 active torsions:
REMARK  status: ('A' for Active; 'I' for Inactive)
REMARK    1  A    between atoms: C_6  and  O_11
REMARK    2  A    between atoms: O_11  and  C_12
REMARK    3  A    between atoms: C_12  and  C_13
REMARK    4  A    between atoms: N_15  and  N_16
REMARK    5  A    between atoms: N_16  and  C_17
REMARK    6  A    between atoms: C_17  and  N_19
REMARK    7  A    between atoms: C_20  and  C_22
REMARK    8  A    between atoms: C_22  and  O_23
REMARK    9  A    between atoms: O_23  and  C_24
REMARK                            x       y       z     vdW  Elec       q    Type
REMARK                         _______ _______ _______ _____ _____    ______ ____
ROOT
ATOM      1  N   UNL     1       5.358  -4.024  -0.074  0.00  0.00    -0.245 N 
ATOM      2  H   UNL     1       6.259  -4.381  -0.085  0.00  0.00    +0.172 HD
ENDROOT
BRANCH   1   5
ATOM      3  C   UNL     1       4.455  -6.226  -0.077  0.00  0.00    +0.267 C 
ATOM      4  O   UNL     1       5.583  -6.674  -0.091  0.00  0.00    -0.271 OA
ATOM      5  N   UNL     1       4.259  -4.893  -0.068  0.00  0.00    -0.232 N 
ATOM      6  H   UNL     1       3.358  -4.536  -0.057  0.00  0.00    +0.173 HD
BRANCH   3   7
ATOM      7  C   UNL     1       3.274  -7.162  -0.071  0.00  0.00    +0.326 C 
BRANCH   7   8
ATOM      8  O   UNL     1       3.737  -8.514  -0.084  0.00  0.00    -0.483 OA
BRANCH   8  14
ATOM      9  C   UNL     1       0.234 -13.769  -0.079  0.00  0.00    +0.001 A 
ATOM     10  C   UNL     1       1.583 -14.121  -0.094  0.00  0.00    +0.001 A 
ATOM     11  C   UNL     1       2.555 -13.169  -0.098  0.00  0.00    +0.008 A 
ATOM     12  C   UNL     1       2.199 -11.810  -0.087  0.00  0.00    -0.014 A 
ATOM     13  C   UNL     1       3.175 -10.800  -0.091  0.00  0.00    +0.054 A 
ATOM     14  C   UNL     1       2.791  -9.490  -0.080  0.00  0.00    +0.122 A 
ATOM     15  C   UNL     1       1.438  -9.139  -0.059  0.00  0.00    +0.046 A 
ATOM     16  C   UNL     1       0.468 -10.092  -0.061  0.00  0.00    +0.012 A 
ATOM     17  C   UNL     1       0.827 -11.452  -0.072  0.00  0.00    -0.018 A 
ATOM     18  C   UNL     1      -0.149 -12.463  -0.068  0.00  0.00    +0.008 A 
ENDBRANCH   8  14
ENDBRANCH   7   8
ENDBRANCH   3   7
ENDBRANCH   1   5
BRANCH   1  19
ATOM     19  C   UNL     1       5.162  -2.690  -0.064  0.00  0.00    +0.153 C 
ATOM     20  S   UNL     1       6.504  -1.627  -0.071  0.00  0.00    -0.017 S 
BRANCH  19  21
ATOM     21  N   UNL     1       3.909  -2.193  -0.049  0.00  0.00    -0.264 N 
ATOM     22  C   UNL     1       3.713  -0.860  -0.040  0.00  0.00    +0.256 C 
ATOM     23  O   UNL     1       4.663  -0.107  -0.044  0.00  0.00    -0.272 OA
ATOM     24  H   UNL     1       3.148  -2.795  -0.045  0.00  0.00    +0.157 HD
BRANCH  22  25
ATOM     25  C   UNL     1       2.312  -0.304  -0.023  0.00  0.00    +0.325 C 
BRANCH  25  26
ATOM     26  O   UNL     1       2.366   1.123  -0.015  0.00  0.00    -0.481 OA
BRANCH  26  27
ATOM     27  C   UNL     1       1.179   1.786   0.000  0.00  0.00    +0.140 A 
ATOM     28  C   UNL     1      -0.013   1.076   0.008  0.00  0.00    +0.048 A 
ATOM     29  C   UNL     1      -1.218   1.751   0.017  0.00  0.00    +0.023 A 
ATOM     30  C   UNL     1      -1.238   3.134   0.031  0.00  0.00    +0.043 A 
ATOM     31  C   UNL     1      -0.051   3.845   0.023  0.00  0.00    +0.043 A 
ATOM     32  C   UNL     1       1.157   3.174   0.008  0.00  0.00    +0.084 A 
ATOM     33 CL   UNL     1       2.647   4.066  -0.002  0.00  0.00    -0.080 Cl
ATOM     34 CL   UNL     1      -2.754   3.979   0.049  0.00  0.00    -0.083 Cl
ENDBRANCH  26  27
ENDBRANCH  25  26
ENDBRANCH  22  25
ENDBRANCH  19  21
ENDBRANCH   1  19
TORSDOF 9
