REMARK  Name = ZINC03672640
REMARK  8 active torsions:
REMARK  status: ('A' for Active; 'I' for Inactive)
REMARK    1  A    between atoms: C_1  and  C_2
REMARK    2  A    between atoms: C_2  and  O_3
REMARK    3  A    between atoms: O_3  and  C_4
REMARK    4  A    between atoms: C_7  and  C_12
REMARK    5  A    between atoms: C_9  and  O_10
REMARK    6  A    between atoms: O_10  and  C_11
REMARK    7  A    between atoms: C_25  and  N_29
REMARK    8  A    between atoms: C_26  and  C_27
REMARK                            x       y       z     vdW  Elec       q    Type
REMARK                         _______ _______ _______ _____ _____    ______ ____
ROOT
ATOM      1  C   UNL     1       4.856   4.032  -0.034  0.00  0.00    +0.099 C 
ATOM      2  C   UNL     1       3.553   3.275  -0.020  0.00  0.00    +0.008 A 
ATOM      3  C   UNL     1       3.582   1.879  -0.025  0.00  0.00    +0.009 A 
ATOM      4  C   UNL     1       2.437   1.146  -0.014  0.00  0.00    +0.009 A 
ATOM      5  C   UNL     1       1.192   1.799   0.000  0.00  0.00    -0.014 A 
ATOM      6  C   UNL     1      -0.013   1.076   0.008  0.00  0.00    +0.008 A 
ATOM      7  C   UNL     1      -1.198   1.744   0.017  0.00  0.00    +0.001 A 
ATOM      8  C   UNL     1      -1.236   3.137   0.031  0.00  0.00    +0.001 A 
ATOM      9  C   UNL     1      -0.088   3.870   0.023  0.00  0.00    +0.012 A 
ATOM     10  C   UNL     1       1.153   3.214   0.007  0.00  0.00    +0.025 A 
ATOM     11  C   UNL     1       2.363   3.944  -0.004  0.00  0.00    +0.142 A 
ATOM     12  O   UNL     1       2.319   5.298   0.000  0.00  0.00    -0.440 OA
ATOM     13  C   UNL     1       3.396   6.004   0.383  0.00  0.00    +0.199 C 
ATOM     14  C   UNL     1       4.635   5.457   0.389  0.00  0.00    +0.098 C 
ENDROOT
BRANCH   1  18
ATOM     15  C   UNL     1       6.495   3.961  -3.983  0.00  0.00    +0.163 A 
ATOM     16  C   UNL     1       7.208   3.420  -2.925  0.00  0.00    +0.065 A 
ATOM     17  C   UNL     1       6.675   3.445  -1.649  0.00  0.00    +0.026 A 
ATOM     18  C   UNL     1       5.432   4.008  -1.426  0.00  0.00    -0.017 A 
ATOM     19  C   UNL     1       4.714   4.545  -2.479  0.00  0.00    +0.055 A 
ATOM     20  C   UNL     1       5.244   4.528  -3.759  0.00  0.00    +0.162 A 
ATOM     21 BR   UNL     1       7.649   2.706  -0.206  0.00  0.00    -0.050 Br
BRANCH  20  22
ATOM     22  O   UNL     1       4.541   5.060  -4.795  0.00  0.00    -0.491 OA
ATOM     23  C   UNL     1       3.264   5.625  -4.490  0.00  0.00    +0.277 C 
ENDBRANCH  20  22
BRANCH  15  24
ATOM     24  O   UNL     1       7.017   3.938  -5.239  0.00  0.00    -0.489 OA
BRANCH  24  26
ATOM     25  C   UNL     1       8.724   3.408  -6.865  0.00  0.00    +0.048 C 
ATOM     26  C   UNL     1       8.306   3.341  -5.395  0.00  0.00    +0.226 C 
ENDBRANCH  24  26
ENDBRANCH  15  24
ENDBRANCH   1  18
BRANCH  13  27
ATOM     27  N   UNL     1       3.236   7.309   0.777  0.00  0.00    -0.328 N 
ATOM     28  H   UNL     1       4.006   7.829   1.056  0.00  0.00    +0.145 HD
ATOM     29  H   UNL     1       2.354   7.712   0.777  0.00  0.00    +0.145 HD
ENDBRANCH  13  27
BRANCH  14  30
ATOM     30  C   UNL     1       5.753   6.249   0.805  0.00  0.00    +0.101 C 
ATOM     31  N   UNL     1       6.640   6.878   1.136  0.00  0.00    -0.191 NA
ENDBRANCH  14  30
TORSDOF 6
