REMARK  Name = ZINC22064006
REMARK  10 active torsions:
REMARK  status: ('A' for Active; 'I' for Inactive)
REMARK    1  A    between atoms: C_1  and  C_2
REMARK    2  A    between atoms: C_2  and  C_3
REMARK    3  A    between atoms: C_2  and  C_4
REMARK    4  A    between atoms: C_4  and  C_6
REMARK    5  A    between atoms: C_4  and  N_14
REMARK    6  A    between atoms: C_9  and  O_12
REMARK    7  A    between atoms: O_12  and  C_13
REMARK    8  A    between atoms: C_15  and  C_17
REMARK    9  A    between atoms: C_17  and  N_18
REMARK   10  A    between atoms: C_21  and  C_24
REMARK                            x       y       z     vdW  Elec       q    Type
REMARK                         _______ _______ _______ _____ _____    ______ ____
ROOT
ATOM      1  C   UNL     1       0.807  -3.054   1.852  0.00  0.00    +0.019 C 
ENDROOT
BRANCH   1   2
ATOM      2  N   UNL     1       1.981  -3.546   1.119  0.00  0.00    +0.385 N 
ATOM      3  C   UNL     1       3.106  -2.609   1.237  0.00  0.00    -0.077 C 
ATOM      4  C   UNL     1       4.258  -3.079   0.346  0.00  0.00    -0.006 C 
ATOM      5  C   UNL     1       4.691  -4.483   0.779  0.00  0.00    +0.072 C 
ATOM      6  C   UNL     1       3.490  -5.428   0.694  0.00  0.00    -0.006 C 
ATOM      7  C   UNL     1       2.360  -4.890   1.574  0.00  0.00    -0.077 C 
ATOM      8  H   UNL     1       1.712  -3.616   0.055  0.00  0.00    -0.081 HD
BRANCH   5   9
ATOM      9  C   UNL     1       5.785  -4.976  -0.132  0.00  0.00    +0.219 C 
ATOM     10  O   UNL     1       5.516  -5.700  -1.067  0.00  0.00    -0.275 OA
ATOM     11  N   UNL     1       7.064  -4.612   0.091  0.00  0.00    -0.301 N 
ATOM     12  C   UNL     1       8.104  -5.202  -0.721  0.00  0.00    +0.108 C 
ATOM     13  C   UNL     1       8.606  -6.506  -0.066  0.00  0.00    +0.019 C 
ATOM     14  C   UNL     1       9.385  -6.202   1.145  0.00  0.00    +0.002 C 
ATOM     15  C   UNL     1       8.589  -5.506   2.245  0.00  0.00    +0.002 C 
ATOM     16  C   UNL     1       8.580  -4.019   1.992  0.00  0.00    +0.019 C 
ATOM     17  C   UNL     1       7.344  -3.632   1.159  0.00  0.00    +0.108 C 
ENDBRANCH   5   9
ENDBRANCH   1   2
BRANCH   1  19
ATOM     18  N   UNL     1      -1.561  -3.704   2.149  0.00  0.00    -0.310 N 
ATOM     19  C   UNL     1      -0.391  -3.903   1.512  0.00  0.00    +0.197 C 
ATOM     20  O   UNL     1      -0.301  -4.766   0.665  0.00  0.00    -0.278 OA
ATOM     21  H   UNL     1      -1.643  -2.921   2.918  0.00  0.00    +0.149 HD
BRANCH  18  22
ATOM     22  C   UNL     1      -2.725  -4.529   1.818  0.00  0.00    +0.106 C 
BRANCH  22  23
ATOM     23  C   UNL     1      -3.987  -3.777   2.155  0.00  0.00    -0.027 A 
ATOM     24  C   UNL     1      -4.054  -3.025   3.313  0.00  0.00    +0.009 A 
ATOM     25  C   UNL     1      -5.208  -2.330   3.621  0.00  0.00    +0.046 A 
ATOM     26  C   UNL     1      -6.303  -2.396   2.772  0.00  0.00    +0.120 A 
ATOM     27  C   UNL     1      -6.235  -3.155   1.613  0.00  0.00    +0.046 A 
ATOM     28  C   UNL     1      -5.077  -3.844   1.307  0.00  0.00    +0.009 A 
BRANCH  26  29
ATOM     29  O   UNL     1      -7.441  -1.718   3.076  0.00  0.00    -0.495 OA
ATOM     30  C   UNL     1      -7.440  -0.957   4.286  0.00  0.00    +0.277 C 
ENDBRANCH  26  29
ENDBRANCH  22  23
BRANCH  22  32
ATOM     31  C   UNL     1      -1.395  -6.592   2.284  0.00  0.00    +0.009 C 
ATOM     32  C   UNL     1      -2.675  -5.828   2.625  0.00  0.00    +0.008 C 
ATOM     33  C   UNL     1      -3.891  -6.690   2.280  0.00  0.00    +0.009 C 
ENDBRANCH  22  32
ENDBRANCH  18  22
ENDBRANCH   1  19
TORSDOF 7
