REMARK  Name = ZINC62711498
REMARK  4 active torsions:
REMARK  status: ('A' for Active; 'I' for Inactive)
REMARK    1  A    between atoms: C_1  and  N_2
REMARK    2  A    between atoms: N_2  and  C_3
REMARK    3  A    between atoms: N_2  and  C_4
REMARK    4  A    between atoms: C_4  and  C_5
REMARK                            x       y       z     vdW  Elec       q    Type
REMARK                         _______ _______ _______ _____ _____    ______ ____
ROOT
ATOM      1  C   UNL     1      -1.996  -0.323  -1.379  0.00  0.00    +0.047 C 
ATOM      2  C   UNL     1      -3.370  -0.961  -1.413  0.00  0.00    +0.050 C 
ATOM      3  C   UNL     1      -4.068  -0.800  -2.755  0.00  0.00    +0.230 C 
ATOM      4  O   UNL     1      -4.423   0.557  -3.003  0.00  0.00    -0.490 OA
ATOM      5  C   UNL     1      -3.482   1.327  -3.620  0.00  0.00    +0.145 A 
ATOM      6  C   UNL     1      -2.309   1.676  -2.935  0.00  0.00    +0.060 A 
ATOM      7  C   UNL     1      -1.349   2.478  -3.555  0.00  0.00    +0.015 A 
ATOM      8  C   UNL     1      -1.561   2.914  -4.846  0.00  0.00    +0.002 A 
ATOM      9  C   UNL     1      -2.716   2.561  -5.524  0.00  0.00    +0.019 A 
ATOM     10  C   UNL     1      -3.676   1.770  -4.919  0.00  0.00    +0.060 A 
ATOM     11 BR   UNL     1      -5.247   1.296  -5.859  0.00  0.00    -0.046 Br
ATOM     12  C   UNL     1      -2.117   1.175  -1.564  0.00  0.00    +0.168 C 
ATOM     13  O   UNL     1      -2.055   1.933  -0.619  0.00  0.00    -0.292 OA
ENDROOT
BRANCH   1  14
ATOM     14  C   UNL     1      -1.333  -0.617  -0.031  0.00  0.00    -0.068 C 
BRANCH  14  16
ATOM     15  C   UNL     1       0.643  -0.280   1.286  0.00  0.00    -0.097 C 
ATOM     16  N   UNL     1       0.052  -0.127  -0.050  0.00  0.00    +0.376 N 
ATOM     17  C   UNL     1       0.832  -0.904  -1.022  0.00  0.00    -0.097 C 
ATOM     18  H   UNL     1       0.061   0.847  -0.312  0.00  0.00    -0.083 HD
ENDBRANCH  14  16
ENDBRANCH   1  14
TORSDOF 2
