REMARK  Name = ZINC40912279
REMARK  6 active torsions:
REMARK  status: ('A' for Active; 'I' for Inactive)
REMARK    1  A    between atoms: C_4  and  C_7
REMARK    2  A    between atoms: C_10  and  O_14
REMARK    3  A    between atoms: O_14  and  C_15
REMARK    4  A    between atoms: C_15  and  C_16
REMARK    5  A    between atoms: N_18  and  N_19
REMARK    6  A    between atoms: C_20  and  C_21
REMARK                            x       y       z     vdW  Elec       q    Type
REMARK                         _______ _______ _______ _____ _____    ______ ____
ROOT
ATOM      1  C   UNL     1       9.703  -2.796  -0.106  0.00  0.00    +0.270 C 
ATOM      2  O   UNL     1       9.563  -4.001  -0.117  0.00  0.00    -0.270 OA
ATOM      3  N   UNL     1      10.940  -2.261  -0.111  0.00  0.00    -0.204 N 
ATOM      4  H   UNL     1      11.051  -1.297  -0.103  0.00  0.00    +0.177 HD
ENDROOT
BRANCH   3   5
ATOM      5  N   UNL     1      12.065  -3.096  -0.128  0.00  0.00    -0.188 NA
ATOM      6  C   UNL     1      13.257  -2.580  -0.133  0.00  0.00    +0.140 C 
BRANCH   6   7
ATOM      7  C   UNL     1      14.438  -3.458  -0.150  0.00  0.00    +0.020 A 
ATOM      8  C   UNL     1      15.741  -3.067  -0.151  0.00  0.00    +0.093 A 
ATOM      9  N   UNL     1      16.550  -4.164  -0.170  0.00  0.00    -0.360 N 
ATOM     10  H   UNL     1      17.520  -4.138  -0.174  0.00  0.00    +0.165 HD
ATOM     11  C   UNL     1      15.792  -5.316  -0.183  0.00  0.00    +0.047 A 
ATOM     12  C   UNL     1      14.441  -4.931  -0.165  0.00  0.00    +0.008 A 
ATOM     13  C   UNL     1      13.440  -5.900  -0.166  0.00  0.00    +0.010 A 
ATOM     14  C   UNL     1      13.781  -7.234  -0.181  0.00  0.00    +0.001 A 
ATOM     15  C   UNL     1      15.116  -7.615  -0.196  0.00  0.00    +0.002 A 
ATOM     16  C   UNL     1      16.116  -6.668  -0.203  0.00  0.00    +0.026 A 
ENDBRANCH   6   7
ENDBRANCH   3   5
BRANCH   1  17
ATOM     17  C   UNL     1       8.493  -1.898  -0.088  0.00  0.00    +0.326 C 
BRANCH  17  18
ATOM     18  O   UNL     1       7.308  -2.695  -0.086  0.00  0.00    -0.482 OA
BRANCH  18  22
ATOM     19  C   UNL     1       3.699  -0.689  -0.038  0.00  0.00    -0.017 A 
ATOM     20  C   UNL     1       4.895   0.026  -0.041  0.00  0.00    +0.012 A 
ATOM     21  C   UNL     1       6.099  -0.647  -0.057  0.00  0.00    +0.047 A 
ATOM     22  C   UNL     1       6.120  -2.035  -0.070  0.00  0.00    +0.135 A 
ATOM     23  C   UNL     1       4.929  -2.750  -0.068  0.00  0.00    +0.060 A 
ATOM     24  C   UNL     1       3.722  -2.082  -0.046  0.00  0.00    +0.027 A 
ATOM     25 BR   UNL     1       4.963  -4.641  -0.087  0.00  0.00    -0.046 Br
BRANCH  19  29
ATOM     26  C   UNL     1      -0.017   1.379   0.010  0.00  0.00    +0.000 A 
ATOM     27  C   UNL     1       1.169   2.092   0.002  0.00  0.00    +0.001 A 
ATOM     28  C   UNL     1       2.377   1.426  -0.013  0.00  0.00    +0.008 A 
ATOM     29  C   UNL     1       2.402   0.033  -0.021  0.00  0.00    -0.018 A 
ATOM     30  C   UNL     1       1.205  -0.680  -0.013  0.00  0.00    +0.008 A 
ATOM     31  C   UNL     1       0.002  -0.004   0.002  0.00  0.00    +0.001 A 
ENDBRANCH  19  29
ENDBRANCH  18  22
ENDBRANCH  17  18
ENDBRANCH   1  17
TORSDOF 6
