REMARK  Name = ZINC05331688
REMARK  5 active torsions:
REMARK  status: ('A' for Active; 'I' for Inactive)
REMARK    1  A    between atoms: C_4  and  C_7
REMARK    2  A    between atoms: C_7  and  C_8
REMARK    3  A    between atoms: C_8  and  C_10
REMARK    4  A    between atoms: C_8  and  N_17
REMARK    5  A    between atoms: C_13  and  N_16
REMARK                            x       y       z     vdW  Elec       q    Type
REMARK                         _______ _______ _______ _____ _____    ______ ____
ROOT
ATOM      1  C   UNL     1      -2.945   0.711   1.462  0.00  0.00    +0.144 C 
ENDROOT
BRANCH   1   2
ATOM      2  N   UNL     1      -4.138  -0.140   1.465  0.00  0.00    -0.236 N 
ATOM      3  C   UNL     1      -4.260  -1.383   2.038  0.00  0.00    +0.090 A 
ATOM      4  C   UNL     1      -3.396  -2.209   2.749  0.00  0.00    +0.029 A 
ATOM      5  C   UNL     1      -3.832  -3.424   3.198  0.00  0.00    +0.002 A 
ATOM      6  C   UNL     1      -5.133  -3.843   2.950  0.00  0.00    +0.002 A 
ATOM      7  C   UNL     1      -6.000  -3.052   2.255  0.00  0.00    +0.032 A 
ATOM      8  C   UNL     1      -5.578  -1.802   1.784  0.00  0.00    +0.113 A 
ATOM      9  N   UNL     1      -6.190  -0.825   1.086  0.00  0.00    -0.129 NA
ATOM     10  N   UNL     1      -5.382   0.157   0.889  0.00  0.00    -0.064 NA
ENDBRANCH   1   2
BRANCH   1  11
ATOM     11  C   UNL     1      -3.258   2.017   2.145  0.00  0.00    -0.023 A 
ATOM     12  C   UNL     1      -4.250   2.838   1.641  0.00  0.00    +0.007 A 
ATOM     13  C   UNL     1      -4.544   4.034   2.267  0.00  0.00    +0.023 A 
ATOM     14  C   UNL     1      -3.833   4.417   3.398  0.00  0.00    +0.025 A 
ATOM     15  C   UNL     1      -2.833   3.592   3.898  0.00  0.00    +0.023 A 
ATOM     16  C   UNL     1      -2.549   2.395   3.270  0.00  0.00    +0.007 A 
BRANCH  14  17
ATOM     17  N   UNL     1      -4.123   5.628   4.030  0.00  0.00    -0.358 N 
ATOM     18  H   UNL     1      -3.626   5.894   4.819  0.00  0.00    +0.142 HD
ATOM     19  H   UNL     1      -4.822   6.203   3.680  0.00  0.00    +0.142 HD
ENDBRANCH  14  17
ENDBRANCH   1  11
BRANCH   1  20
ATOM     20  C   UNL     1      -2.514   0.980   0.019  0.00  0.00    +0.066 C 
BRANCH  20  24
ATOM     21  C   UNL     1       1.156   3.165   0.008  0.00  0.00    +0.000 A 
ATOM     22  C   UNL     1       1.175   1.783   0.000  0.00  0.00    +0.000 A 
ATOM     23  C   UNL     1      -0.013   1.076   0.008  0.00  0.00    +0.004 A 
ATOM     24  C   UNL     1      -1.219   1.751   0.017  0.00  0.00    -0.045 A 
ATOM     25  C   UNL     1      -1.238   3.133   0.030  0.00  0.00    +0.004 A 
ATOM     26  C   UNL     1      -0.050   3.840   0.022  0.00  0.00    +0.000 A 
ENDBRANCH  20  24
ENDBRANCH   1  20
TORSDOF 5
