REMARK  Name = ZINC66956505
REMARK  6 active torsions:
REMARK  status: ('A' for Active; 'I' for Inactive)
REMARK    1  A    between atoms: C_1  and  C_2
REMARK    2  A    between atoms: C_2  and  C_4
REMARK    3  A    between atoms: C_2  and  N_10
REMARK    4  A    between atoms: C_4  and  C_5
REMARK    5  A    between atoms: N_13  and  C_14
REMARK    6  A    between atoms: C_17  and  C_20
REMARK                            x       y       z     vdW  Elec       q    Type
REMARK                         _______ _______ _______ _____ _____    ______ ____
ROOT
ATOM      1  C   UNL     1      -3.985  -1.373   2.379  0.00  0.00    +0.035 A 
ATOM      2  C   UNL     1      -3.435  -0.988   3.596  0.00  0.00    +0.024 A 
ATOM      3  C   UNL     1      -4.114  -1.236   4.769  0.00  0.00    +0.013 A 
ATOM      4  C   UNL     1      -5.355  -1.873   4.735  0.00  0.00    +0.019 A 
ATOM      5  C   UNL     1      -5.905  -2.258   3.511  0.00  0.00    +0.013 A 
ATOM      6  C   UNL     1      -5.223  -2.003   2.340  0.00  0.00    +0.024 A 
ENDROOT
BRANCH   4   7
ATOM      7  C   UNL     1      -6.086  -2.140   5.992  0.00  0.00    +0.164 A 
ATOM      8  N   UNL     1      -7.080  -2.990   6.158  0.00  0.00    -0.129 NA
ATOM      9  N   UNL     1      -7.476  -2.964   7.385  0.00  0.00    -0.134 NA
ATOM     10  C   UNL     1      -6.766  -2.111   8.060  0.00  0.00    +0.134 A 
ATOM     11  N   UNL     1      -5.859  -1.562   7.202  0.00  0.00    -0.311 N 
ATOM     12  C   UNL     1      -4.867  -0.553   7.568  0.00  0.00    +0.125 C 
ATOM     13  C   UNL     1      -5.277   0.078   8.904  0.00  0.00    +0.022 C 
ATOM     14  C   UNL     1      -5.574  -1.026   9.923  0.00  0.00    +0.009 C 
ATOM     15  C   UNL     1      -6.869  -1.750   9.521  0.00  0.00    +0.076 C 
ENDBRANCH   4   7
BRANCH   1  19
ATOM     16  N   UNL     1      -1.287  -1.050  -0.001  0.00  0.00    -0.296 N 
ATOM     17  C   UNL     1      -1.948  -1.202   1.163  0.00  0.00    +0.304 C 
ATOM     18  O   UNL     1      -1.331  -1.412   2.190  0.00  0.00    -0.253 OA
ATOM     19  N   UNL     1      -3.293  -1.122   1.190  0.00  0.00    -0.269 N 
ATOM     20  H   UNL     1      -1.779  -0.883  -0.820  0.00  0.00    +0.151 HD
ATOM     21  H   UNL     1      -3.781  -0.889   0.385  0.00  0.00    +0.156 HD
BRANCH  16  23
ATOM     22  C   UNL     1       0.775   0.226   0.318  0.00  0.00    +0.028 C 
ATOM     23  C   UNL     1       0.175  -1.138  -0.031  0.00  0.00    +0.076 C 
BRANCH  23  24
ATOM     24  C   UNL     1       0.633  -1.553  -1.430  0.00  0.00    +0.064 C 
BRANCH  24  25
ATOM     25  C   UNL     1       0.144  -2.948  -1.726  0.00  0.00    -0.008 A 
ATOM     26  C   UNL     1      -1.016  -3.340  -2.306  0.00  0.00    +0.011 A 
ATOM     27  C   UNL     1      -1.256  -4.691  -2.479  0.00  0.00    +0.008 A 
ATOM     28  C   UNL     1      -0.323  -5.582  -2.064  0.00  0.00    +0.045 A 
ATOM     29  S   UNL     1       0.946  -4.511  -1.410  0.00  0.00    -0.102 S 
ENDBRANCH  24  25
ENDBRANCH  23  24
ENDBRANCH  16  23
ENDBRANCH   1  19
TORSDOF 5
