REMARK  Name = ZINC24769178
REMARK  9 active torsions:
REMARK  status: ('A' for Active; 'I' for Inactive)
REMARK    1  A    between atoms: C_1  and  C_2
REMARK    2  A    between atoms: C_5  and  O_30
REMARK    3  A    between atoms: C_6  and  C_8
REMARK    4  A    between atoms: C_8  and  C_9
REMARK    5  A    between atoms: C_8  and  N_10
REMARK    6  A    between atoms: C_11  and  C_13
REMARK    7  A    between atoms: C_14  and  C_29
REMARK    8  A    between atoms: C_20  and  C_24
REMARK    9  A    between atoms: O_30  and  C_31
REMARK                            x       y       z     vdW  Elec       q    Type
REMARK                         _______ _______ _______ _____ _____    ______ ____
ROOT
ATOM      1  C   UNL     1      -1.681  -1.766   5.686  0.00  0.00    +0.079 A 
ATOM      2  C   UNL     1      -2.276  -2.164   6.848  0.00  0.00    -0.017 A 
ATOM      3  C   UNL     1      -2.781  -1.210   7.733  0.00  0.00    +0.076 A 
ATOM      4  C   UNL     1      -3.458  -1.411   9.034  0.00  0.00    +0.260 A 
ATOM      5  O   UNL     1      -3.644  -2.533   9.472  0.00  0.00    -0.267 OA
ATOM      6  N   UNL     1      -3.865  -0.327   9.721  0.00  0.00    -0.304 N 
ATOM      7  H   UNL     1      -4.310  -0.443  10.575  0.00  0.00    +0.170 HD
ATOM      8  C   UNL     1      -3.660   0.937   9.236  0.00  0.00    +0.178 A 
ATOM      9  N   UNL     1      -3.059   1.144   8.080  0.00  0.00    -0.219 NA
ATOM     10  C   UNL     1      -2.626   0.141   7.336  0.00  0.00    +0.117 A 
ATOM     11  S   UNL     1      -1.791   0.013   5.774  0.00  0.00    -0.064 S 
ATOM     12  C   UNL     1      -2.390  -3.631   7.174  0.00  0.00    +0.046 C 
ENDROOT
BRANCH   8  13
ATOM     13  C   UNL     1      -4.120   2.088  10.020  0.00  0.00    +0.170 A 
ATOM     14  C   UNL     1      -3.993   3.401   9.668  0.00  0.00    +0.053 A 
ATOM     15  C   UNL     1      -4.568   4.155  10.704  0.00  0.00    +0.042 A 
ATOM     16  C   UNL     1      -5.015   3.280  11.631  0.00  0.00    +0.196 A 
ATOM     17  O   UNL     1      -4.747   2.035  11.213  0.00  0.00    -0.460 OA
ENDBRANCH   8  13
BRANCH   1  19
ATOM     18  N   UNL     1      -0.537  -2.013   3.548  0.00  0.00    -0.304 N 
ATOM     19  C   UNL     1      -1.091  -2.594   4.631  0.00  0.00    +0.251 C 
ATOM     20  O   UNL     1      -1.101  -3.807   4.732  0.00  0.00    -0.270 OA
ATOM     21  H   UNL     1      -0.529  -1.046   3.468  0.00  0.00    +0.150 HD
BRANCH  18  22
ATOM     22  C   UNL     1       0.052  -2.841   2.493  0.00  0.00    +0.104 C 
ATOM     23  C   UNL     1       1.496  -3.187   2.864  0.00  0.00    +0.033 C 
BRANCH  22  29
ATOM     24  C   UNL     1      -0.018   1.503   0.010  0.00  0.00    +0.044 C 
ATOM     25  C   UNL     1       0.002  -0.004   0.002  0.00  0.00    -0.050 A 
ATOM     26  C   UNL     1       0.006  -0.688  -1.200  0.00  0.00    +0.007 A 
ATOM     27  C   UNL     1       0.024  -2.069  -1.210  0.00  0.00    +0.046 A 
ATOM     28  C   UNL     1       0.039  -2.770  -0.013  0.00  0.00    +0.125 A 
ATOM     29  C   UNL     1       0.036  -2.082   1.191  0.00  0.00    +0.014 A 
ATOM     30  C   UNL     1       0.023  -0.701   1.196  0.00  0.00    +0.012 A 
BRANCH  28  31
ATOM     31  O   UNL     1       0.057  -4.129  -0.021  0.00  0.00    -0.495 OA
ATOM     32  C   UNL     1       0.058  -4.771  -1.298  0.00  0.00    +0.277 C 
ENDBRANCH  28  31
ENDBRANCH  22  29
ENDBRANCH  18  22
ENDBRANCH   1  19
TORSDOF 5
