REMARK  Name = ZINC32986129
REMARK  6 active torsions:
REMARK  status: ('A' for Active; 'I' for Inactive)
REMARK    1  A    between atoms: C_1  and  C_2
REMARK    2  A    between atoms: C_5  and  O_9
REMARK    3  A    between atoms: C_6  and  C_8
REMARK    4  A    between atoms: O_9  and  C_10
REMARK    5  A    between atoms: C_10  and  C_11
REMARK    6  A    between atoms: C_15  and  C_24
REMARK                            x       y       z     vdW  Elec       q    Type
REMARK                         _______ _______ _______ _____ _____    ______ ____
ROOT
ATOM      1  C   UNL     1       0.002  -0.004   0.002  0.00  0.00    +0.258 C 
ATOM      2  O   UNL     1       1.056  -0.596  -0.102  0.00  0.00    -0.272 OA
ATOM      3  N   UNL     1      -0.016   1.344   0.009  0.00  0.00    -0.261 N 
ATOM      4  C   UNL     1      -1.287   2.088   0.041  0.00  0.00    +0.168 C 
ATOM      5  C   UNL     1      -1.115   3.256   1.023  0.00  0.00    +0.276 C 
ATOM      6  O   UNL     1      -0.023   4.069   0.585  0.00  0.00    -0.476 OA
ATOM      7  C   UNL     1       1.147   3.448   0.281  0.00  0.00    +0.143 A 
ATOM      8  C   UNL     1       1.176   2.087  -0.008  0.00  0.00    +0.078 A 
ATOM      9  C   UNL     1       2.377   1.468  -0.316  0.00  0.00    +0.027 A 
ATOM     10  C   UNL     1       3.548   2.204  -0.329  0.00  0.00    +0.002 A 
ATOM     11  C   UNL     1       3.521   3.554  -0.035  0.00  0.00    +0.004 A 
ATOM     12  C   UNL     1       2.326   4.177   0.262  0.00  0.00    +0.047 A 
ENDROOT
BRANCH   5  13
ATOM     13  C   UNL     1      -2.377   4.078   1.057  0.00  0.00    +0.253 C 
ATOM     14  O   UNL     1      -2.366   5.225   0.662  0.00  0.00    -0.272 OA
ATOM     15  N   UNL     1      -3.520   3.538   1.525  0.00  0.00    -0.326 N 
ATOM     16  H   UNL     1      -4.442   4.138   1.550  0.00  0.00    +0.145 HD
ATOM     17  H   UNL     1      -3.531   2.498   1.883  0.00  0.00    +0.145 HD
ENDBRANCH   5  13
BRANCH   1  18
ATOM     18  C   UNL     1      -1.287  -0.776   0.124  0.00  0.00    +0.325 C 
BRANCH  18  19
ATOM     19  O   UNL     1      -0.999  -2.173   0.208  0.00  0.00    -0.482 OA
BRANCH  19  24
ATOM     20  C   UNL     1      -5.393  -5.664   0.684  0.00  0.00    +0.044 C 
ATOM     21  C   UNL     1      -4.217  -4.730   0.557  0.00  0.00    -0.050 A 
ATOM     22  C   UNL     1      -4.426  -3.366   0.471  0.00  0.00    +0.007 A 
ATOM     23  C   UNL     1      -3.350  -2.507   0.354  0.00  0.00    +0.046 A 
ATOM     24  C   UNL     1      -2.059  -3.015   0.323  0.00  0.00    +0.124 A 
ATOM     25  C   UNL     1      -1.853  -4.385   0.404  0.00  0.00    -0.009 A 
ATOM     26  C   UNL     1      -2.932  -5.239   0.526  0.00  0.00    +0.010 A 
ATOM     27  C   UNL     1      -0.453  -4.940   0.364  0.00  0.00    +0.047 C 
ENDBRANCH  19  24
ENDBRANCH  18  19
ENDBRANCH   1  18
TORSDOF 4
