REMARK  Name = ZINC36547888
REMARK  13 active torsions:
REMARK  status: ('A' for Active; 'I' for Inactive)
REMARK    1  A    between atoms: C_1  and  C_2
REMARK    2  A    between atoms: C_2  and  C_3
REMARK    3  A    between atoms: C_2  and  C_4
REMARK    4  A    between atoms: C_2  and  N_5
REMARK    5  A    between atoms: C_6  and  C_8
REMARK    6  A    between atoms: C_8  and  C_10
REMARK    7  A    between atoms: C_8  and  N_19
REMARK    8  A    between atoms: C_13  and  O_18
REMARK    9  A    between atoms: C_14  and  O_16
REMARK   10  A    between atoms: O_16  and  C_17
REMARK   11  A    between atoms: N_19  and  C_20
REMARK   12  A    between atoms: C_27  and  C_29
REMARK   13  A    between atoms: C_29  and  O_30
REMARK                            x       y       z     vdW  Elec       q    Type
REMARK                         _______ _______ _______ _____ _____    ______ ____
ROOT
ATOM      1  C   UNL     1       2.555  -0.030  -2.970  0.00  0.00    +0.197 C 
ENDROOT
BRANCH   1   2
ATOM      2  C   UNL     1       2.122  -1.450  -2.708  0.00  0.00    -0.014 A 
ATOM      3  C   UNL     1       2.622  -2.133  -1.615  0.00  0.00    +0.010 A 
ATOM      4  C   UNL     1       2.227  -3.436  -1.371  0.00  0.00    +0.049 A 
ATOM      5  C   UNL     1       1.329  -4.059  -2.223  0.00  0.00    +0.158 A 
ATOM      6  C   UNL     1       0.826  -3.371  -3.323  0.00  0.00    +0.162 A 
ATOM      7  C   UNL     1       1.222  -2.064  -3.559  0.00  0.00    +0.055 A 
BRANCH   6   8
ATOM      8  O   UNL     1      -0.055  -3.978  -4.162  0.00  0.00    -0.491 OA
ATOM      9  C   UNL     1      -0.530  -3.211  -5.271  0.00  0.00    +0.277 C 
ENDBRANCH   6   8
BRANCH   5  10
ATOM     10  O   UNL     1       0.941  -5.340  -1.985  0.00  0.00    -0.503 OA
ATOM     11  H   UNL     1       0.157  -5.415  -1.424  0.00  0.00    +0.292 HD
ENDBRANCH   5  10
ENDBRANCH   1   2
BRANCH   1  13
ATOM     12  N   UNL     1       0.779   1.552  -2.292  0.00  0.00    -0.309 N 
ATOM     13  C   UNL     1       1.905   0.886  -1.966  0.00  0.00    +0.239 C 
ATOM     14  O   UNL     1       2.394   1.025  -0.865  0.00  0.00    -0.273 OA
ATOM     15  H   UNL     1       0.388   1.441  -3.172  0.00  0.00    +0.149 HD
BRANCH  12  17
ATOM     16  C   UNL     1       1.128   3.548  -0.923  0.00  0.00    +0.031 C 
ATOM     17  C   UNL     1       0.146   2.443  -1.316  0.00  0.00    +0.026 C 
ATOM     18  C   UNL     1      -0.245   1.642  -0.072  0.00  0.00    +0.031 C 
ATOM     19  C   UNL     1      -1.106   3.069  -1.934  0.00  0.00    +0.031 C 
ENDBRANCH  12  17
ENDBRANCH   1  13
BRANCH   1  20
ATOM     20  N   UNL     1       4.012   0.066  -2.846  0.00  0.00    -0.252 N 
ATOM     21  C   UNL     1       4.807  -0.543  -3.749  0.00  0.00    +0.246 C 
ATOM     22  O   UNL     1       6.009  -0.552  -3.590  0.00  0.00    -0.273 OA
BRANCH  20  23
ATOM     23  C   UNL     1       4.579   0.791  -1.791  0.00  0.00    +0.056 A 
ATOM     24  C   UNL     1       5.134   0.123  -0.708  0.00  0.00    +0.025 A 
ATOM     25  C   UNL     1       5.693   0.841   0.332  0.00  0.00    +0.002 A 
ATOM     26  C   UNL     1       5.699   2.223   0.295  0.00  0.00    +0.002 A 
ATOM     27  C   UNL     1       5.147   2.892  -0.781  0.00  0.00    +0.022 A 
ATOM     28  C   UNL     1       4.592   2.180  -1.828  0.00  0.00    +0.062 A 
ATOM     29 CL   UNL     1       3.906   3.020  -3.184  0.00  0.00    -0.082 Cl
ENDBRANCH  20  23
BRANCH  21  30
ATOM     30  C   UNL     1       4.201  -1.211  -4.956  0.00  0.00    +0.252 C 
BRANCH  30  31
ATOM     31  O   UNL     1       5.242  -1.745  -5.777  0.00  0.00    -0.386 OA
ATOM     32  H   UNL     1       4.924  -2.191  -6.574  0.00  0.00    +0.210 HD
ENDBRANCH  30  31
ENDBRANCH  21  30
ENDBRANCH   1  20
TORSDOF 9
