REMARK  Name = ZINC13759230
REMARK  4 active torsions:
REMARK  status: ('A' for Active; 'I' for Inactive)
REMARK    1  A    between atoms: C_1  and  C_2
REMARK    2  A    between atoms: C_3  and  C_12
REMARK    3  A    between atoms: N_20  and  C_23
REMARK    4  A    between atoms: N_31  and  C_32
REMARK                            x       y       z     vdW  Elec       q    Type
REMARK                         _______ _______ _______ _____ _____    ______ ____
ROOT
ATOM      1  C   UNL     1       0.185  -0.297  -2.543  0.00  0.00    +0.159 C 
ATOM      2  C   UNL     1      -1.082   0.488  -2.950  0.00  0.00    +0.145 C 
ATOM      3  C   UNL     1      -0.695   1.967  -2.677  0.00  0.00    +0.249 C 
ATOM      4  C   UNL     1      -1.649   2.378  -1.577  0.00  0.00    +0.259 C 
ATOM      5  O   UNL     1      -1.707   3.480  -1.075  0.00  0.00    -0.272 OA
ATOM      6  N   UNL     1      -2.420   1.336  -1.245  0.00  0.00    -0.208 N 
ATOM      7  C   UNL     1      -2.187   0.207  -1.958  0.00  0.00    +0.235 C 
ATOM      8  O   UNL     1      -2.759  -0.854  -1.828  0.00  0.00    -0.274 OA
ATOM      9  O   UNL     1       0.648   1.926  -2.159  0.00  0.00    -0.257 OA
ATOM     10  N   UNL     1       1.254   0.726  -2.639  0.00  0.00    -0.244 N 
ENDROOT
BRANCH   1  13
ATOM     11  C   UNL     1      -0.166  -3.265  -1.703  0.00  0.00    +0.063 C 
ATOM     12  C   UNL     1      -0.088  -2.093  -0.759  0.00  0.00    +0.019 A 
ATOM     13  C   UNL     1       0.064  -0.812  -1.132  0.00  0.00    +0.006 A 
ATOM     14  C   UNL     1       0.088  -0.010   0.094  0.00  0.00    +0.005 A 
ATOM     15  C   UNL     1       0.218   1.355   0.358  0.00  0.00    +0.010 A 
ATOM     16  C   UNL     1       0.203   1.800   1.649  0.00  0.00    +0.001 A 
ATOM     17  C   UNL     1       0.059   0.907   2.702  0.00  0.00    +0.002 A 
ATOM     18  C   UNL     1      -0.071  -0.444   2.464  0.00  0.00    +0.026 A 
ATOM     19  C   UNL     1      -0.058  -0.920   1.157  0.00  0.00    +0.047 A 
ATOM     20  N   UNL     1      -0.168  -2.176   0.604  0.00  0.00    -0.358 N 
ATOM     21  H   UNL     1      -0.282  -2.998   1.107  0.00  0.00    +0.166 HD
ENDBRANCH   1  13
BRANCH   6  22
ATOM     22  C   UNL     1      -3.398   1.405  -0.242  0.00  0.00    +0.044 A 
ATOM     23  C   UNL     1      -4.517   2.206  -0.417  0.00  0.00    +0.025 A 
ATOM     24  C   UNL     1      -5.479   2.272   0.572  0.00  0.00    +0.017 A 
ATOM     25  C   UNL     1      -5.327   1.541   1.736  0.00  0.00    +0.018 A 
ATOM     26  C   UNL     1      -4.212   0.741   1.913  0.00  0.00    +0.017 A 
ATOM     27  C   UNL     1      -3.250   0.667   0.924  0.00  0.00    +0.025 A 
ATOM     28 BR   UNL     1      -6.646   1.634   3.088  0.00  0.00    -0.050 Br
ENDBRANCH   6  22
BRANCH  10  29
ATOM     29  C   UNL     1       2.559   0.558  -3.107  0.00  0.00    +0.065 A 
ATOM     30  C   UNL     1       2.982  -0.686  -3.559  0.00  0.00    +0.028 A 
ATOM     31  C   UNL     1       4.272  -0.849  -4.022  0.00  0.00    +0.002 A 
ATOM     32  C   UNL     1       5.145   0.225  -4.035  0.00  0.00    +0.000 A 
ATOM     33  C   UNL     1       4.727   1.464  -3.585  0.00  0.00    +0.002 A 
ATOM     34  C   UNL     1       3.436   1.635  -3.127  0.00  0.00    +0.028 A 
ENDBRANCH  10  29
TORSDOF 3
