REMARK  Name = ZINC08880956
REMARK  7 active torsions:
REMARK  status: ('A' for Active; 'I' for Inactive)
REMARK    1  A    between atoms: C_1  and  C_2
REMARK    2  A    between atoms: C_5  and  S_8
REMARK    3  A    between atoms: S_8  and  N_11
REMARK    4  A    between atoms: C_17  and  C_19
REMARK    5  A    between atoms: C_17  and  C_20
REMARK    6  A    between atoms: C_17  and  N_62
REMARK    7  A    between atoms: N_22  and  C_23
REMARK                            x       y       z     vdW  Elec       q    Type
REMARK                         _______ _______ _______ _____ _____    ______ ____
ROOT
ATOM      1  N   UNL     1       4.598   8.467  -0.809  0.00  0.00    -0.178 NA
ATOM      2  C   UNL     1       3.126   8.467  -0.918  0.00  0.00    +0.107 C 
ATOM      3  C   UNL     1       2.532   7.119  -0.477  0.00  0.00    -0.001 C 
ATOM      4  C   UNL     1       3.404   5.990  -0.982  0.00  0.00    -0.076 C 
ATOM      5  C   UNL     1       5.591   6.391   0.032  0.00  0.00    -0.060 C 
ATOM      6  C   UNL     1       5.295   7.883   0.319  0.00  0.00    +0.091 C 
ATOM      7  N   UNL     1       4.360   5.642   0.106  0.00  0.00    +0.388 N 
ATOM      8  H   UNL     1       3.912   5.853   1.005  0.00  0.00    -0.081 HD
ENDROOT
BRANCH   1   9
ATOM      9  S   UNL     1       5.486   9.161  -2.022  0.00  0.00    +0.061 S 
ATOM     10  O   UNL     1       4.635  10.102  -2.662  0.00  0.00    -0.153 OA
ATOM     11  O   UNL     1       6.735   9.528  -1.452  0.00  0.00    -0.153 OA
BRANCH   9  16
ATOM     12  C   UNL     1       6.645   4.846  -6.077  0.00  0.00    +0.044 C 
ATOM     13  C   UNL     1       6.356   5.924  -5.064  0.00  0.00    -0.050 A 
ATOM     14  C   UNL     1       5.213   6.693  -5.181  0.00  0.00    +0.005 A 
ATOM     15  C   UNL     1       4.948   7.682  -4.252  0.00  0.00    +0.029 A 
ATOM     16  C   UNL     1       5.825   7.901  -3.206  0.00  0.00    +0.105 A 
ATOM     17  C   UNL     1       6.970   7.135  -3.092  0.00  0.00    +0.029 A 
ATOM     18  C   UNL     1       7.233   6.143  -4.018  0.00  0.00    +0.005 A 
ENDBRANCH   9  16
ENDBRANCH   1   9
BRANCH   7  19
ATOM     19  C   UNL     1       4.659   4.205   0.052  0.00  0.00    +0.016 C 
ATOM     20  C   UNL     1       5.690   3.874  -1.029  0.00  0.00    -0.004 C 
BRANCH  19  21
ATOM     21  C   UNL     1       5.199   3.803   1.401  0.00  0.00    +0.203 C 
ATOM     22  O   UNL     1       5.545   4.653   2.193  0.00  0.00    -0.277 OA
ATOM     23  N   UNL     1       5.296   2.498   1.726  0.00  0.00    -0.287 N 
ATOM     24  H   UNL     1       5.079   1.817   1.070  0.00  0.00    +0.155 HD
BRANCH  23  25
ATOM     25  C   UNL     1       5.713   2.127   3.009  0.00  0.00    +0.034 A 
ATOM     26  C   UNL     1       6.668   2.881   3.678  0.00  0.00    +0.023 A 
ATOM     27  C   UNL     1       7.074   2.510   4.943  0.00  0.00    +0.006 A 
ATOM     28  C   UNL     1       6.535   1.387   5.549  0.00  0.00    -0.044 A 
ATOM     29  C   UNL     1       5.585   0.633   4.886  0.00  0.00    -0.042 A 
ATOM     30  C   UNL     1       5.173   1.002   3.617  0.00  0.00    +0.027 A 
ATOM     31  C   UNL     1       5.157  -0.531   5.754  0.00  0.00    +0.036 C 
ATOM     32  C   UNL     1       5.619  -0.162   7.180  0.00  0.00    +0.009 C 
ATOM     33  C   UNL     1       6.810   0.781   6.909  0.00  0.00    +0.036 C 
ENDBRANCH  23  25
ENDBRANCH  19  21
ENDBRANCH   7  19
TORSDOF 5
