REMARK  Name = ZINC10426518
REMARK  10 active torsions:
REMARK  status: ('A' for Active; 'I' for Inactive)
REMARK    1  A    between atoms: C_1  and  C_2
REMARK    2  A    between atoms: C_2  and  C_3
REMARK    3  A    between atoms: C_2  and  C_4
REMARK    4  A    between atoms: C_4  and  N_5
REMARK    5  A    between atoms: C_6  and  S_14
REMARK    6  A    between atoms: S_14  and  C_15
REMARK    7  A    between atoms: C_15  and  C_16
REMARK    8  A    between atoms: N_18  and  C_19
REMARK    9  A    between atoms: C_23  and  S_25
REMARK   10  A    between atoms: S_25  and  N_28
REMARK                            x       y       z     vdW  Elec       q    Type
REMARK                         _______ _______ _______ _____ _____    ______ ____
ROOT
ATOM      1  C   UNL     1      -2.415  -0.302  -0.090  0.00  0.00    +0.227 C 
ATOM      2  O   UNL     1      -1.359  -0.900  -0.098  0.00  0.00    -0.275 OA
ATOM      3  N   UNL     1      -2.428   1.041   0.019  0.00  0.00    -0.285 N 
ATOM      4  H   UNL     1      -3.271   1.512   0.103  0.00  0.00    +0.155 HD
ENDROOT
BRANCH   3   5
ATOM      5  C   UNL     1      -1.225   1.755   0.012  0.00  0.00    +0.035 A 
ATOM      6  C   UNL     1      -0.152   1.303  -0.746  0.00  0.00    +0.023 A 
ATOM      7  C   UNL     1       1.032   2.013  -0.756  0.00  0.00    +0.004 A 
ATOM      8  C   UNL     1       1.153   3.171  -0.008  0.00  0.00    +0.028 A 
ATOM      9  C   UNL     1       0.088   3.621   0.751  0.00  0.00    +0.107 A 
ATOM     10  C   UNL     1      -1.099   2.915   0.765  0.00  0.00    +0.051 A 
BRANCH   9  11
ATOM     11  S   UNL     1       0.246   5.096   1.701  0.00  0.00    +0.061 S 
ATOM     12  O   UNL     1      -0.708   5.007   2.751  0.00  0.00    -0.153 OA
ATOM     13  O   UNL     1       1.634   5.274   1.947  0.00  0.00    -0.153 OA
BRANCH  11  14
ATOM     14  N   UNL     1      -0.228   6.354   0.735  0.00  0.00    -0.177 NA
ATOM     15  C   UNL     1       0.768   7.020  -0.074  0.00  0.00    +0.109 C 
ATOM     16  C   UNL     1       1.403   8.179   0.723  0.00  0.00    +0.017 C 
ATOM     17  C   UNL     1       0.440   9.279   0.879  0.00  0.00    +0.001 C 
ATOM     18  C   UNL     1      -0.810   8.913   1.673  0.00  0.00    +0.001 C 
ATOM     19  C   UNL     1      -1.823   8.283   0.750  0.00  0.00    +0.017 C 
ATOM     20  C   UNL     1      -1.649   6.753   0.740  0.00  0.00    +0.109 C 
ENDBRANCH  11  14
ENDBRANCH   9  11
ENDBRANCH   3   5
BRANCH   1  21
ATOM     21  C   UNL     1      -3.712  -1.062  -0.201  0.00  0.00    +0.168 C 
BRANCH  21  22
ATOM     22  S   UNL     1      -3.363  -2.837  -0.333  0.00  0.00    -0.110 S 
BRANCH  22  24
ATOM     23  N   UNL     1      -5.653  -3.127  -1.671  0.00  0.00    -0.273 N 
ATOM     24  C   UNL     1      -5.005  -3.599  -0.458  0.00  0.00    +0.224 C 
ATOM     25  N   UNL     1      -5.769  -3.272   0.736  0.00  0.00    -0.288 N 
ATOM     26  C   UNL     1      -6.689  -2.304   0.777  0.00  0.00    +0.224 C 
ATOM     27  O   UNL     1      -7.269  -2.090   1.820  0.00  0.00    -0.275 OA
ATOM     28  C   UNL     1      -7.029  -1.472  -0.426  0.00  0.00    +0.191 C 
ATOM     29  C   UNL     1      -6.572  -2.155  -1.683  0.00  0.00    +0.226 C 
ATOM     30  O   UNL     1      -7.051  -1.813  -2.743  0.00  0.00    -0.275 OA
ATOM     31  H   UNL     1      -5.601  -3.782   1.544  0.00  0.00    +0.151 HD
BRANCH  23  32
ATOM     32  C   UNL     1      -5.281  -3.747  -2.945  0.00  0.00    +0.113 C 
BRANCH  32  34
ATOM     33  C   UNL     1      -7.631  -4.459  -3.406  0.00  0.00    +0.009 C 
ATOM     34  C   UNL     1      -6.193  -4.945  -3.215  0.00  0.00    +0.000 C 
ATOM     35  C   UNL     1      -5.726  -5.667  -4.480  0.00  0.00    +0.009 C 
ENDBRANCH  32  34
ENDBRANCH  23  32
ENDBRANCH  22  24
ENDBRANCH  21  22
ENDBRANCH   1  21
TORSDOF 8
