REMARK  Name = ZINC41584290
REMARK  13 active torsions:
REMARK  status: ('A' for Active; 'I' for Inactive)
REMARK    1  A    between atoms: C_1  and  C_2
REMARK    2  A    between atoms: C_2  and  C_3
REMARK    3  A    between atoms: C_3  and  C_4
REMARK    4  A    between atoms: C_4  and  N_5
REMARK    5  A    between atoms: N_5  and  C_6
REMARK    6  A    between atoms: N_5  and  C_10
REMARK    7  A    between atoms: C_6  and  C_7
REMARK    8  A    between atoms: C_7  and  C_8
REMARK    9  A    between atoms: C_8  and  C_9
REMARK   10  A    between atoms: C_10  and  C_11
REMARK   11  A    between atoms: C_12  and  O_30
REMARK   12  A    between atoms: C_19  and  O_22
REMARK   13  A    between atoms: O_22  and  C_23
REMARK                            x       y       z     vdW  Elec       q    Type
REMARK                         _______ _______ _______ _____ _____    ______ ____
ROOT
ATOM      1  C   UNL     1       3.077  -4.335   3.742  0.00  0.00    +0.020 A 
ATOM      2  C   UNL     1       4.457  -4.289   3.857  0.00  0.00    +0.122 A 
ATOM      3  C   UNL     1       5.075  -4.532   5.081  0.00  0.00    +0.046 A 
ATOM      4  C   UNL     1       4.328  -4.820   6.187  0.00  0.00    +0.019 A 
ATOM      5  C   UNL     1       2.937  -4.870   6.089  0.00  0.00    +0.068 A 
ATOM      6  C   UNL     1       2.303  -4.621   4.858  0.00  0.00    +0.143 A 
ATOM      7  O   UNL     1       0.958  -4.667   4.776  0.00  0.00    -0.459 OA
ATOM      8  C   UNL     1       0.183  -4.941   5.833  0.00  0.00    +0.245 A 
ATOM      9  C   UNL     1       0.684  -5.190   7.060  0.00  0.00    +0.210 A 
ATOM     10  C   UNL     1       2.095  -5.177   7.258  0.00  0.00    +0.235 A 
ATOM     11  O   UNL     1       2.584  -5.399   8.353  0.00  0.00    -0.283 OA
ENDROOT
BRANCH   2  12
ATOM     12  O   UNL     1       5.213  -4.004   2.766  0.00  0.00    -0.506 OA
ATOM     13  H   UNL     1       5.387  -3.061   2.643  0.00  0.00    +0.292 HD
ENDBRANCH   2  12
BRANCH   1  14
ATOM     14  C   UNL     1       2.419  -4.070   2.413  0.00  0.00    -0.036 C 
BRANCH  14  15
ATOM     15  N   UNL     1       1.976  -2.670   2.356  0.00  0.00    +0.383 N 
ATOM     16  H   UNL     1       1.373  -2.476   3.142  0.00  0.00    -0.081 HD
BRANCH  15  17
ATOM     17  C   UNL     1       3.147  -1.784   2.407  0.00  0.00    -0.078 C 
BRANCH  17  18
ATOM     18  C   UNL     1       2.681  -0.328   2.474  0.00  0.00    -0.019 C 
BRANCH  18  20
ATOM     19  C   UNL     1       3.435   2.051   2.593  0.00  0.00    +0.004 C 
ATOM     20  C   UNL     1       3.901   0.595   2.526  0.00  0.00    -0.005 C 
ENDBRANCH  18  20
ENDBRANCH  17  18
ENDBRANCH  15  17
BRANCH  15  21
ATOM     21  C   UNL     1       1.241  -2.439   1.106  0.00  0.00    -0.078 C 
BRANCH  21  22
ATOM     22  C   UNL     1      -0.054  -3.255   1.117  0.00  0.00    -0.019 C 
BRANCH  22  23
ATOM     23  C   UNL     1      -0.774  -3.086  -0.222  0.00  0.00    -0.005 C 
ATOM     24  C   UNL     1      -2.069  -3.901  -0.210  0.00  0.00    +0.004 C 
ENDBRANCH  22  23
ENDBRANCH  21  22
ENDBRANCH  15  21
ENDBRANCH  14  15
ENDBRANCH   1  14
BRANCH   9  25
ATOM     25  O   UNL     1      -0.151  -5.462   8.099  0.00  0.00    -0.448 OA
BRANCH  25  26
ATOM     26  C   UNL     1      -0.218  -4.563   9.116  0.00  0.00    +0.143 A 
ATOM     27  C   UNL     1       0.457  -3.354   9.021  0.00  0.00    +0.047 A 
ATOM     28  C   UNL     1       0.388  -2.442  10.056  0.00  0.00    +0.004 A 
ATOM     29  C   UNL     1      -0.354  -2.732  11.186  0.00  0.00    +0.001 A 
ATOM     30  C   UNL     1      -1.028  -3.935  11.284  0.00  0.00    +0.019 A 
ATOM     31  C   UNL     1      -0.966  -4.849  10.250  0.00  0.00    +0.060 A 
ATOM     32 BR   UNL     1      -1.894  -6.492  10.381  0.00  0.00    -0.046 Br
ENDBRANCH  25  26
ENDBRANCH   9  25
TORSDOF 11
