REMARK  Name = ZINC19940606
REMARK  8 active torsions:
REMARK  status: ('A' for Active; 'I' for Inactive)
REMARK    1  A    between atoms: C_1  and  C_2
REMARK    2  A    between atoms: C_7  and  C_14
REMARK    3  A    between atoms: C_14  and  C_16
REMARK    4  A    between atoms: C_14  and  N_28
REMARK    5  A    between atoms: N_20  and  C_21
REMARK    6  A    between atoms: C_21  and  C_22
REMARK    7  A    between atoms: N_31  and  C_34
REMARK    8  A    between atoms: C_34  and  C_35
REMARK                            x       y       z     vdW  Elec       q    Type
REMARK                         _______ _______ _______ _____ _____    ______ ____
ROOT
ATOM      1  C   UNL     1       2.849   4.724   1.887  0.00  0.00    +0.162 C 
ENDROOT
BRANCH   1   8
ATOM      2  C   UNL     1       7.234  10.824  -0.792  0.00  0.00    +0.044 C 
ATOM      3  C   UNL     1       6.531   9.541  -0.433  0.00  0.00    -0.048 A 
ATOM      4  C   UNL     1       6.902   8.357  -1.056  0.00  0.00    +0.004 A 
ATOM      5  C   UNL     1       6.277   7.182  -0.746  0.00  0.00    +0.010 A 
ATOM      6  C   UNL     1       5.255   7.172   0.209  0.00  0.00    -0.001 A 
ATOM      7  C   UNL     1       4.564   5.932   0.565  0.00  0.00    +0.021 A 
ATOM      8  C   UNL     1       3.580   5.983   1.497  0.00  0.00    +0.042 A 
ATOM      9  C   UNL     1       3.234   7.212   2.098  0.00  0.00    +0.254 A 
ATOM     10  O   UNL     1       2.343   7.236   2.930  0.00  0.00    -0.268 OA
ATOM     11  N   UNL     1       3.866   8.355   1.781  0.00  0.00    -0.322 N 
ATOM     12  H   UNL     1       3.580   9.297   2.273  0.00  0.00    +0.169 HD
ATOM     13  C   UNL     1       4.875   8.371   0.842  0.00  0.00    +0.049 A 
ATOM     14  C   UNL     1       5.526   9.555   0.509  0.00  0.00    +0.029 A 
ENDBRANCH   1   8
BRANCH   1  15
ATOM     15  N   UNL     1       2.931   4.541   3.342  0.00  0.00    -0.286 NA
ATOM     16  C   UNL     1       4.330   4.519   3.791  0.00  0.00    +0.101 C 
ATOM     17  C   UNL     1       4.371   4.406   5.317  0.00  0.00    +0.100 C 
ATOM     18  N   UNL     1       3.668   3.185   5.735  0.00  0.00    -0.296 NA
ATOM     19  C   UNL     1       2.269   3.207   5.285  0.00  0.00    +0.100 C 
ATOM     20  C   UNL     1       2.228   3.320   3.760  0.00  0.00    +0.101 C 
BRANCH  18  21
ATOM     21  C   UNL     1       3.750   3.002   7.190  0.00  0.00    +0.119 C 
BRANCH  21  22
ATOM     22  C   UNL     1       5.181   2.739   7.583  0.00  0.00    -0.033 A 
ATOM     23  C   UNL     1       5.658   1.443   7.630  0.00  0.00    +0.005 A 
ATOM     24  C   UNL     1       6.972   1.202   7.985  0.00  0.00    +0.000 A 
ATOM     25  C   UNL     1       7.807   2.257   8.304  0.00  0.00    +0.000 A 
ATOM     26  C   UNL     1       7.328   3.554   8.262  0.00  0.00    +0.000 A 
ATOM     27  C   UNL     1       6.016   3.795   7.901  0.00  0.00    +0.005 A 
ENDBRANCH  21  22
ENDBRANCH  18  21
ENDBRANCH   1  15
BRANCH   1  28
ATOM     28  C   UNL     1       1.403   4.835   1.476  0.00  0.00    +0.173 A 
ATOM     29  N   UNL     1       0.475   5.550   2.063  0.00  0.00    -0.111 NA
ATOM     30  N   UNL     1      -0.626   5.381   1.416  0.00  0.00    -0.023 NA
ATOM     31  N   UNL     1      -0.424   4.581   0.428  0.00  0.00    -0.044 NA
ATOM     32  N   UNL     1       0.814   4.218   0.434  0.00  0.00    -0.225 N 
BRANCH  32  33
ATOM     33  C   UNL     1       1.459   3.310  -0.517  0.00  0.00    +0.179 C 
BRANCH  33  34
ATOM     34  C   UNL     1       1.358   1.873  -0.001  0.00  0.00    +0.140 C 
ATOM     35  C   UNL     1       2.044   0.890  -0.983  0.00  0.00    +0.035 C 
ATOM     36  C   UNL     1       1.318  -0.441  -0.670  0.00  0.00    +0.031 C 
ATOM     37  C   UNL     1       0.002  -0.004   0.002  0.00  0.00    +0.160 C 
ATOM     38  O   UNL     1      -0.017   1.433   0.010  0.00  0.00    -0.375 OA
ENDBRANCH  33  34
ENDBRANCH  32  33
ENDBRANCH   1  28
TORSDOF 7
