REMARK  Name = ZINC39710768
REMARK  13 active torsions:
REMARK  status: ('A' for Active; 'I' for Inactive)
REMARK    1  A    between atoms: C_1  and  C_2
REMARK    2  A    between atoms: C_7  and  C_15
REMARK    3  A    between atoms: C_13  and  C_14
REMARK    4  A    between atoms: C_15  and  C_17
REMARK    5  A    between atoms: C_15  and  N_27
REMARK    6  A    between atoms: N_22  and  C_23
REMARK    7  A    between atoms: C_23  and  C_24
REMARK    8  A    between atoms: C_23  and  C_25
REMARK    9  A    between atoms: C_23  and  C_26
REMARK   10  A    between atoms: N_27  and  C_28
REMARK   11  A    between atoms: N_27  and  C_36
REMARK   12  A    between atoms: C_28  and  C_29
REMARK   13  A    between atoms: C_36  and  C_37
REMARK                            x       y       z     vdW  Elec       q    Type
REMARK                         _______ _______ _______ _____ _____    ______ ____
ROOT
ATOM      1  C   UNL     1       1.812  -4.686   1.804  0.00  0.00    -0.008 C 
ENDROOT
BRANCH   1   8
ATOM      2  C   UNL     1       0.913   2.756   1.691  0.00  0.00    +0.044 C 
ATOM      3  C   UNL     1       0.813   1.268   1.476  0.00  0.00    -0.046 A 
ATOM      4  C   UNL     1       0.624   0.791   0.178  0.00  0.00    +0.004 A 
ATOM      5  C   UNL     1       0.525  -0.538  -0.079  0.00  0.00    +0.010 A 
ATOM      6  C   UNL     1       0.622  -1.482   1.036  0.00  0.00    -0.007 A 
ATOM      7  C   UNL     1       0.529  -2.825   0.825  0.00  0.00    -0.006 C 
ATOM      8  C   UNL     1       0.641  -3.729   2.038  0.00  0.00    +0.088 C 
ATOM      9  C   UNL     1       0.845  -3.066   3.381  0.00  0.00    +0.223 C 
ATOM     10  O   UNL     1       0.942  -3.743   4.387  0.00  0.00    -0.275 OA
ATOM     11  N   UNL     1       0.919  -1.748   3.458  0.00  0.00    -0.284 N 
ATOM     12  C   UNL     1       0.822  -0.950   2.395  0.00  0.00    +0.043 A 
ATOM     13  C   UNL     1       0.915   0.445   2.551  0.00  0.00    -0.026 A 
ATOM     14  C   UNL     1       1.125   1.031   3.924  0.00  0.00    +0.046 C 
ATOM     15  H   UNL     1       1.051  -1.342   4.330  0.00  0.00    +0.155 HD
ENDBRANCH   1   8
BRANCH   1  16
ATOM     16  C   UNL     1       3.120  -3.893   1.776  0.00  0.00    +0.205 C 
ATOM     17  N   UNL     1       3.287  -3.134   3.023  0.00  0.00    -0.152 NA
ATOM     18  N   UNL     1       3.331  -1.932   2.754  0.00  0.00    -0.070 NA
ATOM     19  N   UNL     1       3.212  -1.676   1.389  0.00  0.00    -0.179 N 
ATOM     20  N   UNL     1       3.078  -2.865   0.715  0.00  0.00    -0.183 NA
ATOM     21  H   UNL     1       3.223  -0.797   0.979  0.00  0.00    +0.191 HD
BRANCH  20  22
ATOM     22  C   UNL     1       4.173  -3.054  -0.246  0.00  0.00    +0.035 C 
ATOM     23  C   UNL     1       4.048  -4.434  -0.895  0.00  0.00    +0.029 C 
ATOM     24  C   UNL     1       4.096  -1.974  -1.326  0.00  0.00    +0.029 C 
ATOM     25  C   UNL     1       5.514  -2.953   0.483  0.00  0.00    +0.029 C 
ENDBRANCH  20  22
ENDBRANCH   1  16
BRANCH   1  26
ATOM     26  N   UNL     1       1.861  -5.673   2.890  0.00  0.00    +0.392 N 
ATOM     27  H   UNL     1       2.018  -5.201   3.768  0.00  0.00    -0.080 HD
BRANCH  26  28
ATOM     28  C   UNL     1       2.955  -6.621   2.641  0.00  0.00    -0.042 C 
BRANCH  28  29
ATOM     29  C   UNL     1       3.162  -7.481   3.861  0.00  0.00    -0.064 A 
ATOM     30  C   UNL     1       3.262  -6.897   5.110  0.00  0.00    +0.003 A 
ATOM     31  C   UNL     1       3.452  -7.685   6.229  0.00  0.00    +0.020 A 
ATOM     32  C   UNL     1       3.541  -9.060   6.100  0.00  0.00    +0.041 A 
ATOM     33  C   UNL     1       3.441  -9.644   4.850  0.00  0.00    +0.020 A 
ATOM     34  C   UNL     1       3.245  -8.855   3.732  0.00  0.00    +0.003 A 
ATOM     35 CL   UNL     1       3.780 -10.051   7.505  0.00  0.00    -0.084 Cl
ENDBRANCH  28  29
ENDBRANCH  26  28
BRANCH  26  36
ATOM     36  C   UNL     1       0.586  -6.401   2.948  0.00  0.00    -0.002 C 
BRANCH  36  37
ATOM     37  C   UNL     1       0.560  -7.272   4.178  0.00  0.00    +0.089 A 
ATOM     38  C   UNL     1       0.273  -6.862   5.426  0.00  0.00    +0.042 A 
ATOM     39  C   UNL     1       0.365  -7.998   6.262  0.00  0.00    +0.041 A 
ATOM     40  C   UNL     1       0.702  -9.035   5.474  0.00  0.00    +0.195 A 
ATOM     41  O   UNL     1       0.814  -8.591   4.212  0.00  0.00    -0.470 OA
ENDBRANCH  36  37
ENDBRANCH  26  36
ENDBRANCH   1  26
TORSDOF 8
