REMARK  Name = ZINC04844647
REMARK  3 active torsions:
REMARK  status: ('A' for Active; 'I' for Inactive)
REMARK    1  A    between atoms: C_1  and  O_2
REMARK    2  A    between atoms: O_2  and  C_3
REMARK    3  A    between atoms: C_6  and  C_10
REMARK                            x       y       z     vdW  Elec       q    Type
REMARK                         _______ _______ _______ _____ _____    ______ ____
ROOT
ATOM      1  C   UNL     1       2.307   0.087  -0.912  0.00  0.00    +0.070 C 
ATOM      2  C   UNL     1       1.094  -0.665  -0.435  0.00  0.00    +0.111 C 
ATOM      3  C   UNL     1       0.000  -0.003  -0.004  0.00  0.00    +0.030 C 
ATOM      4  C   UNL     1      -1.221  -0.748   0.474  0.00  0.00    +0.052 C 
ATOM      5  C   UNL     1      -1.335  -2.080  -0.268  0.00  0.00    +0.013 C 
ATOM      6  C   UNL     1      -0.056  -2.887  -0.019  0.00  0.00    +0.075 C 
ATOM      7  C   UNL     1       1.131  -2.071  -0.454  0.00  0.00    +0.143 C 
ATOM      8  O   UNL     1       2.138  -2.637  -0.829  0.00  0.00    -0.297 OA
ATOM      9  N   UNL     1      -0.017   1.364   0.007  0.00  0.00    -0.260 NA
ATOM     10  C   UNL     1       1.147   2.082   0.002  0.00  0.00    +0.048 C 
ATOM     11  C   UNL     1       2.292   1.515  -0.434  0.00  0.00    +0.025 C 
ATOM     12  C   UNL     1       3.498   2.239  -0.451  0.00  0.00    +0.162 C 
ATOM     13  O   UNL     1       4.515   1.694  -0.833  0.00  0.00    -0.292 OA
ATOM     14  C   UNL     1       3.551   3.675  -0.006  0.00  0.00    +0.080 C 
ATOM     15  C   UNL     1       2.185   4.324  -0.252  0.00  0.00    +0.014 C 
ATOM     16  C   UNL     1       1.120   3.511   0.484  0.00  0.00    +0.056 C 
ENDROOT
BRANCH   1  20
ATOM     17  C   UNL     1       2.371   0.042  -5.185  0.00  0.00    +0.134 A 
ATOM     18  C   UNL     1       3.422  -0.510  -4.468  0.00  0.00    +0.047 A 
ATOM     19  C   UNL     1       3.400  -0.494  -3.087  0.00  0.00    +0.008 A 
ATOM     20  C   UNL     1       2.330   0.072  -2.419  0.00  0.00    -0.038 A 
ATOM     21  C   UNL     1       1.278   0.618  -3.130  0.00  0.00    +0.023 A 
ATOM     22  C   UNL     1       1.298   0.609  -4.512  0.00  0.00    +0.060 A 
ATOM     23 BR   UNL     1      -0.138   1.363  -5.484  0.00  0.00    -0.047 Br
BRANCH  17  25
ATOM     24  C   UNL     1       3.527  -0.574  -7.169  0.00  0.00    +0.277 C 
ATOM     25  O   UNL     1       2.391   0.027  -6.544  0.00  0.00    -0.494 OA
ENDBRANCH  17  25
ENDBRANCH   1  20
TORSDOF 2
