REMARK  Name = ZINC14461622
REMARK  11 active torsions:
REMARK  status: ('A' for Active; 'I' for Inactive)
REMARK    1  A    between atoms: C_1  and  C_2
REMARK    2  A    between atoms: C_2  and  N_3
REMARK    3  A    between atoms: N_3  and  C_4
REMARK    4  A    between atoms: N_3  and  C_6
REMARK    5  A    between atoms: C_4  and  C_5
REMARK    6  A    between atoms: C_9  and  C_12
REMARK    7  A    between atoms: C_23  and  S_28
REMARK    8  A    between atoms: S_28  and  N_31
REMARK    9  A    between atoms: N_31  and  C_32
REMARK   10  A    between atoms: C_35  and  C_39
REMARK   11  A    between atoms: C_37  and  C_38
REMARK                            x       y       z     vdW  Elec       q    Type
REMARK                         _______ _______ _______ _____ _____    ______ ____
ROOT
ATOM      1  C   UNL     1       0.904   2.125  -0.431  0.00  0.00    +0.105 C 
ATOM      2  C   UNL     1       1.899   1.313  -1.241  0.00  0.00    +0.029 C 
ATOM      3  C   UNL     1       3.331   1.855  -1.338  0.00  0.00    +0.033 C 
ATOM      4  C   UNL     1       4.138   0.565  -1.501  0.00  0.00    -0.030 C 
ATOM      5  C   UNL     1       3.478  -0.454  -0.962  0.00  0.00    -0.023 C 
ATOM      6  C   UNL     1       2.214   0.058  -0.373  0.00  0.00    +0.049 C 
ATOM      7  C   UNL     1       0.990  -0.770  -0.310  0.00  0.00    -0.018 A 
ATOM      8  C   UNL     1       1.029  -2.146  -0.261  0.00  0.00    +0.034 A 
ATOM      9  C   UNL     1      -0.143  -2.875  -0.167  0.00  0.00    +0.109 A 
ATOM     10  C   UNL     1      -1.361  -2.221  -0.124  0.00  0.00    +0.030 A 
ATOM     11  C   UNL     1      -1.411  -0.844  -0.180  0.00  0.00    +0.025 A 
ATOM     12  C   UNL     1      -0.240  -0.102  -0.279  0.00  0.00    +0.031 A 
ATOM     13  N   UNL     1      -0.317   1.294  -0.349  0.00  0.00    -0.336 N 
ATOM     14  H   UNL     1      -1.186   1.724  -0.349  0.00  0.00    +0.147 HD
ENDROOT
BRANCH   1  18
ATOM     15  C   UNL     1       0.049   5.814  -2.413  0.00  0.00    +0.030 A 
ATOM     16  C   UNL     1       0.891   5.796  -1.307  0.00  0.00    +0.023 A 
ATOM     17  C   UNL     1       1.165   4.603  -0.669  0.00  0.00    +0.007 A 
ATOM     18  C   UNL     1       0.603   3.426  -1.129  0.00  0.00    -0.027 A 
ATOM     19  C   UNL     1      -0.231   3.439  -2.233  0.00  0.00    +0.007 A 
ATOM     20  C   UNL     1      -0.514   4.630  -2.872  0.00  0.00    +0.023 A 
BRANCH  15  21
ATOM     21  N   UNL     1      -0.230   7.020  -3.060  0.00  0.00    -0.330 N 
BRANCH  21  23
ATOM     22  C   UNL     1      -2.562   7.245  -3.764  0.00  0.00    +0.024 C 
ATOM     23  C   UNL     1      -1.118   7.037  -4.225  0.00  0.00    +0.102 C 
ENDBRANCH  21  23
BRANCH  21  24
ATOM     24  C   UNL     1       0.364   8.268  -2.574  0.00  0.00    +0.102 C 
ATOM     25  C   UNL     1       1.706   8.499  -3.272  0.00  0.00    +0.024 C 
ENDBRANCH  21  24
ENDBRANCH  15  21
ENDBRANCH   1  18
BRANCH   9  26
ATOM     26  S   UNL     1      -0.084  -4.635  -0.104  0.00  0.00    +0.072 S 
ATOM     27  O   UNL     1      -1.344  -5.100  -0.568  0.00  0.00    -0.150 OA
ATOM     28  O   UNL     1       1.141  -5.022  -0.711  0.00  0.00    -0.150 OA
BRANCH  26  29
ATOM     29  N   UNL     1       0.022  -5.064   1.492  0.00  0.00    -0.216 N 
ATOM     30  H   UNL     1       0.788  -5.566   1.809  0.00  0.00    +0.174 HD
BRANCH  29  31
ATOM     31  C   UNL     1      -0.994  -4.703   2.381  0.00  0.00    +0.051 A 
ATOM     32  C   UNL     1      -2.316  -4.683   1.956  0.00  0.00    +0.025 A 
ATOM     33  C   UNL     1      -3.317  -4.326   2.837  0.00  0.00    +0.005 A 
ATOM     34  C   UNL     1      -3.005  -3.990   4.142  0.00  0.00    -0.050 A 
ATOM     35  C   UNL     1      -1.690  -4.009   4.568  0.00  0.00    +0.008 A 
ATOM     36  C   UNL     1      -0.684  -4.369   3.693  0.00  0.00    -0.028 A 
ATOM     37  C   UNL     1       0.749  -4.396   4.160  0.00  0.00    +0.046 C 
ATOM     38  C   UNL     1      -4.100  -3.602   5.101  0.00  0.00    +0.044 C 
ENDBRANCH  29  31
ENDBRANCH  26  29
ENDBRANCH   9  26
TORSDOF 7
