REMARK  Name = ZINC12311652
REMARK  8 active torsions:
REMARK  status: ('A' for Active; 'I' for Inactive)
REMARK    1  A    between atoms: C_2  and  C_3
REMARK    2  A    between atoms: C_3  and  N_4
REMARK    3  A    between atoms: C_5  and  C_7
REMARK    4  A    between atoms: C_7  and  C_9
REMARK    5  A    between atoms: C_7  and  C_11
REMARK    6  A    between atoms: C_26  and  C_27
REMARK    7  A    between atoms: C_26  and  C_33
REMARK    8  A    between atoms: C_26  and  N_68
REMARK                            x       y       z     vdW  Elec       q    Type
REMARK                         _______ _______ _______ _____ _____    ______ ____
ROOT
ATOM      1  C   UNL     1      -1.243  -2.917  -2.663  0.00  0.00    +0.107 A 
ATOM      2  C   UNL     1      -0.601  -3.236  -1.454  0.00  0.00    +0.145 A 
ATOM      3  N   UNL     1      -0.185  -2.281  -0.644  0.00  0.00    -0.229 NA
ATOM      4  C   UNL     1      -0.377  -0.999  -0.979  0.00  0.00    +0.091 A 
ATOM      5  C   UNL     1       0.055   0.041  -0.139  0.00  0.00    +0.030 A 
ATOM      6  C   UNL     1      -0.153   1.336  -0.504  0.00  0.00    +0.002 A 
ATOM      7  C   UNL     1      -0.791   1.647  -1.703  0.00  0.00    +0.002 A 
ATOM      8  C   UNL     1      -1.223   0.666  -2.542  0.00  0.00    +0.030 A 
ATOM      9  C   UNL     1      -1.025  -0.682  -2.198  0.00  0.00    +0.090 A 
ATOM     10  N   UNL     1      -1.439  -1.667  -3.006  0.00  0.00    -0.245 NA
ATOM     11  N   UNL     1      -0.403  -4.565  -1.109  0.00  0.00    -0.317 N 
ATOM     12  C   UNL     1      -1.187  -4.922   0.081  0.00  0.00    +0.088 C 
ATOM     13  C   UNL     1      -1.004  -6.412   0.381  0.00  0.00    -0.058 C 
ATOM     14  C   UNL     1       1.208  -6.338  -0.601  0.00  0.00    -0.058 C 
ATOM     15  C   UNL     1       1.024  -4.848  -0.901  0.00  0.00    +0.088 C 
ATOM     16  N   UNL     1       0.432  -6.679   0.610  0.00  0.00    +0.389 N 
ATOM     17  H   UNL     1       0.759  -6.097   1.391  0.00  0.00    -0.080 HD
ENDROOT
BRANCH   1  18
ATOM     18  C   UNL     1      -1.711  -4.022  -3.575  0.00  0.00    +0.228 C 
BRANCH  18  20
ATOM     19  N   UNL     1      -3.860  -4.903  -4.425  0.00  0.00    -0.310 N 
ATOM     20  C   UNL     1      -3.215  -3.999  -3.661  0.00  0.00    +0.236 C 
ATOM     21  O   UNL     1      -3.845  -3.167  -3.044  0.00  0.00    -0.274 OA
ATOM     22  H   UNL     1      -3.356  -5.569  -4.918  0.00  0.00    +0.149 HD
BRANCH  19  23
ATOM     23  C   UNL     1      -5.323  -4.881  -4.509  0.00  0.00    +0.131 C 
BRANCH  23  25
ATOM     24  C   UNL     1      -6.662  -6.865  -4.990  0.00  0.00    +0.005 C 
ATOM     25  C   UNL     1      -5.791  -5.986  -5.420  0.00  0.00    -0.016 C 
ENDBRANCH  23  25
ENDBRANCH  19  23
ENDBRANCH  18  20
BRANCH  18  26
ATOM     26  C   UNL     1      -1.139  -3.827  -4.917  0.00  0.00    +0.082 C 
ATOM     27  N   UNL     1      -0.698  -3.676  -5.953  0.00  0.00    -0.195 NA
ENDBRANCH  18  26
ENDBRANCH   1  18
BRANCH  16  28
ATOM     28  C   UNL     1       0.633  -8.102   0.954  0.00  0.00    -0.007 C 
BRANCH  28  29
ATOM     29  C   UNL     1       2.098  -8.341   1.217  0.00  0.00    -0.057 A 
ATOM     30  C   UNL     1       2.818  -7.441   1.980  0.00  0.00    +0.002 A 
ATOM     31  C   UNL     1       4.161  -7.662   2.225  0.00  0.00    +0.000 A 
ATOM     32  C   UNL     1       4.785  -8.777   1.698  0.00  0.00    +0.000 A 
ATOM     33  C   UNL     1       4.066  -9.674   0.930  0.00  0.00    +0.000 A 
ATOM     34  C   UNL     1       2.722  -9.456   0.690  0.00  0.00    +0.002 A 
ENDBRANCH  28  29
BRANCH  28  35
ATOM     35  C   UNL     1      -0.158  -8.423   2.196  0.00  0.00    -0.057 A 
ATOM     36  C   UNL     1      -0.144  -7.551   3.269  0.00  0.00    +0.002 A 
ATOM     37  C   UNL     1      -0.874  -7.842   4.406  0.00  0.00    +0.000 A 
ATOM     38  C   UNL     1      -1.610  -9.010   4.474  0.00  0.00    +0.000 A 
ATOM     39  C   UNL     1      -1.620  -9.884   3.404  0.00  0.00    +0.000 A 
ATOM     40  C   UNL     1      -0.894  -9.591   2.265  0.00  0.00    +0.002 A 
ENDBRANCH  28  35
ENDBRANCH  16  28
TORSDOF 8
