REMARK  Name = ZINC59564912
REMARK  7 active torsions:
REMARK  status: ('A' for Active; 'I' for Inactive)
REMARK    1  A    between atoms: C_1  and  C_2
REMARK    2  A    between atoms: C_2  and  C_4
REMARK    3  A    between atoms: C_7  and  N_10
REMARK    4  A    between atoms: C_11  and  C_13
REMARK    5  A    between atoms: C_13  and  S_14
REMARK    6  A    between atoms: S_14  and  C_15
REMARK    7  A    between atoms: N_24  and  C_25
REMARK                            x       y       z     vdW  Elec       q    Type
REMARK                         _______ _______ _______ _____ _____    ______ ____
ROOT
ATOM      1  C   UNL     1      -7.367  -7.510  -0.671  0.00  0.00    +0.151 C 
ATOM      2  N   UNL     1      -8.481  -6.842  -0.599  0.00  0.00    -0.347 N 
ATOM      3  C   UNL     1      -9.563  -7.809  -0.384  0.00  0.00    +0.107 C 
ATOM      4  C   UNL     1     -10.559  -7.757  -1.539  0.00  0.00    +0.045 C 
ATOM      5  C   UNL     1     -11.219  -6.376  -1.582  0.00  0.00    +0.004 C 
ATOM      6  C   UNL     1     -11.938  -6.114  -0.257  0.00  0.00    +0.000 C 
ATOM      7  C   UNL     1     -10.927  -6.153   0.891  0.00  0.00    +0.004 C 
ATOM      8  C   UNL     1     -10.267  -7.532   0.941  0.00  0.00    +0.045 C 
ATOM      9  N   UNL     1      -8.896  -9.122  -0.344  0.00  0.00    -0.209 NA
ATOM     10  N   UNL     1      -7.566  -8.858  -0.531  0.00  0.00    -0.213 N 
ATOM     11  H   UNL     1      -9.247  -9.728  -1.071  0.00  0.00    +0.147 HD
ATOM     12  H   UNL     1      -8.579  -5.880  -0.674  0.00  0.00    +0.163 HD
ENDROOT
BRANCH  10  13
ATOM     13  C   UNL     1      -6.556  -9.825  -0.570  0.00  0.00    +0.052 A 
ATOM     14  C   UNL     1      -5.401  -9.655   0.181  0.00  0.00    +0.025 A 
ATOM     15  C   UNL     1      -4.405 -10.612   0.141  0.00  0.00    +0.002 A 
ATOM     16  C   UNL     1      -4.559 -11.739  -0.646  0.00  0.00    +0.000 A 
ATOM     17  C   UNL     1      -5.708 -11.911  -1.396  0.00  0.00    +0.002 A 
ATOM     18  C   UNL     1      -6.709 -10.960  -1.356  0.00  0.00    +0.025 A 
ENDBRANCH  10  13
BRANCH   1  19
ATOM     19  S   UNL     1      -5.789  -6.768  -0.924  0.00  0.00    -0.082 S 
BRANCH  19  20
ATOM     20  C   UNL     1      -6.150  -4.994  -1.033  0.00  0.00    +0.173 C 
BRANCH  20  22
ATOM     21  N   UNL     1      -4.892  -2.890  -1.364  0.00  0.00    -0.285 N 
ATOM     22  C   UNL     1      -4.868  -4.232  -1.252  0.00  0.00    +0.227 C 
ATOM     23  O   UNL     1      -3.814  -4.828  -1.328  0.00  0.00    -0.275 OA
ATOM     24  H   UNL     1      -5.723  -2.407  -1.229  0.00  0.00    +0.155 HD
BRANCH  21  28
ATOM     25  C   UNL     1      -1.407  -0.816  -2.291  0.00  0.00    +0.017 A 
ATOM     26  C   UNL     1      -1.624  -2.095  -2.818  0.00  0.00    +0.013 A 
ATOM     27  C   UNL     1      -2.774  -2.775  -2.510  0.00  0.00    +0.024 A 
ATOM     28  C   UNL     1      -3.725  -2.195  -1.675  0.00  0.00    +0.033 A 
ATOM     29  C   UNL     1      -3.514  -0.923  -1.149  0.00  0.00    +0.024 A 
ATOM     30  C   UNL     1      -2.364  -0.239  -1.447  0.00  0.00    +0.013 A 
BRANCH  25  32
ATOM     31  C   UNL     1       0.852  -0.707  -3.526  0.00  0.00    +0.091 C 
ATOM     32  C   UNL     1      -0.176  -0.084  -2.618  0.00  0.00    +0.160 C 
ATOM     33  O   UNL     1       0.012   1.022  -2.156  0.00  0.00    -0.292 OA
ENDBRANCH  25  32
ENDBRANCH  21  28
ENDBRANCH  20  22
ENDBRANCH  19  20
ENDBRANCH   1  19
TORSDOF 6
