REMARK  Name = ZINC19042741
REMARK  10 active torsions:
REMARK  status: ('A' for Active; 'I' for Inactive)
REMARK    1  A    between atoms: C_1  and  C_2
REMARK    2  A    between atoms: C_4  and  C_18
REMARK    3  A    between atoms: C_5  and  C_17
REMARK    4  A    between atoms: N_6  and  C_7
REMARK    5  A    between atoms: C_10  and  S_13
REMARK    6  A    between atoms: S_13  and  N_16
REMARK    7  A    between atoms: C_18  and  C_20
REMARK    8  A    between atoms: C_20  and  O_21
REMARK    9  A    between atoms: O_21  and  C_22
REMARK   10  A    between atoms: C_27  and  C_28
REMARK                            x       y       z     vdW  Elec       q    Type
REMARK                         _______ _______ _______ _____ _____    ______ ____
ROOT
ATOM      1  C   UNL     1      -5.369   3.060   3.694  0.00  0.00    +0.064 C 
ATOM      2  C   UNL     1      -4.431   3.232   4.860  0.00  0.00    +0.022 A 
ATOM      3  C   UNL     1      -4.791   3.592   6.103  0.00  0.00    +0.034 A 
ATOM      4  C   UNL     1      -3.555   3.637   6.897  0.00  0.00    +0.042 A 
ATOM      5  C   UNL     1      -2.536   3.284   6.032  0.00  0.00    +0.032 A 
ATOM      6  N   UNL     1      -3.077   3.043   4.822  0.00  0.00    -0.317 N 
ATOM      7  C   UNL     1      -1.073   3.186   6.382  0.00  0.00    +0.064 C 
ENDROOT
BRANCH   6   8
ATOM      8  C   UNL     1      -2.354   2.659   3.685  0.00  0.00    +0.047 A 
ATOM      9  C   UNL     1      -2.560   1.407   3.120  0.00  0.00    +0.028 A 
ATOM     10  C   UNL     1      -1.846   1.032   1.999  0.00  0.00    +0.030 A 
ATOM     11  C   UNL     1      -0.927   1.900   1.439  0.00  0.00    +0.105 A 
ATOM     12  C   UNL     1      -0.716   3.145   2.003  0.00  0.00    +0.030 A 
ATOM     13  C   UNL     1      -1.431   3.529   3.121  0.00  0.00    +0.028 A 
BRANCH  11  14
ATOM     14  S   UNL     1      -0.017   1.417   0.010  0.00  0.00    +0.056 S 
ATOM     15  O   UNL     1       0.002  -0.004   0.002  0.00  0.00    -0.153 OA
ATOM     16  O   UNL     1       1.172   2.195   0.003  0.00  0.00    -0.153 OA
BRANCH  14  17
ATOM     17  N   UNL     1      -0.897   1.885  -1.312  0.00  0.00    -0.204 NA
ATOM     18  H   UNL     1      -1.201   1.223  -1.952  0.00  0.00    +0.144 HD
ATOM     19  H   UNL     1      -1.110   2.822  -1.446  0.00  0.00    +0.144 HD
ENDBRANCH  14  17
ENDBRANCH  11  14
ENDBRANCH   6   8
BRANCH   4  20
ATOM     20  C   UNL     1      -3.429   3.984   8.314  0.00  0.00    +0.202 C 
ATOM     21  O   UNL     1      -2.338   3.980   8.845  0.00  0.00    -0.288 OA
BRANCH  20  22
ATOM     22  C   UNL     1      -4.654   4.346   9.113  0.00  0.00    +0.308 C 
BRANCH  22  23
ATOM     23  O   UNL     1      -4.275   4.643  10.458  0.00  0.00    -0.483 OA
BRANCH  23  24
ATOM     24  C   UNL     1      -5.268   4.990  11.316  0.00  0.00    +0.133 A 
ATOM     25  C   UNL     1      -6.582   5.045  10.874  0.00  0.00    +0.048 A 
ATOM     26  C   UNL     1      -7.591   5.398  11.747  0.00  0.00    +0.023 A 
ATOM     27  C   UNL     1      -7.301   5.700  13.069  0.00  0.00    +0.042 A 
ATOM     28  C   UNL     1      -6.000   5.650  13.525  0.00  0.00    +0.036 A 
ATOM     29  C   UNL     1      -4.971   5.288  12.652  0.00  0.00    +0.079 A 
ATOM     30 CL   UNL     1      -8.581   6.142  14.156  0.00  0.00    -0.084 Cl
BRANCH  29  31
ATOM     31  C   UNL     1      -3.578   5.226  13.134  0.00  0.00    +0.245 C 
ATOM     32  O   UNL     1      -2.684   4.915  12.371  0.00  0.00    -0.270 OA
ATOM     33  N   UNL     1      -3.296   5.514  14.420  0.00  0.00    -0.325 N 
ATOM     34  H   UNL     1      -4.009   5.762  15.029  0.00  0.00    +0.145 HD
ATOM     35  H   UNL     1      -2.380   5.473  14.737  0.00  0.00    +0.145 HD
ENDBRANCH  29  31
ENDBRANCH  23  24
ENDBRANCH  22  23
ENDBRANCH  20  22
ENDBRANCH   4  20
TORSDOF 8
