REMARK  Name = ZINC09663878
REMARK  3 active torsions:
REMARK  status: ('A' for Active; 'I' for Inactive)
REMARK    1  A    between atoms: C_11  and  C_13
REMARK    2  A    between atoms: N_19  and  S_20
REMARK    3  A    between atoms: S_20  and  C_23
REMARK                            x       y       z     vdW  Elec       q    Type
REMARK                         _______ _______ _______ _____ _____    ______ ____
ROOT
ATOM      1  C   UNL     1       2.377   2.689  -0.642  0.00  0.00    +0.166 C 
ATOM      2  C   UNL     1       3.071   3.994  -0.242  0.00  0.00    +0.030 C 
ATOM      3  C   UNL     1       3.680   3.836   1.154  0.00  0.00    +0.003 C 
ATOM      4  C   UNL     1       2.570   3.549   2.167  0.00  0.00    +0.017 C 
ATOM      5  C   UNL     1       1.868   2.244   1.794  0.00  0.00    +0.110 C 
ATOM      6  N   UNL     1       1.407   2.329   0.402  0.00  0.00    -0.164 NA
ENDROOT
BRANCH   1  17
ATOM      7  C   UNL     1      -1.677   3.971  -7.493  0.00  0.00    +0.002 A 
ATOM      8  C   UNL     1      -1.135   3.075  -8.404  0.00  0.00    +0.001 A 
ATOM      9  C   UNL     1      -0.117   2.231  -8.000  0.00  0.00    +0.017 A 
ATOM     10  C   UNL     1       0.341   2.292  -6.707  0.00  0.00    +0.041 A 
ATOM     11  C   UNL     1      -0.186   3.191  -5.753  0.00  0.00    +0.080 A 
ATOM     12  C   UNL     1      -1.226   4.039  -6.201  0.00  0.00    +0.029 A 
ATOM     13  N   UNL     1       0.365   3.128  -4.522  0.00  0.00    -0.225 NA
ATOM     14  C   UNL     1       1.336   2.295  -4.226  0.00  0.00    +0.165 A 
ATOM     15  S   UNL     1       1.585   1.435  -5.773  0.00  0.00    -0.052 S 
ATOM     16  N   UNL     1       1.995   2.122  -3.020  0.00  0.00    -0.263 N 
ATOM     17  C   UNL     1       1.660   2.877  -1.954  0.00  0.00    +0.238 C 
ATOM     18  O   UNL     1       0.780   3.706  -2.051  0.00  0.00    -0.274 OA
ATOM     19  H   UNL     1       2.698   1.459  -2.942  0.00  0.00    +0.157 HD
ENDBRANCH   1  17
BRANCH   6  20
ATOM     20  S   UNL     1      -0.176   2.032   0.017  0.00  0.00    +0.068 S 
ATOM     21  O   UNL     1      -0.686   1.177   1.030  0.00  0.00    -0.152 OA
ATOM     22  O   UNL     1      -0.200   1.682  -1.360  0.00  0.00    -0.152 OA
BRANCH  20  23
ATOM     23  C   UNL     1      -1.043   3.559   0.164  0.00  0.00    +0.143 A 
ATOM     24  C   UNL     1      -1.389   4.440  -0.806  0.00  0.00    +0.036 A 
ATOM     25  C   UNL     1      -2.079   5.586  -0.456  0.00  0.00    +0.010 A 
ATOM     26  C   UNL     1      -2.380   5.799   0.849  0.00  0.00    +0.047 A 
ATOM     27  S   UNL     1      -1.686   4.351   1.629  0.00  0.00    -0.077 S 
ENDBRANCH  20  23
ENDBRANCH   6  20
TORSDOF 3
