REMARK  Name = ZINC15625525
REMARK  6 active torsions:
REMARK  status: ('A' for Active; 'I' for Inactive)
REMARK    1  A    between atoms: C_1  and  C_2
REMARK    2  A    between atoms: C_2  and  C_4
REMARK    3  A    between atoms: C_2  and  N_14
REMARK    4  A    between atoms: C_15  and  C_17
REMARK    5  A    between atoms: N_20  and  C_23
REMARK    6  A    between atoms: C_28  and  N_29
REMARK                            x       y       z     vdW  Elec       q    Type
REMARK                         _______ _______ _______ _____ _____    ______ ____
ROOT
ATOM      1  N   UNL     1       5.807   3.391   0.853  0.00  0.00    -0.309 N 
ATOM      2  C   UNL     1       6.807   4.106   1.407  0.00  0.00    +0.217 C 
ATOM      3  O   UNL     1       6.901   5.293   1.181  0.00  0.00    -0.275 OA
ATOM      4  H   UNL     1       5.732   2.441   1.034  0.00  0.00    +0.149 HD
ENDROOT
BRANCH   2   5
ATOM      5  C   UNL     1       7.808   3.429   2.308  0.00  0.00    +0.078 C 
ATOM      6  C   UNL     1       7.083   2.822   3.513  0.00  0.00    +0.031 C 
ATOM      7  C   UNL     1       8.111   2.190   4.454  0.00  0.00    +0.106 C 
ATOM      8  N   UNL     1       9.066   3.213   4.898  0.00  0.00    -0.328 N 
ATOM      9  C   UNL     1       9.807   3.776   3.762  0.00  0.00    +0.106 C 
ATOM     10  C   UNL     1       8.830   4.456   2.801  0.00  0.00    +0.031 C 
BRANCH   8  11
ATOM     11  C   UNL     1       9.938   2.700   5.861  0.00  0.00    +0.060 A 
ATOM     12  C   UNL     1      10.816   1.676   5.529  0.00  0.00    +0.025 A 
ATOM     13  C   UNL     1      11.682   1.175   6.481  0.00  0.00    +0.002 A 
ATOM     14  C   UNL     1      11.667   1.684   7.767  0.00  0.00    +0.002 A 
ATOM     15  C   UNL     1      10.791   2.699   8.102  0.00  0.00    +0.034 A 
ATOM     16  C   UNL     1       9.926   3.209   7.153  0.00  0.00    +0.147 A 
BRANCH  16  17
ATOM     17  N   UNL     1       8.988   4.296   7.513  0.00  0.00    +0.058 N 
ATOM     18  O   UNL     1       8.978   4.742   8.646  0.00  0.00    -0.126 OA
ATOM     19  O   UNL     1       8.226   4.744   6.675  0.00  0.00    -0.126 OA
ENDBRANCH  16  17
ENDBRANCH   8  11
ENDBRANCH   2   5
BRANCH   1  21
ATOM     20  C   UNL     1       5.387   4.105  -1.448  0.00  0.00    +0.033 C 
ATOM     21  C   UNL     1       4.834   4.049  -0.022  0.00  0.00    +0.100 C 
BRANCH  21  22
ATOM     22  C   UNL     1       3.544   3.271  -0.014  0.00  0.00    -0.027 A 
ATOM     23  C   UNL     1       3.583   1.877  -0.022  0.00  0.00    +0.006 A 
ATOM     24  C   UNL     1       2.436   1.144  -0.014  0.00  0.00    +0.009 A 
ATOM     25  C   UNL     1       1.193   1.799   0.000  0.00  0.00    -0.018 A 
ATOM     26  C   UNL     1      -0.013   1.076   0.008  0.00  0.00    +0.008 A 
ATOM     27  C   UNL     1      -1.198   1.744   0.017  0.00  0.00    +0.001 A 
ATOM     28  C   UNL     1      -1.237   3.137   0.031  0.00  0.00    +0.001 A 
ATOM     29  C   UNL     1      -0.090   3.870   0.023  0.00  0.00    +0.008 A 
ATOM     30  C   UNL     1       1.153   3.215   0.008  0.00  0.00    -0.018 A 
ATOM     31  C   UNL     1       2.358   3.938   0.000  0.00  0.00    +0.014 A 
ENDBRANCH  21  22
ENDBRANCH   1  21
TORSDOF 5
