REMARK  Name = ZINC33317827
REMARK  9 active torsions:
REMARK  status: ('A' for Active; 'I' for Inactive)
REMARK    1  A    between atoms: C_1  and  O_2
REMARK    2  A    between atoms: O_2  and  C_3
REMARK    3  A    between atoms: C_6  and  C_9
REMARK    4  A    between atoms: N_13  and  C_17
REMARK    5  A    between atoms: C_17  and  C_18
REMARK    6  A    between atoms: C_18  and  C_19
REMARK    7  A    between atoms: C_19  and  C_20
REMARK    8  A    between atoms: N_22  and  C_23
REMARK    9  A    between atoms: C_28  and  O_29
REMARK                            x       y       z     vdW  Elec       q    Type
REMARK                         _______ _______ _______ _____ _____    ______ ____
ROOT
ATOM      1  C   UNL     1       5.381  -3.966   2.226  0.00  0.00    +0.028 C 
ATOM      2  C   UNL     1       4.640  -3.642   1.137  0.00  0.00    +0.080 C 
ATOM      3  C   UNL     1       3.241  -3.176   1.054  0.00  0.00    +0.260 C 
ATOM      4  O   UNL     1       2.558  -3.026   2.050  0.00  0.00    -0.269 OA
ATOM      5  N   UNL     1       2.769  -2.931  -0.156  0.00  0.00    -0.228 N 
ATOM      6  C   UNL     1       3.528  -3.103  -1.257  0.00  0.00    +0.286 C 
ATOM      7  O   UNL     1       3.224  -2.922  -2.421  0.00  0.00    -0.262 OA
ATOM      8  S   UNL     1       5.090  -3.659  -0.594  0.00  0.00    -0.026 S 
ENDROOT
BRANCH   1  12
ATOM      9  C   UNL     1       9.461  -5.029   1.776  0.00  0.00    +0.120 A 
ATOM     10  C   UNL     1       9.010  -4.511   2.985  0.00  0.00    +0.046 A 
ATOM     11  C   UNL     1       7.686  -4.164   3.136  0.00  0.00    +0.011 A 
ATOM     12  C   UNL     1       6.794  -4.334   2.070  0.00  0.00    -0.024 A 
ATOM     13  C   UNL     1       7.253  -4.862   0.857  0.00  0.00    +0.011 A 
ATOM     14  C   UNL     1       8.580  -5.200   0.715  0.00  0.00    +0.046 A 
BRANCH   9  16
ATOM     15  C   UNL     1      11.165  -5.895   0.364  0.00  0.00    +0.277 C 
ATOM     16  O   UNL     1      10.768  -5.369   1.632  0.00  0.00    -0.495 OA
ENDBRANCH   9  16
ENDBRANCH   1  12
BRANCH   5  17
ATOM     17  C   UNL     1       1.387  -2.466  -0.305  0.00  0.00    +0.118 C 
BRANCH  17  18
ATOM     18  C   UNL     1       1.355  -0.938  -0.254  0.00  0.00    +0.029 C 
BRANCH  18  19
ATOM     19  C   UNL     1      -0.088  -0.453  -0.409  0.00  0.00    +0.097 C 
BRANCH  19  20
ATOM     20  C   UNL     1      -0.119   1.053  -0.359  0.00  0.00    +0.217 C 
ATOM     21  O   UNL     1       0.910   1.677  -0.214  0.00  0.00    -0.275 OA
ATOM     22  N   UNL     1      -1.292   1.707  -0.482  0.00  0.00    -0.283 N 
ATOM     23  H   UNL     1      -2.218   1.145  -0.674  0.00  0.00    +0.155 HD
BRANCH  22  24
ATOM     24  C   UNL     1      -1.331   3.103  -0.365  0.00  0.00    +0.075 A 
ATOM     25  C   UNL     1      -0.203   3.857  -0.653  0.00  0.00    +0.027 A 
ATOM     26  C   UNL     1      -0.245   5.234  -0.538  0.00  0.00    +0.002 A 
ATOM     27  C   UNL     1      -1.409   5.862  -0.135  0.00  0.00    +0.004 A 
ATOM     28  C   UNL     1      -2.537   5.117   0.154  0.00  0.00    +0.047 A 
ATOM     29  C   UNL     1      -2.505   3.737   0.036  0.00  0.00    +0.138 A 
BRANCH  29  30
ATOM     30  O   UNL     1      -3.615   3.003   0.315  0.00  0.00    -0.505 OA
ATOM     31  H   UNL     1      -4.541   3.506   0.631  0.00  0.00    +0.292 HD
ENDBRANCH  29  30
ENDBRANCH  22  24
ENDBRANCH  19  20
ENDBRANCH  18  19
ENDBRANCH  17  18
ENDBRANCH   5  17
TORSDOF 8
