REMARK  Name = ZINC13977888
REMARK  7 active torsions:
REMARK  status: ('A' for Active; 'I' for Inactive)
REMARK    1  A    between atoms: C_1  and  C_2
REMARK    2  A    between atoms: C_2  and  C_17
REMARK    3  A    between atoms: N_3  and  N_4
REMARK    4  A    between atoms: C_5  and  C_7
REMARK    5  A    between atoms: C_7  and  O_8
REMARK    6  A    between atoms: O_8  and  C_9
REMARK    7  A    between atoms: C_18  and  C_19
REMARK                            x       y       z     vdW  Elec       q    Type
REMARK                         _______ _______ _______ _____ _____    ______ ____
ROOT
ATOM      1  N   UNL     1      -2.490   3.754   0.034  0.00  0.00    -0.204 N 
ATOM      2  C   UNL     1      -2.509   5.102   0.042  0.00  0.00    +0.270 C 
ATOM      3  O   UNL     1      -1.466   5.723   0.040  0.00  0.00    -0.270 OA
ATOM      4  H   UNL     1      -3.324   3.258   0.035  0.00  0.00    +0.177 HD
ENDROOT
BRANCH   1   7
ATOM      5  C   UNL     1      -2.545   0.997   0.019  0.00  0.00    +0.067 C 
ATOM      6  C   UNL     1      -1.250   1.768   0.018  0.00  0.00    +0.056 C 
ATOM      7  N   UNL     1      -1.268   3.070   0.025  0.00  0.00    -0.185 NA
BRANCH   6   8
ATOM      8  C   UNL     1      -0.013   1.076   0.008  0.00  0.00    +0.025 C 
ATOM      9  C   UNL     1       1.146   1.766   0.001  0.00  0.00    +0.010 C 
BRANCH   9  10
ATOM     10  C   UNL     1       2.431   1.047  -0.015  0.00  0.00    -0.025 A 
ATOM     11  C   UNL     1       2.454  -0.351  -0.018  0.00  0.00    +0.008 A 
ATOM     12  C   UNL     1       3.661  -1.017  -0.038  0.00  0.00    +0.001 A 
ATOM     13  C   UNL     1       4.848  -0.305  -0.045  0.00  0.00    +0.000 A 
ATOM     14  C   UNL     1       4.833   1.079  -0.038  0.00  0.00    +0.001 A 
ATOM     15  C   UNL     1       3.634   1.759  -0.023  0.00  0.00    +0.008 A 
ENDBRANCH   9  10
ENDBRANCH   6   8
ENDBRANCH   1   7
BRANCH   2  16
ATOM     16  C   UNL     1      -3.824   5.838   0.052  0.00  0.00    +0.326 C 
BRANCH  16  17
ATOM     17  O   UNL     1      -3.582   7.246   0.058  0.00  0.00    -0.481 OA
BRANCH  17  18
ATOM     18  C   UNL     1      -4.671   8.059   0.068  0.00  0.00    +0.139 A 
ATOM     19  C   UNL     1      -5.946   7.513   0.071  0.00  0.00    +0.048 A 
ATOM     20  C   UNL     1      -7.052   8.341   0.081  0.00  0.00    +0.019 A 
ATOM     21  C   UNL     1      -6.889   9.715   0.087  0.00  0.00    +0.019 A 
ATOM     22  C   UNL     1      -5.619  10.263   0.084  0.00  0.00    +0.039 A 
ATOM     23  C   UNL     1      -4.509   9.438   0.081  0.00  0.00    +0.084 A 
ATOM     24 CL   UNL     1      -2.915  10.125   0.084  0.00  0.00    -0.080 Cl
ATOM     25 BR   UNL     1      -8.405  10.845   0.100  0.00  0.00    -0.050 Br
ENDBRANCH  17  18
ENDBRANCH  16  17
ENDBRANCH   2  16
TORSDOF 6
