REMARK  Name = ZINC63743501
REMARK  7 active torsions:
REMARK  status: ('A' for Active; 'I' for Inactive)
REMARK    1  A    between atoms: C_1  and  C_2
REMARK    2  A    between atoms: C_7  and  C_12
REMARK    3  A    between atoms: C_12  and  C_13
REMARK    4  A    between atoms: C_13  and  C_14
REMARK    5  A    between atoms: C_17  and  N_20
REMARK    6  A    between atoms: N_20  and  S_21
REMARK    7  A    between atoms: S_21  and  C_24
REMARK                            x       y       z     vdW  Elec       q    Type
REMARK                         _______ _______ _______ _____ _____    ______ ____
ROOT
ATOM      1  C   UNL     1       2.547  -7.291   1.689  0.00  0.00    -0.047 A 
ATOM      2  C   UNL     1       3.679  -7.180   0.902  0.00  0.00    +0.005 A 
ATOM      3  C   UNL     1       4.841  -7.833   1.265  0.00  0.00    +0.025 A 
ATOM      4  C   UNL     1       4.872  -8.602   2.421  0.00  0.00    +0.048 A 
ATOM      5  C   UNL     1       3.733  -8.711   3.209  0.00  0.00    +0.025 A 
ATOM      6  C   UNL     1       2.576  -8.051   2.843  0.00  0.00    +0.005 A 
ENDROOT
BRANCH   4   7
ATOM      7  N   UNL     1       6.045  -9.264   2.790  0.00  0.00    -0.216 N 
ATOM      8  H   UNL     1       6.546  -9.767   2.130  0.00  0.00    +0.174 HD
BRANCH   7   9
ATOM      9  S   UNL     1       6.579  -9.190   4.356  0.00  0.00    +0.072 S 
ATOM     10  O   UNL     1       5.485  -9.573   5.178  0.00  0.00    -0.150 OA
ATOM     11  O   UNL     1       7.830  -9.863   4.390  0.00  0.00    -0.150 OA
BRANCH   9  12
ATOM     12  C   UNL     1       6.909  -7.496   4.714  0.00  0.00    +0.109 A 
ATOM     13  C   UNL     1       8.129  -6.943   4.373  0.00  0.00    +0.030 A 
ATOM     14  C   UNL     1       8.389  -5.615   4.653  0.00  0.00    +0.017 A 
ATOM     15  C   UNL     1       7.427  -4.839   5.275  0.00  0.00    +0.018 A 
ATOM     16  C   UNL     1       6.206  -5.393   5.617  0.00  0.00    +0.017 A 
ATOM     17  C   UNL     1       5.946  -6.720   5.331  0.00  0.00    +0.030 A 
ATOM     18 BR   UNL     1       7.781  -3.022   5.660  0.00  0.00    -0.050 Br
ENDBRANCH   9  12
ENDBRANCH   7   9
ENDBRANCH   4   7
BRANCH   1  19
ATOM     19  C   UNL     1       1.282  -6.577   1.290  0.00  0.00    +0.039 C 
BRANCH  19  20
ATOM     20  C   UNL     1       1.270  -5.177   1.907  0.00  0.00    +0.051 C 
BRANCH  20  27
ATOM     21  C   UNL     1      -0.208   1.307  -0.294  0.00  0.00    +0.044 C 
ATOM     22  C   UNL     1      -0.173  -0.198  -0.233  0.00  0.00    -0.048 A 
ATOM     23  C   UNL     1      -0.201  -0.923  -1.438  0.00  0.00    +0.005 A 
ATOM     24  C   UNL     1      -0.172  -2.270  -1.476  0.00  0.00    +0.027 A 
ATOM     25  C   UNL     1      -0.109  -3.030  -0.220  0.00  0.00    +0.060 A 
ATOM     26  N   UNL     1      -0.072  -4.305   0.042  0.00  0.00    -0.363 N 
ATOM     27  C   UNL     1      -0.015  -4.452   1.502  0.00  0.00    +0.174 C 
ATOM     28  N   UNL     1      -0.025  -3.093   2.056  0.00  0.00    -0.363 N 
ATOM     29  C   UNL     1      -0.079  -2.263   1.055  0.00  0.00    +0.060 A 
ATOM     30  C   UNL     1      -0.110  -0.796   0.973  0.00  0.00    +0.030 A 
ATOM     31  H   UNL     1      -0.081  -5.025  -0.608  0.00  0.00    +0.162 HD
ATOM     32  H   UNL     1       0.005  -2.856   2.997  0.00  0.00    +0.162 HD
ENDBRANCH  20  27
ENDBRANCH  19  20
ENDBRANCH   1  19
TORSDOF 6
