REMARK  Name = ZINC66119119
REMARK  6 active torsions:
REMARK  status: ('A' for Active; 'I' for Inactive)
REMARK    1  A    between atoms: C_1  and  C_2
REMARK    2  A    between atoms: C_2  and  C_4
REMARK    3  A    between atoms: C_2  and  N_11
REMARK    4  A    between atoms: C_18  and  C_21
REMARK    5  A    between atoms: C_21  and  C_22
REMARK    6  A    between atoms: C_22  and  C_23
REMARK                            x       y       z     vdW  Elec       q    Type
REMARK                         _______ _______ _______ _____ _____    ______ ____
ROOT
ATOM      1  N   UNL     1      -1.373  -0.510   0.012  0.00  0.00    -0.293 N 
ATOM      2  C   UNL     1      -2.029  -0.655   1.181  0.00  0.00    +0.303 C 
ATOM      3  O   UNL     1      -1.451  -0.452   2.231  0.00  0.00    -0.253 OA
ATOM      4  N   UNL     1      -3.325  -1.025   1.185  0.00  0.00    -0.285 N 
ATOM      5  C   UNL     1      -4.004  -1.386  -0.067  0.00  0.00    +0.109 C 
ATOM      6  C   UNL     1      -5.276  -0.544  -0.199  0.00  0.00    +0.019 C 
ATOM      7  C   UNL     1      -6.134  -0.723   1.056  0.00  0.00    +0.006 C 
ATOM      8  C   UNL     1      -5.357  -0.236   2.281  0.00  0.00    +0.007 C 
ATOM      9  C   UNL     1      -4.084  -1.081   2.441  0.00  0.00    +0.112 C 
ATOM     10  H   UNL     1      -1.810  -0.743  -0.822  0.00  0.00    +0.151 HD
ENDROOT
BRANCH   1  12
ATOM     11  C   UNL     1      -0.021   1.528   0.011  0.00  0.00    +0.033 C 
ATOM     12  C   UNL     1       0.001  -0.002   0.002  0.00  0.00    +0.102 C 
BRANCH  12  13
ATOM     13  C   UNL     1       0.707  -0.487  -1.238  0.00  0.00    -0.026 A 
ATOM     14  C   UNL     1       0.037  -0.519  -2.447  0.00  0.00    +0.005 A 
ATOM     15  C   UNL     1       0.684  -0.963  -3.585  0.00  0.00    +0.002 A 
ATOM     16  C   UNL     1       2.001  -1.377  -3.514  0.00  0.00    +0.020 A 
ATOM     17  C   UNL     1       2.672  -1.345  -2.305  0.00  0.00    +0.041 A 
ATOM     18  C   UNL     1       2.026  -0.894  -1.168  0.00  0.00    +0.025 A 
ATOM     19 CL   UNL     1       4.326  -1.864  -2.216  0.00  0.00    -0.084 Cl
ENDBRANCH  12  13
ENDBRANCH   1  12
BRANCH   8  20
ATOM     20  C   UNL     1      -6.228  -0.384   3.530  0.00  0.00    +0.014 C 
BRANCH  20  21
ATOM     21  C   UNL     1      -5.499   0.217   4.734  0.00  0.00    +0.096 C 
BRANCH  21  22
ATOM     22  C   UNL     1      -6.357   0.071   5.964  0.00  0.00    +0.210 C 
ATOM     23  O   UNL     1      -7.444  -0.462   5.886  0.00  0.00    -0.276 OA
ATOM     24  N   UNL     1      -5.916   0.532   7.151  0.00  0.00    -0.329 N 
ATOM     25  H   UNL     1      -5.047   0.958   7.214  0.00  0.00    +0.145 HD
ATOM     26  H   UNL     1      -6.468   0.438   7.943  0.00  0.00    +0.145 HD
ENDBRANCH  21  22
ENDBRANCH  20  21
ENDBRANCH   8  20
TORSDOF 5
