REMARK  Name = ZINC39495537
REMARK  8 active torsions:
REMARK  status: ('A' for Active; 'I' for Inactive)
REMARK    1  A    between atoms: C_4  and  O_29
REMARK    2  A    between atoms: C_5  and  C_7
REMARK    3  A    between atoms: C_8  and  C_21
REMARK    4  A    between atoms: C_12  and  C_13
REMARK    5  A    between atoms: C_18  and  O_19
REMARK    6  A    between atoms: C_21  and  C_23
REMARK    7  A    between atoms: C_21  and  N_26
REMARK    8  A    between atoms: C_23  and  C_24
REMARK                            x       y       z     vdW  Elec       q    Type
REMARK                         _______ _______ _______ _____ _____    ______ ____
ROOT
ATOM      1  C   UNL     1       0.877  -2.675   0.034  0.00  0.00    -0.001 A 
ATOM      2  C   UNL     1       0.969  -3.123   1.350  0.00  0.00    -0.018 A 
ATOM      3  C   UNL     1       0.994  -4.477   1.618  0.00  0.00    +0.007 A 
ATOM      4  C   UNL     1       0.929  -5.396   0.585  0.00  0.00    +0.015 A 
ATOM      5  C   UNL     1       0.839  -4.970  -0.725  0.00  0.00    +0.022 A 
ATOM      6  C   UNL     1       0.806  -3.607  -1.013  0.00  0.00    +0.007 A 
ATOM      7  I   UNL     1       0.743  -6.372  -2.279  0.00  0.00    -0.043 I 
ENDROOT
BRANCH   1  12
ATOM      8  C   UNL     1      -0.382   0.820  -0.534  0.00  0.00    +0.001 A 
ATOM      9  C   UNL     1       0.796   1.495  -0.805  0.00  0.00    +0.004 A 
ATOM     10  C   UNL     1       2.002   0.820  -0.804  0.00  0.00    +0.046 A 
ATOM     11  C   UNL     1       2.038  -0.538  -0.532  0.00  0.00    +0.125 A 
ATOM     12  C   UNL     1       0.849  -1.222  -0.258  0.00  0.00    +0.024 A 
ATOM     13  C   UNL     1      -0.362  -0.532  -0.261  0.00  0.00    +0.012 A 
BRANCH  11  14
ATOM     14  O   UNL     1       3.223  -1.202  -0.532  0.00  0.00    -0.506 OA
ATOM     15  H   UNL     1       3.700  -1.154   0.308  0.00  0.00    +0.292 HD
ENDBRANCH  11  14
ENDBRANCH   1  12
BRANCH   6  16
ATOM     16  C   UNL     1       0.702  -3.144  -2.417  0.00  0.00    +0.025 A 
ATOM     17  C   UNL     1       1.855  -2.926  -3.169  0.00  0.00    +0.012 A 
ATOM     18  C   UNL     1       1.753  -2.495  -4.476  0.00  0.00    +0.001 A 
ATOM     19  C   UNL     1       0.510  -2.279  -5.044  0.00  0.00    +0.004 A 
ATOM     20  C   UNL     1      -0.640  -2.492  -4.307  0.00  0.00    +0.046 A 
ATOM     21  C   UNL     1      -0.553  -2.930  -2.995  0.00  0.00    +0.125 A 
BRANCH  21  22
ATOM     22  O   UNL     1      -1.683  -3.145  -2.272  0.00  0.00    -0.506 OA
ATOM     23  H   UNL     1      -1.994  -2.368  -1.788  0.00  0.00    +0.292 HD
ENDBRANCH  21  22
ENDBRANCH   6  16
BRANCH   2  24
ATOM     24  C   UNL     1       1.041  -2.130   2.481  0.00  0.00    +0.110 C 
BRANCH  24  25
ATOM     25  N   UNL     1      -0.287  -1.556   2.712  0.00  0.00    -0.311 N 
ATOM     26  C   UNL     1      -1.338  -2.364   2.952  0.00  0.00    +0.326 C 
ATOM     27  O   UNL     1      -1.171  -3.560   3.062  0.00  0.00    -0.280 OA
ATOM     28  H   UNL     1      -0.410  -0.594   2.692  0.00  0.00    +0.149 HD
ENDBRANCH  24  25
BRANCH  24  29
ATOM     29  C   UNL     1       1.519  -2.836   3.751  0.00  0.00    +0.097 C 
BRANCH  29  30
ATOM     30  C   UNL     1       1.670  -1.828   4.860  0.00  0.00    +0.225 C 
ATOM     31  O   UNL     1       1.095  -1.993   5.909  0.00  0.00    -0.301 OA
ENDBRANCH  29  30
ENDBRANCH  24  29
ENDBRANCH   2  24
TORSDOF 8
