REMARK  Name = ZINC63732069
REMARK  13 active torsions:
REMARK  status: ('A' for Active; 'I' for Inactive)
REMARK    1  A    between atoms: C_1  and  C_2
REMARK    2  A    between atoms: C_2  and  C_3
REMARK    3  A    between atoms: C_2  and  C_4
REMARK    4  A    between atoms: C_2  and  C_5
REMARK    5  A    between atoms: C_8  and  C_11
REMARK    6  A    between atoms: N_13  and  C_14
REMARK    7  A    between atoms: C_14  and  C_16
REMARK    8  A    between atoms: C_14  and  C_26
REMARK    9  A    between atoms: C_16  and  C_17
REMARK   10  A    between atoms: C_26  and  O_28
REMARK   11  A    between atoms: O_28  and  C_29
REMARK   12  A    between atoms: C_29  and  C_30
REMARK   13  A    between atoms: C_30  and  C_32
REMARK                            x       y       z     vdW  Elec       q    Type
REMARK                         _______ _______ _______ _____ _____    ______ ____
ROOT
ATOM      1  C   UNL     1       4.564  -2.034  -6.075  0.00  0.00    +0.186 C 
ENDROOT
BRANCH   1   4
ATOM      2  C   UNL     1       2.539  -2.223  -4.732  0.00  0.00    +0.245 C 
ATOM      3  O   UNL     1       2.059  -2.917  -5.607  0.00  0.00    -0.270 OA
ATOM      4  N   UNL     1       3.787  -1.732  -4.870  0.00  0.00    -0.298 N 
ATOM      5  H   UNL     1       4.171  -1.179  -4.171  0.00  0.00    +0.150 HD
BRANCH   2   9
ATOM      6  C   UNL     1       0.288  -1.349  -1.237  0.00  0.00    -0.042 A 
ATOM      7  C   UNL     1      -0.262  -2.138  -2.232  0.00  0.00    +0.005 A 
ATOM      8  C   UNL     1       0.463  -2.425  -3.369  0.00  0.00    +0.013 A 
ATOM      9  C   UNL     1       1.756  -1.919  -3.515  0.00  0.00    +0.037 A 
ATOM     10  C   UNL     1       2.305  -1.124  -2.509  0.00  0.00    +0.013 A 
ATOM     11  C   UNL     1       1.567  -0.839  -1.379  0.00  0.00    +0.005 A 
BRANCH   6  13
ATOM     12  C   UNL     1      -0.699   0.475   0.122  0.00  0.00    +0.015 C 
ATOM     13  C   UNL     1      -0.510  -1.039   0.003  0.00  0.00    -0.013 C 
ATOM     14  C   UNL     1       0.235  -1.559   1.233  0.00  0.00    +0.015 C 
ATOM     15  C   UNL     1      -1.879  -1.718  -0.089  0.00  0.00    +0.015 C 
ENDBRANCH   6  13
ENDBRANCH   2   9
ENDBRANCH   1   4
BRANCH   1  16
ATOM     16  C   UNL     1       5.531  -0.911  -6.343  0.00  0.00    +0.328 C 
ATOM     17  O   UNL     1       5.568   0.044  -5.604  0.00  0.00    -0.249 OA
BRANCH  16  18
ATOM     18  O   UNL     1       6.352  -0.971  -7.404  0.00  0.00    -0.455 OA
BRANCH  18  19
ATOM     19  C   UNL     1       7.243   0.130  -7.598  0.00  0.00    +0.311 C 
BRANCH  19  20
ATOM     20  C   UNL     1       8.080  -0.112  -8.828  0.00  0.00    +0.200 C 
ATOM     21  O   UNL     1       7.928  -1.127  -9.474  0.00  0.00    -0.288 OA
BRANCH  20  22
ATOM     22  C   UNL     1       9.081   0.882  -9.244  0.00  0.00    +0.021 A 
ATOM     23  C   UNL     1       9.263   2.051  -8.497  0.00  0.00    +0.011 A 
ATOM     24  C   UNL     1      10.204   2.978  -8.893  0.00  0.00    +0.001 A 
ATOM     25  C   UNL     1      10.966   2.755 -10.027  0.00  0.00    +0.000 A 
ATOM     26  C   UNL     1      10.792   1.601 -10.771  0.00  0.00    +0.001 A 
ATOM     27  C   UNL     1       9.859   0.662 -10.384  0.00  0.00    +0.011 A 
ENDBRANCH  20  22
ENDBRANCH  19  20
ENDBRANCH  18  19
ENDBRANCH  16  18
ENDBRANCH   1  16
BRANCH   1  28
ATOM     28  C   UNL     1       5.339  -3.337  -5.869  0.00  0.00    +0.067 C 
BRANCH  28  29
ATOM     29  C   UNL     1       6.249  -3.196  -4.676  0.00  0.00    -0.039 C 
ATOM     30  C   UNL     1       5.985  -3.570  -3.403  0.00  0.00    -0.001 A 
ATOM     31  C   UNL     1       4.815  -4.194  -2.772  0.00  0.00    +0.010 A 
ATOM     32  C   UNL     1       4.846  -4.454  -1.445  0.00  0.00    +0.001 A 
ATOM     33  C   UNL     1       5.963  -4.141  -0.659  0.00  0.00    +0.002 A 
ATOM     34  C   UNL     1       7.075  -3.567  -1.166  0.00  0.00    +0.026 A 
ATOM     35  C   UNL     1       7.152  -3.251  -2.550  0.00  0.00    +0.043 A 
ATOM     36  N   UNL     1       8.101  -2.701  -3.268  0.00  0.00    -0.380 N 
ATOM     37  C   UNL     1       7.645  -2.615  -4.660  0.00  0.00    +0.144 C 
ATOM     38  H   UNL     1       8.963  -2.404  -2.936  0.00  0.00    +0.160 HD
ENDBRANCH  28  29
ENDBRANCH   1  28
TORSDOF 10
