REMARK  Name = ZINC39466781
REMARK  3 active torsions:
REMARK  status: ('A' for Active; 'I' for Inactive)
REMARK    1  A    between atoms: C_4  and  C_7
REMARK    2  A    between atoms: C_7  and  P_8
REMARK    3  A    between atoms: C_16  and  O_27
REMARK                            x       y       z     vdW  Elec       q    Type
REMARK                         _______ _______ _______ _____ _____    ______ ____
ROOT
ATOM      1  P   UNL     1       4.260  -1.012   1.674  0.00  0.00    +0.262 P 
ATOM      2  O   UNL     1       3.282  -1.870   2.380  0.00  0.00    -0.274 OA
ATOM      3  N   UNL     1       5.753  -1.716   1.680  0.00  0.00    -0.291 NA
ATOM      4  N   UNL     1       6.498  -1.631   2.837  0.00  0.00    +0.397 N 
ATOM      5  C   UNL     1       7.805  -2.232   2.523  0.00  0.00    -0.046 C 
ATOM      6  C   UNL     1       8.720  -2.213   3.740  0.00  0.00    +0.008 C 
ATOM      7  C   UNL     1       8.111  -3.001   4.869  0.00  0.00    +0.022 C 
ATOM      8  C   UNL     1       8.497  -2.754   6.124  0.00  0.00    +0.131 C 
ATOM      9  C   UNL     1       9.524  -1.723   6.376  0.00  0.00    +0.078 C 
ATOM     10  C   UNL     1       9.742  -0.773   5.471  0.00  0.00    +0.000 C 
ATOM     11  C   UNL     1       8.930  -0.767   4.199  0.00  0.00    +0.017 C 
ATOM     12  C   UNL     1       7.562  -0.142   4.479  0.00  0.00    -0.003 C 
ATOM     13  C   UNL     1       6.664  -0.233   3.240  0.00  0.00    -0.020 C 
ATOM     14  C   UNL     1       5.320   0.407   3.611  0.00  0.00    +0.156 C 
ATOM     15  O   UNL     1       4.449   0.397   2.466  0.00  0.00    -0.319 OA
ATOM     16 CL   UNL     1      10.443  -1.750   7.849  0.00  0.00    -0.080 Cl
ATOM     17  H   UNL     1       6.094  -2.174   0.896  0.00  0.00    +0.111 HD
ATOM     18  H   UNL     1       6.042  -2.147   3.574  0.00  0.00    -0.055 HD
ENDROOT
BRANCH   8  19
ATOM     19  O   UNL     1       7.951  -3.445   7.159  0.00  0.00    -0.506 OA
ATOM     20  H   UNL     1       8.296  -3.193   8.026  0.00  0.00    +0.292 HD
ENDBRANCH   8  19
BRANCH   1  21
ATOM     21  C   UNL     1       3.711  -0.707  -0.038  0.00  0.00    +0.147 C 
BRANCH  21  25
ATOM     22  C   UNL     1      -0.017   1.378   0.010  0.00  0.00    +0.000 A 
ATOM     23  C   UNL     1       1.171   2.086   0.002  0.00  0.00    +0.000 A 
ATOM     24  C   UNL     1       2.377   1.411  -0.013  0.00  0.00    +0.004 A 
ATOM     25  C   UNL     1       2.396   0.029  -0.020  0.00  0.00    -0.037 A 
ATOM     26  C   UNL     1       1.208  -0.679  -0.012  0.00  0.00    +0.004 A 
ATOM     27  C   UNL     1       0.002  -0.004   0.002  0.00  0.00    +0.000 A 
ENDBRANCH  21  25
ENDBRANCH   1  21
TORSDOF 3
