REMARK  Name = ZINC09882794
REMARK  12 active torsions:
REMARK  status: ('A' for Active; 'I' for Inactive)
REMARK    1  A    between atoms: C_1  and  C_2
REMARK    2  A    between atoms: C_2  and  C_3
REMARK    3  A    between atoms: C_3  and  C_5
REMARK    4  A    between atoms: C_3  and  C_6
REMARK    5  A    between atoms: C_6  and  C_7
REMARK    6  A    between atoms: C_8  and  C_31
REMARK    7  A    between atoms: C_16  and  C_18
REMARK    8  A    between atoms: C_18  and  N_57
REMARK    9  A    between atoms: C_19  and  N_57
REMARK   10  A    between atoms: C_20  and  C_21
REMARK   11  A    between atoms: C_20  and  N_57
REMARK   12  A    between atoms: N_23  and  C_24
REMARK                            x       y       z     vdW  Elec       q    Type
REMARK                         _______ _______ _______ _____ _____    ______ ____
ROOT
ATOM      1  C   UNL     1       3.510   2.291   0.012  0.00  0.00    -0.023 A 
ATOM      2  C   UNL     1       3.287   3.615   0.012  0.00  0.00    -0.007 A 
ATOM      3  S   UNL     1       1.508   3.735   0.021  0.00  0.00    -0.073 S 
ATOM      4  C   UNL     1       1.116   2.004   0.023  0.00  0.00    +0.116 A 
ATOM      5  C   UNL     1       2.378   1.383   0.018  0.00  0.00    +0.075 A 
ATOM      6  C   UNL     1       2.363  -0.050   0.019  0.00  0.00    +0.260 A 
ATOM      7  O   UNL     1       3.406  -0.681   0.014  0.00  0.00    -0.267 OA
ATOM      8  N   UNL     1       1.178  -0.689   0.026  0.00  0.00    -0.312 N 
ATOM      9  H   UNL     1       1.161  -1.659   0.026  0.00  0.00    +0.170 HD
ATOM     10  C   UNL     1       0.006  -0.003   0.031  0.00  0.00    +0.094 A 
ATOM     11  N   UNL     1      -0.013   1.303   0.030  0.00  0.00    -0.229 NA
ATOM     12  C   UNL     1       4.298   4.733   0.007  0.00  0.00    +0.052 C 
ENDROOT
BRANCH   1  13
ATOM     13  C   UNL     1       4.918   1.755   0.006  0.00  0.00    +0.040 C 
BRANCH  13  14
ATOM     14  C   UNL     1       5.388   1.572  -1.439  0.00  0.00    -0.010 C 
ATOM     15  C   UNL     1       5.472   2.937  -2.124  0.00  0.00    +0.008 C 
BRANCH  14  17
ATOM     16  C   UNL     1       7.184   0.616  -2.889  0.00  0.00    +0.004 C 
ATOM     17  C   UNL     1       6.768   0.912  -1.446  0.00  0.00    +0.000 C 
ENDBRANCH  14  17
ENDBRANCH  13  14
ENDBRANCH   1  13
BRANCH  10  18
ATOM     18  C   UNL     1      -1.296  -0.762   0.038  0.00  0.00    -0.003 C 
BRANCH  18  20
ATOM     19  C   UNL     1      -2.465   0.951  -1.211  0.00  0.00    -0.095 C 
ATOM     20  N   UNL     1      -2.412   0.206   0.064  0.00  0.00    +0.388 N 
ATOM     21  H   UNL     1      -2.260   0.870   0.832  0.00  0.00    -0.081 HD
BRANCH  20  22
ATOM     22  C   UNL     1      -3.690  -0.502   0.288  0.00  0.00    +0.019 C 
BRANCH  22  23
ATOM     23  C   UNL     1      -4.775   0.516   0.529  0.00  0.00    +0.201 C 
ATOM     24  O   UNL     1      -4.513   1.700   0.500  0.00  0.00    -0.278 OA
ATOM     25  N   UNL     1      -6.036   0.111   0.778  0.00  0.00    -0.286 N 
ATOM     26  H   UNL     1      -6.263  -0.830   0.722  0.00  0.00    +0.155 HD
BRANCH  25  27
ATOM     27  C   UNL     1      -7.018   1.049   1.116  0.00  0.00    +0.047 A 
ATOM     28  C   UNL     1      -6.656   2.259   1.692  0.00  0.00    +0.024 A 
ATOM     29  C   UNL     1      -7.627   3.184   2.021  0.00  0.00    +0.002 A 
ATOM     30  C   UNL     1      -8.960   2.903   1.786  0.00  0.00    +0.001 A 
ATOM     31  C   UNL     1      -9.326   1.697   1.216  0.00  0.00    +0.017 A 
ATOM     32  C   UNL     1      -8.359   0.769   0.881  0.00  0.00    +0.039 A 
ATOM     33 BR   UNL     1      -8.859  -0.881   0.103  0.00  0.00    -0.048 Br
ENDBRANCH  25  27
ENDBRANCH  22  23
ENDBRANCH  20  22
ENDBRANCH  18  20
ENDBRANCH  10  18
TORSDOF 8
