REMARK  Name = ZINC20206511
REMARK  9 active torsions:
REMARK  status: ('A' for Active; 'I' for Inactive)
REMARK    1  A    between atoms: C_1  and  C_2
REMARK    2  A    between atoms: C_2  and  S_3
REMARK    3  A    between atoms: S_3  and  C_6
REMARK    4  A    between atoms: C_14  and  C_15
REMARK    5  A    between atoms: N_17  and  C_24
REMARK    6  A    between atoms: C_24  and  C_25
REMARK    7  A    between atoms: C_25  and  O_26
REMARK    8  A    between atoms: O_26  and  C_27
REMARK    9  A    between atoms: C_32  and  C_33
REMARK                            x       y       z     vdW  Elec       q    Type
REMARK                         _______ _______ _______ _____ _____    ______ ____
ROOT
ATOM      1  C   UNL     1      -5.020  -3.609   2.857  0.00  0.00    +0.001 A 
ATOM      2  C   UNL     1      -5.062  -4.983   2.993  0.00  0.00    +0.095 A 
ATOM      3  N   UNL     1      -6.345  -5.391   3.059  0.00  0.00    -0.343 N 
ATOM      4  C   UNL     1      -7.205  -4.314   2.970  0.00  0.00    +0.050 A 
ATOM      5  C   UNL     1      -6.425  -3.154   2.846  0.00  0.00    +0.007 A 
ATOM      6  C   UNL     1      -7.036  -1.908   2.744  0.00  0.00    +0.010 A 
ATOM      7  C   UNL     1      -8.412  -1.819   2.767  0.00  0.00    +0.001 A 
ATOM      8  C   UNL     1      -9.184  -2.964   2.893  0.00  0.00    +0.002 A 
ATOM      9  C   UNL     1      -8.591  -4.204   2.987  0.00  0.00    +0.026 A 
ENDROOT
BRANCH   1  18
ATOM     10  C   UNL     1       0.940  -3.016   3.021  0.00  0.00    +0.257 C 
ATOM     11  N   UNL     1       1.879  -3.831   3.392  0.00  0.00    -0.174 NA
ATOM     12  S   UNL     1       1.102  -4.926   4.395  0.00  0.00    +0.049 S 
ATOM     13  C   UNL     1      -0.455  -4.342   4.279  0.00  0.00    +0.183 C 
ATOM     14  N   UNL     1      -1.572  -4.798   4.799  0.00  0.00    -0.152 NA
ATOM     15  C   UNL     1      -2.736  -4.184   4.508  0.00  0.00    +0.273 C 
ATOM     16  O   UNL     1      -3.768  -4.500   5.077  0.00  0.00    -0.268 OA
ATOM     17  C   UNL     1      -2.732  -3.117   3.480  0.00  0.00    +0.079 C 
ATOM     18  C   UNL     1      -3.865  -2.800   2.753  0.00  0.00    +0.026 C 
ATOM     19  C   UNL     1      -1.441  -2.404   3.275  0.00  0.00    +0.138 C 
ATOM     20  N   UNL     1      -1.362  -1.145   2.931  0.00  0.00    -0.284 NA
ATOM     21  N   UNL     1      -0.313  -3.219   3.492  0.00  0.00    -0.201 N 
ATOM     22  H   UNL     1      -2.171  -0.627   2.797  0.00  0.00    +0.188 HD
BRANCH  10  23
ATOM     23  S   UNL     1       1.289  -1.674   1.935  0.00  0.00    +0.029 S 
ATOM     24  O   UNL     1       0.109  -1.519   1.159  0.00  0.00    -0.167 OA
ATOM     25  O   UNL     1       2.522  -2.018   1.317  0.00  0.00    -0.167 OA
BRANCH  23  27
ATOM     26  C   UNL     1       1.826   0.997   2.178  0.00  0.00    +0.028 C 
ATOM     27  C   UNL     1       1.515  -0.240   3.023  0.00  0.00    +0.172 C 
ENDBRANCH  23  27
ENDBRANCH  10  23
ENDBRANCH   1  18
BRANCH   3  28
ATOM     28  C   UNL     1      -6.769  -6.785   3.205  0.00  0.00    +0.163 C 
BRANCH  28  29
ATOM     29  C   UNL     1      -7.065  -7.375   1.825  0.00  0.00    +0.250 C 
BRANCH  29  30
ATOM     30  O   UNL     1      -7.478  -8.736   1.967  0.00  0.00    -0.490 OA
BRANCH  30  31
ATOM     31  C   UNL     1      -7.782  -9.411   0.827  0.00  0.00    +0.123 A 
ATOM     32  C   UNL     1      -7.678  -8.779  -0.403  0.00  0.00    +0.046 A 
ATOM     33  C   UNL     1      -7.987  -9.467  -1.560  0.00  0.00    +0.004 A 
ATOM     34  C   UNL     1      -8.399 -10.785  -1.493  0.00  0.00    +0.000 A 
ATOM     35  C   UNL     1      -8.503 -11.418  -0.268  0.00  0.00    +0.007 A 
ATOM     36  C   UNL     1      -8.190 -10.735   0.892  0.00  0.00    -0.009 A 
ATOM     37  C   UNL     1      -8.298 -11.427   2.227  0.00  0.00    +0.047 C 
ENDBRANCH  30  31
ENDBRANCH  29  30
ENDBRANCH  28  29
ENDBRANCH   3  28
TORSDOF 7
