REMARK  Name = ZINC03840653
REMARK  10 active torsions:
REMARK  status: ('A' for Active; 'I' for Inactive)
REMARK    1  A    between atoms: C_1  and  C_2
REMARK    2  A    between atoms: C_7  and  C_9
REMARK    3  A    between atoms: C_9  and  S_10
REMARK    4  A    between atoms: S_10  and  C_11
REMARK    5  A    between atoms: C_18  and  C_39
REMARK    6  A    between atoms: C_21  and  O_38
REMARK    7  A    between atoms: C_23  and  C_27
REMARK    8  A    between atoms: C_27  and  C_29
REMARK    9  A    between atoms: C_27  and  C_30
REMARK   10  A    between atoms: C_37  and  N_74
REMARK                            x       y       z     vdW  Elec       q    Type
REMARK                         _______ _______ _______ _____ _____    ______ ____
ROOT
ATOM      1  C   UNL     1      -0.943   4.673  -7.292  0.00  0.00    +0.014 C 
ATOM      2  C   UNL     1      -1.028   6.165  -6.965  0.00  0.00    +0.042 C 
ATOM      3  C   UNL     1      -0.750   6.976  -8.222  0.00  0.00    +0.055 A 
ATOM      4  C   UNL     1       0.022   8.093  -8.155  0.00  0.00    +0.014 A 
ATOM      5  S   UNL     1       0.035   8.654  -9.837  0.00  0.00    -0.076 S 
ATOM      6  C   UNL     1      -0.963   7.388 -10.489  0.00  0.00    +0.089 A 
ATOM      7  N   UNL     1      -1.221   6.666  -9.425  0.00  0.00    -0.248 NA
ATOM      8  C   UNL     1       0.680   8.674  -6.955  0.00  0.00    +0.051 C 
ATOM      9  C   UNL     1       0.087   8.028  -5.688  0.00  0.00    -0.022 C 
ATOM     10  C   UNL     1       0.010   6.513  -5.890  0.00  0.00    +0.033 C 
ATOM     11  C   UNL     1      -0.427   5.829  -4.591  0.00  0.00    +0.123 C 
ATOM     12  C   UNL     1       0.538   6.171  -3.458  0.00  0.00    +0.029 C 
ATOM     13  C   UNL     1       0.526   7.688  -3.243  0.00  0.00    +0.007 C 
ATOM     14  C   UNL     1       1.023   8.360  -4.522  0.00  0.00    +0.008 C 
ATOM     15  C   UNL     1      -1.312   8.592  -5.429  0.00  0.00    +0.012 C 
ENDROOT
BRANCH  12  16
ATOM     16  C   UNL     1       0.092   5.468  -2.174  0.00  0.00    +0.078 C 
ATOM     17  C   UNL     1      -1.285   5.990  -1.759  0.00  0.00    +0.017 C 
BRANCH  16  18
ATOM     18  C   UNL     1       1.087   5.747  -1.077  0.00  0.00    +0.219 C 
ATOM     19  O   UNL     1       0.872   6.630  -0.274  0.00  0.00    -0.275 OA
ATOM     20  N   UNL     1       2.215   5.015  -0.989  0.00  0.00    -0.305 N 
ATOM     21  C   UNL     1       3.251   5.341   0.003  0.00  0.00    +0.089 C 
ATOM     22  C   UNL     1       3.595   4.068   0.783  0.00  0.00    -0.060 C 
ATOM     23  C   UNL     1       2.820   2.654  -1.028  0.00  0.00    -0.060 C 
ATOM     24  C   UNL     1       2.443   3.869  -1.882  0.00  0.00    +0.089 C 
ATOM     25  C   UNL     1       4.455   1.817   0.550  0.00  0.00    -0.096 C 
ATOM     26  N   UNL     1       3.977   3.010  -0.178  0.00  0.00    +0.380 N 
ATOM     27  H   UNL     1       4.734   3.362  -0.776  0.00  0.00    -0.082 HD
ENDBRANCH  16  18
ENDBRANCH  12  16
BRANCH  11  28
ATOM     28  O   UNL     1      -0.445   4.413  -4.785  0.00  0.00    -0.391 OA
ATOM     29  H   UNL     1      -0.806   3.918  -4.037  0.00  0.00    +0.210 HD
ENDBRANCH  11  28
BRANCH   6  30
ATOM     30  C   UNL     1      -1.416   7.176 -11.910  0.00  0.00    +0.137 C 
BRANCH  30  31
ATOM     31  S   UNL     1      -2.992   8.034 -12.177  0.00  0.00    -0.118 S 
BRANCH  31  32
ATOM     32  C   UNL     1      -3.382   7.694 -13.862  0.00  0.00    +0.008 A 
ATOM     33  C   UNL     1      -2.523   6.921 -14.633  0.00  0.00    +0.015 A 
ATOM     34  C   UNL     1      -2.835   6.652 -15.951  0.00  0.00    +0.001 A 
ATOM     35  C   UNL     1      -3.995   7.160 -16.507  0.00  0.00    +0.000 A 
ATOM     36  C   UNL     1      -4.849   7.935 -15.744  0.00  0.00    +0.001 A 
ATOM     37  C   UNL     1      -4.546   8.204 -14.423  0.00  0.00    +0.015 A 
ENDBRANCH  31  32
ENDBRANCH  30  31
ENDBRANCH   6  30
TORSDOF 6
