REMARK  Name = ZINC65474579
REMARK  8 active torsions:
REMARK  status: ('A' for Active; 'I' for Inactive)
REMARK    1  A    between atoms: C_1  and  C_2
REMARK    2  A    between atoms: C_2  and  C_3
REMARK    3  A    between atoms: C_2  and  C_4
REMARK    4  A    between atoms: C_2  and  C_5
REMARK    5  A    between atoms: C_11  and  N_13
REMARK    6  A    between atoms: C_14  and  C_16
REMARK    7  A    between atoms: C_19  and  C_21
REMARK    8  A    between atoms: N_24  and  C_26
REMARK                            x       y       z     vdW  Elec       q    Type
REMARK                         _______ _______ _______ _____ _____    ______ ____
ROOT
ATOM      1  N   UNL     1       2.560  -1.332  -0.229  0.00  0.00    -0.307 N 
ATOM      2  C   UNL     1       3.774  -0.902   0.169  0.00  0.00    +0.263 C 
ATOM      3  O   UNL     1       4.340  -0.022  -0.450  0.00  0.00    -0.269 OA
ATOM      4  H   UNL     1       2.109  -2.034   0.265  0.00  0.00    +0.149 HD
ENDROOT
BRANCH   1  10
ATOM      5  C   UNL     1       0.403  -0.761  -1.230  0.00  0.00    +0.015 C 
ATOM      6  C   UNL     1      -0.070  -2.206  -1.068  0.00  0.00    +0.006 C 
ATOM      7  C   UNL     1       0.310  -3.010  -2.313  0.00  0.00    +0.000 C 
ATOM      8  C   UNL     1       1.829  -2.989  -2.490  0.00  0.00    +0.002 C 
ATOM      9  C   UNL     1       2.303  -1.543  -2.652  0.00  0.00    +0.022 C 
ATOM     10  C   UNL     1       1.923  -0.739  -1.407  0.00  0.00    +0.077 C 
BRANCH   5  12
ATOM     11  C   UNL     1       0.637   1.442  -0.074  0.00  0.00    +0.011 C 
ATOM     12  C   UNL     1       0.023   0.043   0.015  0.00  0.00    -0.033 C 
ATOM     13  C   UNL     1       0.552  -0.667   1.262  0.00  0.00    +0.011 C 
ATOM     14  C   UNL     1      -1.500   0.160   0.101  0.00  0.00    +0.011 C 
ENDBRANCH   5  12
ENDBRANCH   1  10
BRANCH   2  15
ATOM     15  C   UNL     1       4.415  -1.499   1.353  0.00  0.00    +0.133 A 
ATOM     16  C   UNL     1       5.645  -1.066   1.768  0.00  0.00    +0.080 A 
ATOM     17  S   UNL     1       5.933  -2.028   3.119  0.00  0.00    -0.075 S 
ATOM     18  C   UNL     1       4.418  -2.970   3.088  0.00  0.00    +0.112 A 
ATOM     19  N   UNL     1       3.805  -2.460   2.036  0.00  0.00    -0.234 NA
BRANCH  18  20
ATOM     20  C   UNL     1       3.966  -4.039   4.006  0.00  0.00    +0.045 A 
ATOM     21  C   UNL     1       2.752  -4.752   3.921  0.00  0.00    +0.145 A 
ATOM     22  N   UNL     1       2.716  -5.609   4.906  0.00  0.00    -0.179 NA
ATOM     23  N   UNL     1       3.894  -5.481   5.652  0.00  0.00    -0.274 N 
ATOM     24  C   UNL     1       4.650  -4.520   5.086  0.00  0.00    +0.118 A 
ATOM     25  C   UNL     1       4.245  -6.261   6.841  0.00  0.00    +0.172 C 
ENDBRANCH  18  20
ENDBRANCH   2  15
TORSDOF 4
