REMARK  Name = ZINC13983636
REMARK  12 active torsions:
REMARK  status: ('A' for Active; 'I' for Inactive)
REMARK    1  A    between atoms: C_1  and  C_2
REMARK    2  A    between atoms: C_2  and  C_3
REMARK    3  A    between atoms: C_3  and  C_5
REMARK    4  A    between atoms: C_3  and  C_6
REMARK    5  A    between atoms: C_9  and  O_12
REMARK    6  A    between atoms: O_12  and  C_13
REMARK    7  A    between atoms: C_13  and  C_14
REMARK    8  A    between atoms: N_16  and  N_17
REMARK    9  A    between atoms: N_17  and  C_18
REMARK   10  A    between atoms: C_18  and  N_20
REMARK   11  A    between atoms: C_21  and  C_23
REMARK   12  A    between atoms: C_23  and  C_24
REMARK                            x       y       z     vdW  Elec       q    Type
REMARK                         _______ _______ _______ _____ _____    ______ ____
ROOT
ATOM      1  N   UNL     1      -4.922   5.495  10.230  0.00  0.00    -0.245 N 
ATOM      2  H   UNL     1      -5.193   4.723  10.751  0.00  0.00    +0.172 HD
ENDROOT
BRANCH   1   5
ATOM      3  C   UNL     1      -3.871   4.080   8.629  0.00  0.00    +0.267 C 
ATOM      4  O   UNL     1      -4.210   3.115   9.280  0.00  0.00    -0.271 OA
ATOM      5  N   UNL     1      -4.194   5.321   9.046  0.00  0.00    -0.232 N 
ATOM      6  H   UNL     1      -3.923   6.093   8.525  0.00  0.00    +0.173 HD
BRANCH   3   7
ATOM      7  C   UNL     1      -3.089   3.893   7.355  0.00  0.00    +0.326 C 
BRANCH   7   8
ATOM      8  O   UNL     1      -2.873   2.498   7.130  0.00  0.00    -0.483 OA
BRANCH   8  12
ATOM      9  C   UNL     1      -0.761   1.454   3.743  0.00  0.00    -0.044 A 
ATOM     10  C   UNL     1      -1.000   2.786   4.024  0.00  0.00    +0.007 A 
ATOM     11  C   UNL     1      -1.712   3.138   5.154  0.00  0.00    +0.046 A 
ATOM     12  C   UNL     1      -2.177   2.154   6.014  0.00  0.00    +0.121 A 
ATOM     13  C   UNL     1      -1.931   0.818   5.733  0.00  0.00    +0.046 A 
ATOM     14  C   UNL     1      -1.223   0.471   4.598  0.00  0.00    +0.007 A 
BRANCH   9  15
ATOM     15  C   UNL     1       0.011   1.072   2.506  0.00  0.00    +0.016 C 
ATOM     16  C   UNL     1       1.405   1.701   2.561  0.00  0.00    +0.012 C 
BRANCH  15  18
ATOM     17  C   UNL     1      -0.013   1.086   0.008  0.00  0.00    +0.004 C 
ATOM     18  C   UNL     1      -0.729   1.579   1.267  0.00  0.00    +0.004 C 
ENDBRANCH  15  18
ENDBRANCH   9  15
ENDBRANCH   8  12
ENDBRANCH   7   8
ENDBRANCH   3   7
ENDBRANCH   1   5
BRANCH   1  19
ATOM     19  C   UNL     1      -5.245   6.735  10.646  0.00  0.00    +0.153 C 
ATOM     20  S   UNL     1      -6.133   6.948  12.094  0.00  0.00    -0.017 S 
BRANCH  19  21
ATOM     21  N   UNL     1      -4.868   7.808   9.923  0.00  0.00    -0.266 N 
ATOM     22  C   UNL     1      -5.191   9.049  10.339  0.00  0.00    +0.223 C 
ATOM     23  O   UNL     1      -5.821   9.200  11.364  0.00  0.00    -0.275 OA
ATOM     24  H   UNL     1      -4.365   7.688   9.103  0.00  0.00    +0.157 HD
BRANCH  22  25
ATOM     25  C   UNL     1      -4.770  10.248   9.530  0.00  0.00    +0.131 C 
BRANCH  25  26
ATOM     26  C   UNL     1      -5.252  11.505  10.207  0.00  0.00    -0.031 A 
ATOM     27  C   UNL     1      -6.431  12.075   9.834  0.00  0.00    +0.005 A 
ATOM     28  C   UNL     1      -6.893  13.237  10.448  0.00  0.00    +0.001 A 
ATOM     29  C   UNL     1      -6.179  13.836  11.440  0.00  0.00    +0.008 A 
ATOM     30  C   UNL     1      -4.958  13.277  11.853  0.00  0.00    -0.018 A 
ATOM     31  C   UNL     1      -4.490  12.092  11.232  0.00  0.00    -0.014 A 
ATOM     32  C   UNL     1      -3.267  11.536  11.642  0.00  0.00    +0.009 A 
ATOM     33  C   UNL     1      -2.553  12.135  12.633  0.00  0.00    +0.001 A 
ATOM     34  C   UNL     1      -3.015  13.298  13.248  0.00  0.00    +0.001 A 
ATOM     35  C   UNL     1      -4.193  13.867  12.874  0.00  0.00    +0.008 A 
ENDBRANCH  25  26
ENDBRANCH  22  25
ENDBRANCH  19  21
ENDBRANCH   1  19
TORSDOF 10
