REMARK  Name = ZINC36628748
REMARK  10 active torsions:
REMARK  status: ('A' for Active; 'I' for Inactive)
REMARK    1  A    between atoms: C_1  and  C_2
REMARK    2  A    between atoms: C_2  and  C_3
REMARK    3  A    between atoms: C_3  and  N_4
REMARK    4  A    between atoms: C_10  and  N_15
REMARK    5  A    between atoms: C_11  and  C_12
REMARK    6  A    between atoms: C_16  and  C_18
REMARK    7  A    between atoms: C_18  and  C_19
REMARK    8  A    between atoms: C_18  and  C_20
REMARK    9  A    between atoms: C_18  and  O_21
REMARK   10  A    between atoms: O_21  and  C_22
REMARK                            x       y       z     vdW  Elec       q    Type
REMARK                         _______ _______ _______ _____ _____    ______ ____
ROOT
ATOM      1  N   UNL     1       2.498  -3.406  -1.689  0.00  0.00    +0.383 N 
ATOM      2  C   UNL     1       3.197  -4.202  -2.707  0.00  0.00    -0.074 C 
ATOM      3  C   UNL     1       3.095  -5.694  -2.374  0.00  0.00    +0.018 C 
ATOM      4  C   UNL     1       1.626  -6.023  -2.148  0.00  0.00    -0.027 A 
ATOM      5  C   UNL     1       0.735  -5.031  -1.917  0.00  0.00    -0.021 A 
ATOM      6  S   UNL     1      -0.813  -5.859  -1.720  0.00  0.00    -0.079 S 
ATOM      7  C   UNL     1      -0.316  -7.450  -1.929  0.00  0.00    +0.084 A 
ATOM      8  C   UNL     1       1.049  -7.352  -2.154  0.00  0.00    +0.068 A 
ATOM      9  C   UNL     1       1.041  -3.568  -1.848  0.00  0.00    -0.035 C 
ATOM     10  H   UNL     1       2.772  -3.721  -0.771  0.00  0.00    -0.081 HD
ENDROOT
BRANCH   8  11
ATOM     11  C   UNL     1       1.873  -8.542  -2.387  0.00  0.00    +0.244 C 
ATOM     12  O   UNL     1       2.391  -9.117  -1.448  0.00  0.00    -0.270 OA
ATOM     13  N   UNL     1       2.057  -9.000  -3.641  0.00  0.00    -0.325 N 
ATOM     14  H   UNL     1       1.644  -8.541  -4.390  0.00  0.00    +0.145 HD
ATOM     15  H   UNL     1       2.602  -9.787  -3.796  0.00  0.00    +0.145 HD
ENDBRANCH   8  11
BRANCH   7  16
ATOM     16  N   UNL     1      -1.093  -8.598  -1.887  0.00  0.00    -0.276 N 
ATOM     17  C   UNL     1      -2.418  -8.507  -1.655  0.00  0.00    +0.261 C 
ATOM     18  O   UNL     1      -2.930  -7.422  -1.483  0.00  0.00    -0.271 OA
ATOM     19  H   UNL     1      -0.683  -9.466  -2.025  0.00  0.00    +0.155 HD
BRANCH  17  20
ATOM     20  C   UNL     1      -3.262  -9.755  -1.610  0.00  0.00    +0.180 C 
ATOM     21  C   UNL     1      -3.171 -10.482  -2.953  0.00  0.00    +0.065 C 
ATOM     22  C   UNL     1      -2.754 -10.674  -0.497  0.00  0.00    +0.065 C 
BRANCH  20  23
ATOM     23  O   UNL     1      -4.622  -9.401  -1.351  0.00  0.00    -0.477 OA
BRANCH  23  24
ATOM     24  C   UNL     1      -4.881  -8.761  -0.180  0.00  0.00    +0.122 A 
ATOM     25  C   UNL     1      -3.836  -8.367   0.642  0.00  0.00    +0.047 A 
ATOM     26  C   UNL     1      -4.101  -7.718   1.833  0.00  0.00    +0.023 A 
ATOM     27  C   UNL     1      -5.409  -7.461   2.205  0.00  0.00    +0.041 A 
ATOM     28  C   UNL     1      -6.453  -7.854   1.386  0.00  0.00    +0.023 A 
ATOM     29  C   UNL     1      -6.191  -8.498   0.192  0.00  0.00    +0.047 A 
ATOM     30 CL   UNL     1      -5.739  -6.646   3.701  0.00  0.00    -0.084 Cl
ENDBRANCH  23  24
ENDBRANCH  20  23
ENDBRANCH  17  20
ENDBRANCH   7  16
BRANCH   1  31
ATOM     31  C   UNL     1       2.853  -1.990  -1.847  0.00  0.00    -0.079 C 
BRANCH  31  33
ATOM     32  C   UNL     1       2.598   0.298  -0.874  0.00  0.00    +0.002 C 
ATOM     33  C   UNL     1       2.228  -1.178  -0.710  0.00  0.00    -0.022 C 
ENDBRANCH  31  33
ENDBRANCH   1  31
TORSDOF 7
