REMARK  Name = ZINC36698954
REMARK  9 active torsions:
REMARK  status: ('A' for Active; 'I' for Inactive)
REMARK    1  A    between atoms: C_1  and  C_2
REMARK    2  A    between atoms: C_7  and  C_8
REMARK    3  A    between atoms: N_12  and  C_13
REMARK    4  A    between atoms: C_13  and  C_14
REMARK    5  A    between atoms: C_14  and  C_15
REMARK    6  A    between atoms: C_15  and  N_16
REMARK    7  A    between atoms: N_16  and  C_17
REMARK    8  A    between atoms: N_16  and  C_18
REMARK    9  A    between atoms: C_19  and  C_21
REMARK                            x       y       z     vdW  Elec       q    Type
REMARK                         _______ _______ _______ _____ _____    ______ ____
ROOT
ATOM      1  C   UNL     1       0.445   1.440   0.193  0.00  0.00    +0.044 C 
ATOM      2  C   UNL     1       0.322  -0.061   0.146  0.00  0.00    -0.045 A 
ATOM      3  C   UNL     1       0.389  -0.701  -1.064  0.00  0.00    +0.032 A 
ATOM      4  C   UNL     1       0.278  -2.108  -1.144  0.00  0.00    +0.081 A 
ATOM      5  C   UNL     1       0.098  -2.791   0.081  0.00  0.00    +0.041 A 
ATOM      6  C   UNL     1       0.032  -2.142   1.288  0.00  0.00    +0.021 A 
ATOM      7  C   UNL     1       0.150  -0.764   1.329  0.00  0.00    -0.046 A 
ATOM      8  C   UNL     1       0.086  -0.034   2.646  0.00  0.00    +0.044 C 
ATOM      9  S   UNL     1       0.007  -4.487  -0.441  0.00  0.00    -0.052 S 
ATOM     10  C   UNL     1       0.206  -4.194  -2.193  0.00  0.00    +0.168 A 
ATOM     11  N   UNL     1       0.322  -2.887  -2.247  0.00  0.00    -0.224 NA
ATOM     12  N   UNL     1       0.232  -5.111  -3.229  0.00  0.00    -0.246 N 
ATOM     13  C   UNL     1       0.095  -6.426  -2.968  0.00  0.00    +0.259 C 
ATOM     14  O   UNL     1      -0.144  -6.800  -1.836  0.00  0.00    -0.269 OA
ENDROOT
BRANCH  13  15
ATOM     15  C   UNL     1       0.234  -7.409  -4.053  0.00  0.00    +0.122 A 
ATOM     16  C   UNL     1      -0.800  -7.646  -4.957  0.00  0.00    +0.032 A 
ATOM     17  C   UNL     1      -0.601  -8.626  -5.949  0.00  0.00    +0.026 A 
ATOM     18  C   UNL     1      -1.546  -8.776  -7.058  0.00  0.00    -0.007 A 
ATOM     19  C   UNL     1      -2.684  -7.973  -7.164  0.00  0.00    +0.009 A 
ATOM     20  C   UNL     1      -3.538  -8.146  -8.215  0.00  0.00    +0.001 A 
ATOM     21  C   UNL     1      -3.290  -9.114  -9.183  0.00  0.00    +0.001 A 
ATOM     22  C   UNL     1      -2.189  -9.913  -9.108  0.00  0.00    +0.008 A 
ATOM     23  C   UNL     1      -1.290  -9.761  -8.041  0.00  0.00    -0.017 A 
ATOM     24  C   UNL     1      -0.141 -10.569  -7.932  0.00  0.00    +0.012 A 
ATOM     25  C   UNL     1       0.722 -10.427  -6.894  0.00  0.00    +0.047 A 
ATOM     26  C   UNL     1       0.515  -9.475  -5.892  0.00  0.00    +0.140 A 
ATOM     27  O   UNL     1       1.377  -9.386  -4.852  0.00  0.00    -0.422 OA
ATOM     28  C   UNL     1       1.474  -8.182  -4.236  0.00  0.00    +0.350 A 
ATOM     29  O   UNL     1       2.545  -7.757  -3.845  0.00  0.00    -0.244 OA
ENDBRANCH  13  15
BRANCH  12  30
ATOM     30  C   UNL     1       0.409  -4.652  -4.609  0.00  0.00    +0.114 C 
BRANCH  30  31
ATOM     31  C   UNL     1       1.902  -4.512  -4.913  0.00  0.00    +0.001 C 
BRANCH  31  32
ATOM     32  C   UNL     1       2.086  -4.033  -6.354  0.00  0.00    -0.078 C 
BRANCH  32  33
ATOM     33  N   UNL     1       3.520  -3.898  -6.646  0.00  0.00    +0.376 N 
ATOM     34  C   UNL     1       3.701  -3.555  -8.063  0.00  0.00    -0.097 C 
ATOM     35  C   UNL     1       4.092  -2.837  -5.807  0.00  0.00    -0.097 C 
ATOM     36  H   UNL     1       3.986  -4.771  -6.449  0.00  0.00    -0.083 HD
ENDBRANCH  32  33
ENDBRANCH  31  32
ENDBRANCH  30  31
ENDBRANCH  12  30
TORSDOF 5
