REMARK  Name = ZINC09711921
REMARK  9 active torsions:
REMARK  status: ('A' for Active; 'I' for Inactive)
REMARK    1  A    between atoms: C_1  and  C_2
REMARK    2  A    between atoms: C_3  and  C_34
REMARK    3  A    between atoms: N_4  and  C_27
REMARK    4  A    between atoms: C_5  and  N_9
REMARK    5  A    between atoms: C_6  and  C_7
REMARK    6  A    between atoms: C_10  and  C_12
REMARK    7  A    between atoms: C_12  and  N_61
REMARK    8  A    between atoms: C_20  and  C_22
REMARK    9  A    between atoms: C_27  and  C_28
REMARK                            x       y       z     vdW  Elec       q    Type
REMARK                         _______ _______ _______ _____ _____    ______ ____
ROOT
ATOM      1  N   UNL     1      -0.008   2.892  -4.103  0.00  0.00    -0.272 N 
ATOM      2  C   UNL     1       0.706   3.064  -2.973  0.00  0.00    +0.202 C 
ATOM      3  O   UNL     1       0.150   3.046  -1.896  0.00  0.00    -0.278 OA
ATOM      4  H   UNL     1       0.428   2.956  -4.967  0.00  0.00    +0.156 HD
ENDROOT
BRANCH   1   9
ATOM      5  C   UNL     1      -4.994   3.300  -3.385  0.00  0.00    +0.047 C 
ATOM      6  C   UNL     1      -3.621   2.774  -3.717  0.00  0.00    -0.011 A 
ATOM      7  C   UNL     1      -3.318   1.537  -4.143  0.00  0.00    +0.022 A 
ATOM      8  N   UNL     1      -1.966   1.443  -4.337  0.00  0.00    -0.329 N 
ATOM      9  C   UNL     1      -1.367   2.623  -4.031  0.00  0.00    +0.123 A 
ATOM     10  C   UNL     1      -2.356   3.514  -3.637  0.00  0.00    +0.095 A 
ATOM     11  C   UNL     1      -4.311   0.427  -4.374  0.00  0.00    +0.064 C 
BRANCH  10  12
ATOM     12  C   UNL     1      -2.177   4.875  -3.229  0.00  0.00    +0.103 C 
ATOM     13  N   UNL     1      -2.036   5.955  -2.906  0.00  0.00    -0.191 NA
ENDBRANCH  10  12
BRANCH   8  14
ATOM     14  C   UNL     1      -1.266   0.243  -4.800  0.00  0.00    +0.154 C 
BRANCH  14  15
ATOM     15  C   UNL     1      -1.207   0.244  -6.329  0.00  0.00    +0.138 C 
ATOM     16  C   UNL     1      -0.487  -1.028  -6.843  0.00  0.00    +0.035 C 
ATOM     17  C   UNL     1       0.025  -0.539  -8.227  0.00  0.00    +0.031 C 
ATOM     18  C   UNL     1       0.339   0.947  -7.952  0.00  0.00    +0.160 C 
ATOM     19  O   UNL     1      -0.408   1.343  -6.795  0.00  0.00    -0.375 OA
ENDBRANCH  14  15
ENDBRANCH   8  14
ENDBRANCH   1   9
BRANCH   2  20
ATOM     20  C   UNL     1       2.196   3.279  -3.049  0.00  0.00    +0.020 C 
BRANCH  20  29
ATOM     21  C   UNL     1       2.506   2.457  -0.792  0.00  0.00    -0.072 C 
ATOM     22  C   UNL     1       3.407   2.647   0.441  0.00  0.00    +0.024 C 
ATOM     23  C   UNL     1       3.256   4.061   0.900  0.00  0.00    -0.010 A 
ATOM     24  C   UNL     1       2.688   5.086   0.205  0.00  0.00    -0.046 A 
ATOM     25  C   UNL     1       2.657   6.326   0.840  0.00  0.00    +0.010 A 
ATOM     26  C   UNL     1       3.177   6.463   2.082  0.00  0.00    +0.045 A 
ATOM     27  S   UNL     1       3.750   4.806   2.428  0.00  0.00    -0.101 S 
ATOM     28  C   UNL     1       2.132   4.832  -1.193  0.00  0.00    +0.002 C 
ATOM     29  N   UNL     1       2.749   3.591  -1.717  0.00  0.00    +0.393 N 
ATOM     30  H   UNL     1       3.762   3.736  -1.803  0.00  0.00    -0.080 HD
BRANCH  28  31
ATOM     31  C   UNL     1       2.501   5.977  -2.100  0.00  0.00    -0.019 A 
ATOM     32  C   UNL     1       1.740   7.021  -2.509  0.00  0.00    +0.010 A 
ATOM     33  C   UNL     1       2.296   7.967  -3.350  0.00  0.00    +0.008 A 
ATOM     34  C   UNL     1       3.583   7.818  -3.748  0.00  0.00    +0.045 A 
ATOM     35  S   UNL     1       4.052   6.307  -2.920  0.00  0.00    -0.103 S 
ENDBRANCH  28  31
ENDBRANCH  20  29
ENDBRANCH   2  20
TORSDOF 7
