REMARK  Name = ZINC48820243
REMARK  4 active torsions:
REMARK  status: ('A' for Active; 'I' for Inactive)
REMARK    1  A    between atoms: C_5  and  C_7
REMARK    2  A    between atoms: C_7  and  N_8
REMARK    3  A    between atoms: N_8  and  C_9
REMARK    4  A    between atoms: C_9  and  C_10
REMARK                            x       y       z     vdW  Elec       q    Type
REMARK                         _______ _______ _______ _____ _____    ______ ____
ROOT
ATOM      1  C   UNL     1       1.509  -4.149   1.328  0.00  0.00    -0.046 C 
ENDROOT
BRANCH   1   2
ATOM      2  C   UNL     1       1.776  -4.656   2.722  0.00  0.00    -0.061 A 
ATOM      3  C   UNL     1       3.076  -4.865   3.142  0.00  0.00    +0.005 A 
ATOM      4  C   UNL     1       3.329  -5.330   4.420  0.00  0.00    +0.049 A 
ATOM      5  C   UNL     1       2.274  -5.585   5.279  0.00  0.00    +0.162 A 
ATOM      6  C   UNL     1       0.969  -5.375   4.858  0.00  0.00    +0.162 A 
ATOM      7  C   UNL     1       0.719  -4.905   3.579  0.00  0.00    +0.051 A 
ATOM      8  O   UNL     1      -0.065  -5.628   5.712  0.00  0.00    -0.488 OA
ATOM      9  C   UNL     1      -0.281  -7.002   6.042  0.00  0.00    +0.232 C 
ATOM     10  C   UNL     1       0.624  -7.431   7.186  0.00  0.00    +0.082 C 
ATOM     11  C   UNL     1       2.096  -7.384   6.808  0.00  0.00    +0.232 C 
ATOM     12  O   UNL     1       2.509  -6.042   6.543  0.00  0.00    -0.488 OA
ENDBRANCH   1   2
BRANCH   1  13
ATOM     13  N   UNL     1       1.489  -2.680   1.337  0.00  0.00    +0.384 N 
ATOM     14  H   UNL     1       2.381  -2.334   1.655  0.00  0.00    -0.085 HD
ATOM     15  H   UNL     1       0.762  -2.357   1.957  0.00  0.00    -0.085 HD
BRANCH  13  16
ATOM     16  C   UNL     1       1.229  -2.186  -0.022  0.00  0.00    -0.045 C 
BRANCH  16  21
ATOM     17  C   UNL     1      -0.017   1.378   0.010  0.00  0.00    +0.000 A 
ATOM     18  C   UNL     1       1.171   2.086   0.002  0.00  0.00    +0.001 A 
ATOM     19  C   UNL     1       2.377   1.412  -0.013  0.00  0.00    +0.015 A 
ATOM     20  C   UNL     1       2.397   0.029  -0.021  0.00  0.00    +0.019 A 
ATOM     21  C   UNL     1       1.208  -0.679  -0.013  0.00  0.00    -0.050 A 
ATOM     22  C   UNL     1       0.002  -0.004   0.002  0.00  0.00    +0.003 A 
ATOM     23 BR   UNL     1       4.047  -0.894  -0.042  0.00  0.00    -0.050 Br
ENDBRANCH  16  21
ENDBRANCH  13  16
ENDBRANCH   1  13
TORSDOF 4
