REMARK  Name = ZINC05370108
REMARK  5 active torsions:
REMARK  status: ('A' for Active; 'I' for Inactive)
REMARK    1  A    between atoms: C_1  and  C_2
REMARK    2  A    between atoms: C_4  and  C_15
REMARK    3  A    between atoms: C_6  and  S_11
REMARK    4  A    between atoms: N_9  and  C_10
REMARK    5  A    between atoms: S_11  and  C_14
REMARK                            x       y       z     vdW  Elec       q    Type
REMARK                         _______ _______ _______ _____ _____    ______ ____
ROOT
ATOM      1  C   UNL     1      -5.158   3.271   2.106  0.00  0.00    +0.026 C 
ATOM      2  C   UNL     1      -4.864   1.788   1.872  0.00  0.00    +0.075 C 
ATOM      3  C   UNL     1      -3.477   1.482   2.420  0.00  0.00    +0.072 C 
ATOM      4  C   UNL     1      -2.517   0.949   1.329  0.00  0.00    +0.211 C 
ATOM      5  S   UNL     1      -3.362   1.569  -0.190  0.00  0.00    -0.051 S 
ATOM      6  N   UNL     1      -5.045   1.498   0.431  0.00  0.00    -0.248 NA
ATOM      7  C   UNL     1      -5.886   2.518  -0.209  0.00  0.00    +0.118 C 
ENDROOT
BRANCH   3   8
ATOM      8  C   UNL     1      -3.600   0.449   3.510  0.00  0.00    -0.040 A 
ATOM      9  C   UNL     1      -4.060  -0.820   3.212  0.00  0.00    +0.004 A 
ATOM     10  C   UNL     1      -4.168  -1.769   4.211  0.00  0.00    +0.000 A 
ATOM     11  C   UNL     1      -3.825  -1.446   5.511  0.00  0.00    +0.000 A 
ATOM     12  C   UNL     1      -3.370  -0.176   5.810  0.00  0.00    +0.000 A 
ATOM     13  C   UNL     1      -3.257   0.772   4.810  0.00  0.00    +0.004 A 
ENDBRANCH   3   8
BRANCH   4  14
ATOM     14  S   UNL     1      -0.862   1.671   1.500  0.00  0.00    -0.020 S 
ATOM     15  O   UNL     1      -0.232   1.088   2.633  0.00  0.00    -0.174 OA
ATOM     16  O   UNL     1      -0.978   3.085   1.426  0.00  0.00    -0.174 OA
ATOM     17  C   UNL     1      -0.013   1.086   0.008  0.00  0.00    +0.195 C 
ENDBRANCH   4  14
TORSDOF 2
