REMARK  Name = ZINC12700832
REMARK  7 active torsions:
REMARK  status: ('A' for Active; 'I' for Inactive)
REMARK    1  A    between atoms: C_3  and  C_6
REMARK    2  A    between atoms: C_15  and  C_16
REMARK    3  A    between atoms: C_15  and  N_61
REMARK    4  A    between atoms: N_18  and  C_19
REMARK    5  A    between atoms: C_19  and  C_20
REMARK    6  A    between atoms: C_23  and  S_26
REMARK    7  A    between atoms: S_26  and  N_29
REMARK                            x       y       z     vdW  Elec       q    Type
REMARK                         _______ _______ _______ _____ _____    ______ ____
ROOT
ATOM      1  C   UNL     1       4.077  -0.735   8.393  0.00  0.00    +0.197 C 
ATOM      2  O   UNL     1       5.142  -0.155   8.371  0.00  0.00    -0.278 OA
ATOM      3  N   UNL     1       3.184  -0.542   7.403  0.00  0.00    -0.313 N 
ATOM      4  H   UNL     1       2.333  -1.006   7.420  0.00  0.00    +0.149 HD
ENDROOT
BRANCH   1   5
ATOM      5  C   UNL     1       3.753  -1.672   9.528  0.00  0.00    +0.020 C 
BRANCH   5  14
ATOM      6  C   UNL     1       4.721  -2.802  11.437  0.00  0.00    +0.002 C 
ATOM      7  C   UNL     1       5.904  -2.776  12.401  0.00  0.00    -0.046 A 
ATOM      8  C   UNL     1       6.282  -3.854  13.197  0.00  0.00    +0.010 A 
ATOM      9  C   UNL     1       7.349  -3.745  14.022  0.00  0.00    +0.045 A 
ATOM     10  S   UNL     1       7.888  -2.070  13.710  0.00  0.00    -0.101 S 
ATOM     11  C   UNL     1       6.657  -1.645  12.511  0.00  0.00    -0.010 A 
ATOM     12  C   UNL     1       6.454  -0.363  11.771  0.00  0.00    +0.024 C 
ATOM     13  C   UNL     1       5.056  -0.408  11.130  0.00  0.00    -0.072 C 
ATOM     14  N   UNL     1       4.907  -1.715  10.447  0.00  0.00    +0.393 N 
ATOM     15  H   UNL     1       5.758  -1.904   9.904  0.00  0.00    -0.080 HD
BRANCH   6  18
ATOM     16  C   UNL     1       4.061  -6.322  10.137  0.00  0.00    +0.008 A 
ATOM     17  C   UNL     1       3.915  -5.208  10.943  0.00  0.00    +0.010 A 
ATOM     18  C   UNL     1       4.692  -4.121  10.709  0.00  0.00    -0.019 A 
ATOM     19  S   UNL     1       5.664  -4.656   9.311  0.00  0.00    -0.103 S 
ATOM     20  C   UNL     1       4.976  -6.294   9.137  0.00  0.00    +0.045 A 
ENDBRANCH   6  18
ENDBRANCH   5  14
ENDBRANCH   1   5
BRANCH   3  21
ATOM     21  C   UNL     1       3.499   0.370   6.300  0.00  0.00    +0.139 C 
BRANCH  21  22
ATOM     22  C   UNL     1       2.344   0.407   5.333  0.00  0.00    -0.030 A 
ATOM     23  C   UNL     1       1.331   1.333   5.503  0.00  0.00    +0.007 A 
ATOM     24  C   UNL     1       0.271   1.368   4.615  0.00  0.00    +0.029 A 
ATOM     25  C   UNL     1       0.224   0.478   3.559  0.00  0.00    +0.105 A 
ATOM     26  C   UNL     1       1.234  -0.451   3.393  0.00  0.00    +0.029 A 
ATOM     27  C   UNL     1       2.296  -0.484   4.277  0.00  0.00    +0.007 A 
BRANCH  25  28
ATOM     28  S   UNL     1      -1.127   0.522   2.429  0.00  0.00    +0.061 S 
ATOM     29  O   UNL     1      -2.215   1.118   3.120  0.00  0.00    -0.153 OA
ATOM     30  O   UNL     1      -1.210  -0.770   1.845  0.00  0.00    -0.153 OA
BRANCH  28  31
ATOM     31  N   UNL     1      -0.712   1.565   1.211  0.00  0.00    -0.172 NA
ATOM     32  C   UNL     1      -0.013   1.086   0.008  0.00  0.00    +0.137 C 
ATOM     33  C   UNL     1      -0.764   1.599  -1.226  0.00  0.00    +0.177 C 
ATOM     34  O   UNL     1      -0.940   3.013  -1.115  0.00  0.00    -0.377 OA
ATOM     35  C   UNL     1      -1.734   3.419   0.003  0.00  0.00    +0.177 C 
ATOM     36  C   UNL     1      -1.032   2.999   1.299  0.00  0.00    +0.137 C 
ENDBRANCH  28  31
ENDBRANCH  25  28
ENDBRANCH  21  22
ENDBRANCH   3  21
TORSDOF 7
