REMARK  Name = ZINC66196709
REMARK  10 active torsions:
REMARK  status: ('A' for Active; 'I' for Inactive)
REMARK    1  A    between atoms: C_1  and  C_2
REMARK    2  A    between atoms: C_2  and  C_3
REMARK    3  A    between atoms: C_3  and  C_5
REMARK    4  A    between atoms: C_3  and  N_6
REMARK    5  A    between atoms: N_6  and  C_7
REMARK    6  A    between atoms: N_6  and  C_8
REMARK    7  A    between atoms: C_8  and  C_9
REMARK    8  A    between atoms: C_9  and  N_10
REMARK    9  A    between atoms: C_16  and  C_19
REMARK   10  A    between atoms: C_19  and  N_20
REMARK                            x       y       z     vdW  Elec       q    Type
REMARK                         _______ _______ _______ _____ _____    ______ ____
ROOT
ATOM      1  N   UNL     1       4.095   2.932   0.822  0.00  0.00    -0.301 N 
ATOM      2  C   UNL     1       5.346   3.410   0.670  0.00  0.00    +0.302 C 
ATOM      3  O   UNL     1       6.228   2.684   0.256  0.00  0.00    -0.253 OA
ATOM      4  N   UNL     1       5.618   4.694   0.978  0.00  0.00    -0.286 N 
ATOM      5  C   UNL     1       4.596   5.549   1.597  0.00  0.00    +0.109 C 
ATOM      6  C   UNL     1       4.447   6.823   0.760  0.00  0.00    +0.021 C 
ATOM      7  C   UNL     1       5.815   7.491   0.606  0.00  0.00    -0.025 C 
ATOM      8  C   UNL     1       6.768   6.542  -0.125  0.00  0.00    +0.021 C 
ATOM      9  C   UNL     1       6.946   5.263   0.707  0.00  0.00    +0.109 C 
ATOM     10  H   UNL     1       3.375   3.530   1.078  0.00  0.00    +0.150 HD
ENDROOT
BRANCH   1  11
ATOM     11  C   UNL     1       3.822   1.510   0.600  0.00  0.00    +0.087 C 
BRANCH  11  12
ATOM     12  C   UNL     1       2.336   1.233   0.836  0.00  0.00    -0.060 C 
BRANCH  12  13
ATOM     13  N   UNL     1       2.063  -0.193   0.613  0.00  0.00    +0.381 N 
ATOM     14  C   UNL     1       2.743  -0.989   1.644  0.00  0.00    -0.096 C 
ATOM     15  H   UNL     1       2.402  -0.463  -0.298  0.00  0.00    -0.082 HD
BRANCH  13  16
ATOM     16  C   UNL     1       0.615  -0.432   0.686  0.00  0.00    -0.072 C 
ATOM     17  C   UNL     1       0.106  -0.056   2.079  0.00  0.00    -0.013 C 
BRANCH  16  19
ATOM     18  C   UNL     1       0.758  -2.266  -1.005  0.00  0.00    +0.002 C 
ATOM     19  C   UNL     1       0.328  -1.911   0.420  0.00  0.00    -0.019 C 
ENDBRANCH  16  19
ENDBRANCH  13  16
ENDBRANCH  12  13
ENDBRANCH  11  12
ENDBRANCH   1  11
BRANCH   7  20
ATOM     20  C   UNL     1       5.664   8.782  -0.201  0.00  0.00    -0.075 C 
BRANCH  20  21
ATOM     21  N   UNL     1       6.965   9.459  -0.290  0.00  0.00    +0.380 N 
ATOM     22  C   UNL     1       7.399   9.830   1.071  0.00  0.00    -0.079 C 
ATOM     23  C   UNL     1       8.902   9.949   1.072  0.00  0.00    -0.019 C 
ATOM     24  C   UNL     1       9.352  11.409   0.875  0.00  0.00    -0.002 C 
ATOM     25  C   UNL     1       8.493  12.135  -0.179  0.00  0.00    -0.002 C 
ATOM     26  C   UNL     1       8.193  11.265  -1.373  0.00  0.00    -0.019 C 
ATOM     27  C   UNL     1       6.843  10.552  -1.149  0.00  0.00    -0.079 C 
ATOM     28  H   UNL     1       7.638   8.815  -0.678  0.00  0.00    -0.082 HD
ENDBRANCH  20  21
ENDBRANCH   7  20
TORSDOF 7
