REMARK  Name = ZINC67116627
REMARK  5 active torsions:
REMARK  status: ('A' for Active; 'I' for Inactive)
REMARK    1  A    between atoms: C_4  and  C_7
REMARK    2  A    between atoms: C_7  and  N_8
REMARK    3  A    between atoms: C_12  and  C_15
REMARK    4  A    between atoms: C_15  and  N_16
REMARK    5  A    between atoms: N_16  and  C_17
REMARK                            x       y       z     vdW  Elec       q    Type
REMARK                         _______ _______ _______ _____ _____    ______ ____
ROOT
ATOM      1  N   UNL     1       7.882  -2.499   4.116  0.00  0.00    -0.349 N 
ATOM      2  H   UNL     1       7.329  -2.227   4.865  0.00  0.00    +0.146 HD
ENDROOT
BRANCH   1   3
ATOM      3  C   UNL     1       9.132  -2.984   4.336  0.00  0.00    +0.081 C 
ATOM      4  C   UNL     1       9.668  -2.957   5.604  0.00  0.00    +0.058 C 
ATOM      5  C   UNL     1       9.243  -1.940   6.588  0.00  0.00    +0.000 A 
ATOM      6  C   UNL     1       8.292  -0.974   6.278  0.00  0.00    +0.009 A 
ATOM      7  C   UNL     1       7.929  -0.046   7.232  0.00  0.00    +0.001 A 
ATOM      8  C   UNL     1       8.505  -0.069   8.494  0.00  0.00    +0.001 A 
ATOM      9  C   UNL     1       9.449  -1.018   8.820  0.00  0.00    +0.013 A 
ATOM     10  C   UNL     1       9.830  -1.967   7.870  0.00  0.00    +0.045 A 
ATOM     11  C   UNL     1      10.833  -2.996   8.176  0.00  0.00    +0.251 C 
ATOM     12  O   UNL     1      11.342  -3.024   9.280  0.00  0.00    -0.270 OA
ATOM     13  N   UNL     1      11.195  -3.906   7.258  0.00  0.00    -0.248 N 
ATOM     14  C   UNL     1      10.673  -3.942   6.021  0.00  0.00    +0.252 C 
ATOM     15  O   UNL     1      11.042  -4.796   5.236  0.00  0.00    -0.270 OA
ATOM     16  H   UNL     1      11.861  -4.569   7.500  0.00  0.00    +0.158 HD
ENDBRANCH   1   3
BRANCH   1  17
ATOM     17  C   UNL     1       7.370  -2.387   2.748  0.00  0.00    +0.102 C 
BRANCH  17  22
ATOM     18  N   UNL     1       4.096  -1.042   1.378  0.00  0.00    +0.383 N 
ATOM     19  C   UNL     1       3.182  -2.017   1.985  0.00  0.00    -0.078 C 
ATOM     20  C   UNL     1       3.586  -2.264   3.440  0.00  0.00    -0.018 C 
ATOM     21  C   UNL     1       5.017  -2.808   3.482  0.00  0.00    +0.001 C 
ATOM     22  C   UNL     1       5.950  -1.817   2.780  0.00  0.00    -0.011 C 
ATOM     23  C   UNL     1       5.458  -1.587   1.349  0.00  0.00    -0.073 C 
ATOM     24  H   UNL     1       4.086  -0.192   1.921  0.00  0.00    -0.081 HD
BRANCH  18  25
ATOM     25  C   UNL     1       3.658  -0.750   0.007  0.00  0.00    -0.043 C 
BRANCH  25  29
ATOM     26  C   UNL     1      -0.164   1.156   0.106  0.00  0.00    +0.000 A 
ATOM     27  C   UNL     1       0.990   1.917   0.147  0.00  0.00    +0.000 A 
ATOM     28  C   UNL     1       2.226   1.300   0.116  0.00  0.00    +0.002 A 
ATOM     29  C   UNL     1       2.310  -0.078   0.043  0.00  0.00    -0.064 A 
ATOM     30  C   UNL     1       1.156  -0.839   0.002  0.00  0.00    +0.002 A 
ATOM     31  C   UNL     1      -0.080  -0.222   0.032  0.00  0.00    +0.000 A 
ENDBRANCH  25  29
ENDBRANCH  18  25
ENDBRANCH  17  22
ENDBRANCH   1  17
TORSDOF 5
