REMARK  Name = ZINC00711887
REMARK  3 active torsions:
REMARK  status: ('A' for Active; 'I' for Inactive)
REMARK    1  A    between atoms: C_1  and  O_2
REMARK    2  A    between atoms: O_2  and  C_3
REMARK    3  A    between atoms: C_6  and  C_9
REMARK                            x       y       z     vdW  Elec       q    Type
REMARK                         _______ _______ _______ _____ _____    ______ ____
ROOT
ATOM      1  C   UNL     1      -5.173   0.163   0.794  0.00  0.00    +0.135 C 
ATOM      2  C   UNL     1      -3.928  -0.686   0.864  0.00  0.00    +0.023 C 
ATOM      3  C   UNL     1      -2.684  -0.149   0.732  0.00  0.00    -0.029 C 
ATOM      4  C   UNL     1      -1.473  -0.977   1.086  0.00  0.00    +0.036 C 
ATOM      5  C   UNL     1      -1.851  -2.096   2.060  0.00  0.00    +0.012 C 
ATOM      6  C   UNL     1      -2.937  -2.953   1.399  0.00  0.00    +0.080 C 
ATOM      7  C   UNL     1      -4.115  -2.055   1.130  0.00  0.00    +0.162 C 
ATOM      8  O   UNL     1      -5.237  -2.520   1.140  0.00  0.00    -0.292 OA
ATOM      9  C   UNL     1      -2.516   1.192   0.305  0.00  0.00    +0.007 A 
ATOM     10  C   UNL     1      -1.205   1.795   0.057  0.00  0.00    -0.009 A 
ATOM     11  C   UNL     1      -0.013   1.073   0.008  0.00  0.00    +0.009 A 
ATOM     12  C   UNL     1       1.190   1.726   0.000  0.00  0.00    +0.001 A 
ATOM     13  C   UNL     1       1.252   3.114  -0.046  0.00  0.00    +0.001 A 
ATOM     14  C   UNL     1       0.109   3.850  -0.117  0.00  0.00    +0.008 A 
ATOM     15  C   UNL     1      -1.137   3.203  -0.119  0.00  0.00    -0.017 A 
ATOM     16  C   UNL     1      -2.317   3.943  -0.326  0.00  0.00    +0.010 A 
ATOM     17  C   UNL     1      -3.527   3.342  -0.243  0.00  0.00    +0.024 A 
ATOM     18  C   UNL     1      -3.652   1.988   0.083  0.00  0.00    +0.036 A 
ATOM     19  N   UNL     1      -4.920   1.441   0.144  0.00  0.00    -0.332 N 
ATOM     20  H   UNL     1      -5.666   1.933  -0.266  0.00  0.00    +0.147 HD
ENDROOT
BRANCH   1  24
ATOM     21  C   UNL     1      -6.610   0.868   4.756  0.00  0.00    +0.120 A 
ATOM     22  C   UNL     1      -7.197  -0.111   3.968  0.00  0.00    +0.046 A 
ATOM     23  C   UNL     1      -6.730  -0.338   2.688  0.00  0.00    +0.009 A 
ATOM     24  C   UNL     1      -5.680   0.412   2.191  0.00  0.00    -0.023 A 
ATOM     25  C   UNL     1      -5.090   1.385   2.976  0.00  0.00    +0.009 A 
ATOM     26  C   UNL     1      -5.556   1.619   4.255  0.00  0.00    +0.046 A 
BRANCH  21  28
ATOM     27  C   UNL     1      -6.416   2.117   6.769  0.00  0.00    +0.277 C 
ATOM     28  O   UNL     1      -7.068   1.093   6.016  0.00  0.00    -0.495 OA
ENDBRANCH  21  28
ENDBRANCH   1  24
TORSDOF 2
