REMARK  Name = ZINC39542703
REMARK  6 active torsions:
REMARK  status: ('A' for Active; 'I' for Inactive)
REMARK    1  A    between atoms: C_1  and  C_2
REMARK    2  A    between atoms: C_2  and  O_3
REMARK    3  A    between atoms: O_3  and  C_4
REMARK    4  A    between atoms: C_6  and  C_18
REMARK    5  A    between atoms: N_20  and  C_21
REMARK    6  A    between atoms: C_21  and  C_22
REMARK                            x       y       z     vdW  Elec       q    Type
REMARK                         _______ _______ _______ _____ _____    ______ ____
ROOT
ATOM      1  C   UNL     1       0.712  -1.823   1.361  0.00  0.00    +0.134 C 
ATOM      2  C   UNL     1       1.286  -2.517   2.576  0.00  0.00    +0.107 C 
ATOM      3  C   UNL     1       1.061  -4.015   2.294  0.00  0.00    +0.153 C 
ATOM      4  N   UNL     1       0.368  -4.035   0.995  0.00  0.00    -0.367 NA
ATOM      5  C   UNL     1       0.230  -2.719   0.535  0.00  0.00    +0.113 C 
ATOM      6  N   UNL     1      -0.359  -2.459  -0.727  0.00  0.00    -0.301 N 
ATOM      7  C   UNL     1      -0.081  -3.417  -1.716  0.00  0.00    +0.037 A 
ATOM      8  C   UNL     1      -0.516  -3.212  -3.017  0.00  0.00    +0.023 A 
ATOM      9  C   UNL     1      -0.250  -4.158  -3.988  0.00  0.00    +0.002 A 
ATOM     10  C   UNL     1       0.448  -5.305  -3.657  0.00  0.00    +0.000 A 
ATOM     11  C   UNL     1       0.883  -5.508  -2.362  0.00  0.00    +0.007 A 
ATOM     12  C   UNL     1       0.627  -4.563  -1.382  0.00  0.00    -0.010 A 
ATOM     13  C   UNL     1       1.145  -4.803   0.017  0.00  0.00    +0.124 C 
ATOM     14  H   UNL     1      -0.913  -1.681  -0.895  0.00  0.00    +0.153 HD
ATOM     15  H   UNL     1      -0.546  -4.448   1.104  0.00  0.00    +0.129 HD
ENDROOT
BRANCH   3  16
ATOM     16  C   UNL     1       2.380  -4.739   2.203  0.00  0.00    +0.249 C 
ATOM     17  O   UNL     1       3.384  -4.133   1.894  0.00  0.00    -0.272 OA
ATOM     18  N   UNL     1       2.443  -6.059   2.465  0.00  0.00    -0.208 N 
ATOM     19 CL   UNL     1       1.027  -6.913   2.900  0.00  0.00    +0.004 Cl
BRANCH  18  20
ATOM     20  C   UNL     1       3.725  -6.763   2.376  0.00  0.00    +0.162 C 
BRANCH  20  21
ATOM     21  C   UNL     1       4.572  -6.416   3.574  0.00  0.00    -0.029 A 
ATOM     22  C   UNL     1       5.423  -5.328   3.527  0.00  0.00    +0.005 A 
ATOM     23  C   UNL     1       6.199  -5.010   4.625  0.00  0.00    +0.000 A 
ATOM     24  C   UNL     1       6.125  -5.780   5.771  0.00  0.00    +0.000 A 
ATOM     25  C   UNL     1       5.273  -6.868   5.818  0.00  0.00    +0.000 A 
ATOM     26  C   UNL     1       4.493  -7.183   4.721  0.00  0.00    +0.005 A 
ENDBRANCH  20  21
ENDBRANCH  18  20
ENDBRANCH   3  16
BRANCH   1  27
ATOM     27  O   UNL     1       0.693  -0.477   1.161  0.00  0.00    -0.493 OA
BRANCH  27  29
ATOM     28  C   UNL     1      -0.016   1.528   0.013  0.00  0.00    +0.048 C 
ATOM     29  C   UNL     1      -0.017  -0.002   0.015  0.00  0.00    +0.225 C 
ENDBRANCH  27  29
ENDBRANCH   1  27
TORSDOF 5
