REMARK  Name = ZINC37711322
REMARK  6 active torsions:
REMARK  status: ('A' for Active; 'I' for Inactive)
REMARK    1  A    between atoms: C_1  and  N_2
REMARK    2  A    between atoms: C_6  and  C_7
REMARK    3  A    between atoms: C_7  and  O_8
REMARK    4  A    between atoms: O_8  and  C_9
REMARK    5  A    between atoms: C_10  and  C_17
REMARK    6  A    between atoms: C_17  and  N_18
REMARK                            x       y       z     vdW  Elec       q    Type
REMARK                         _______ _______ _______ _____ _____    ______ ____
ROOT
ATOM      1  C   UNL     1      -1.328   0.291   4.263  0.00  0.00    +0.141 A 
ATOM      2  C   UNL     1      -1.502  -0.573   5.334  0.00  0.00    -0.020 A 
ATOM      3  C   UNL     1      -1.831  -0.071   6.579  0.00  0.00    +0.025 A 
ATOM      4  C   UNL     1      -1.987   1.292   6.758  0.00  0.00    +0.043 A 
ATOM      5  C   UNL     1      -1.814   2.156   5.691  0.00  0.00    +0.043 A 
ATOM      6  C   UNL     1      -1.479   1.659   4.445  0.00  0.00    +0.084 A 
ATOM      7 CL   UNL     1      -1.255   2.743   3.108  0.00  0.00    -0.080 Cl
ATOM      8 CL   UNL     1      -2.401   1.919   8.322  0.00  0.00    -0.083 Cl
ENDROOT
BRANCH   1   9
ATOM      9  O   UNL     1      -1.004  -0.201   3.038  0.00  0.00    -0.483 OA
BRANCH   9  10
ATOM     10  C   UNL     1      -2.080  -0.433   2.127  0.00  0.00    +0.303 C 
BRANCH  10  16
ATOM     11  C   UNL     1      -1.486  -3.330   1.200  0.00  0.00    +0.151 C 
ATOM     12  N   UNL     1      -1.273  -2.120   0.402  0.00  0.00    -0.319 N 
ATOM     13  C   UNL     1      -0.785  -2.065  -0.876  0.00  0.00    +0.129 A 
ATOM     14  C   UNL     1      -0.752  -0.763  -1.224  0.00  0.00    +0.151 A 
ATOM     15  N   UNL     1      -1.206  -0.044  -0.186  0.00  0.00    -0.236 NA
ATOM     16  C   UNL     1      -1.525  -0.850   0.789  0.00  0.00    +0.148 A 
ATOM     17 CL   UNL     1      -0.303  -3.412  -1.859  0.00  0.00    -0.062 Cl
ENDBRANCH  10  16
ENDBRANCH   9  10
ENDBRANCH   1   9
BRANCH   2  18
ATOM     18  C   UNL     1      -1.332  -2.058   5.141  0.00  0.00    -0.047 C 
BRANCH  18  19
ATOM     19  N   UNL     1       0.099  -2.384   5.088  0.00  0.00    +0.381 N 
ATOM     20  H   UNL     1       0.511  -1.959   4.271  0.00  0.00    -0.090 HD
ATOM     21  H   UNL     1       0.555  -2.032   5.916  0.00  0.00    -0.090 HD
ATOM     22  H   UNL     1       0.214  -3.386   5.041  0.00  0.00    -0.090 HD
ENDBRANCH  18  19
ENDBRANCH   2  18
TORSDOF 5
