REMARK  Name = ZINC39666885
REMARK  10 active torsions:
REMARK  status: ('A' for Active; 'I' for Inactive)
REMARK    1  A    between atoms: C_1  and  C_2
REMARK    2  A    between atoms: C_2  and  C_3
REMARK    3  A    between atoms: C_3  and  C_4
REMARK    4  A    between atoms: C_3  and  C_6
REMARK    5  A    between atoms: C_4  and  C_5
REMARK    6  A    between atoms: C_6  and  N_7
REMARK    7  A    between atoms: C_8  and  C_10
REMARK    8  A    between atoms: C_21  and  C_23
REMARK    9  A    between atoms: C_26  and  O_30
REMARK   10  A    between atoms: O_30  and  C_31
REMARK                            x       y       z     vdW  Elec       q    Type
REMARK                         _______ _______ _______ _____ _____    ______ ____
ROOT
ATOM      1  C   UNL     1      -2.610  -4.500  -2.188  0.00  0.00    +0.100 C 
ATOM      2  C   UNL     1      -3.725  -3.962  -1.264  0.00  0.00    +0.121 C 
ATOM      3  N   UNL     1      -4.815  -4.961  -1.371  0.00  0.00    -0.296 N 
ATOM      4  C   UNL     1      -4.114  -6.268  -1.407  0.00  0.00    +0.115 C 
ATOM      5  C   UNL     1      -2.868  -6.014  -2.278  0.00  0.00    -0.004 C 
ATOM      6  C   UNL     1      -1.674  -6.787  -1.728  0.00  0.00    -0.010 C 
ATOM      7  C   UNL     1      -1.929  -8.289  -1.882  0.00  0.00    -0.082 C 
ATOM      8  N   UNL     1      -2.134  -8.609  -3.300  0.00  0.00    +0.379 N 
ATOM      9  C   UNL     1      -3.338  -7.934  -3.797  0.00  0.00    -0.082 C 
ATOM     10  C   UNL     1      -3.143  -6.417  -3.724  0.00  0.00    -0.010 C 
ATOM     11  C   UNL     1      -6.142  -4.734  -1.425  0.00  0.00    +0.247 C 
ATOM     12  O   UNL     1      -6.562  -3.594  -1.473  0.00  0.00    -0.270 OA
ATOM     13  H   UNL     1      -1.333  -8.301  -3.832  0.00  0.00    -0.086 HD
ATOM     14  H   UNL     1      -2.241  -9.607  -3.406  0.00  0.00    -0.086 HD
ENDROOT
BRANCH  11  15
ATOM     15  C   UNL     1      -7.086  -5.869  -1.424  0.00  0.00    +0.040 A 
ATOM     16  C   UNL     1      -6.690  -7.109  -0.915  0.00  0.00    +0.036 A 
ATOM     17  C   UNL     1      -7.574  -8.166  -0.917  0.00  0.00    +0.085 A 
ATOM     18  C   UNL     1      -8.858  -8.000  -1.424  0.00  0.00    +0.157 A 
ATOM     19  C   UNL     1      -9.255  -6.768  -1.931  0.00  0.00    +0.085 A 
ATOM     20  C   UNL     1      -8.379  -5.704  -1.927  0.00  0.00    +0.036 A 
ATOM     21 CL   UNL     1     -10.860  -6.567  -2.564  0.00  0.00    -0.080 Cl
ATOM     22 CL   UNL     1      -7.083  -9.707  -0.285  0.00  0.00    -0.080 Cl
BRANCH  18  23
ATOM     23  O   UNL     1      -9.726  -9.044  -1.425  0.00  0.00    -0.492 OA
ATOM     24  C   UNL     1     -10.553  -9.201  -0.270  0.00  0.00    +0.277 C 
ENDBRANCH  18  23
ENDBRANCH  11  15
BRANCH   1  26
ATOM     25  N   UNL     1      -0.180  -4.078  -2.382  0.00  0.00    -0.315 N 
ATOM     26  C   UNL     1      -1.255  -4.234  -1.584  0.00  0.00    +0.218 C 
ATOM     27  O   UNL     1      -1.132  -4.161  -0.379  0.00  0.00    -0.275 OA
ATOM     28  H   UNL     1      -0.279  -4.137  -3.345  0.00  0.00    +0.149 HD
BRANCH  25  29
ATOM     29  C   UNL     1       1.137  -3.820  -1.794  0.00  0.00    +0.107 C 
BRANCH  29  30
ATOM     30  C   UNL     1       2.175  -3.683  -2.910  0.00  0.00    +0.006 C 
BRANCH  30  32
ATOM     31  C   UNL     1       2.837  -2.364  -4.926  0.00  0.00    +0.004 C 
ATOM     32  C   UNL     1       1.858  -2.447  -3.753  0.00  0.00    +0.002 C 
ENDBRANCH  30  32
BRANCH  30  33
ATOM     33  C   UNL     1       3.568  -3.538  -2.296  0.00  0.00    +0.002 C 
ATOM     34  C   UNL     1       3.923  -4.813  -1.528  0.00  0.00    +0.004 C 
ENDBRANCH  30  33
ENDBRANCH  29  30
ENDBRANCH  25  29
ENDBRANCH   1  26
TORSDOF 7
