REMARK  Name = ZINC52572037
REMARK  11 active torsions:
REMARK  status: ('A' for Active; 'I' for Inactive)
REMARK    1  A    between atoms: C_1  and  O_2
REMARK    2  A    between atoms: O_2  and  C_3
REMARK    3  A    between atoms: C_8  and  C_20
REMARK    4  A    between atoms: C_16  and  O_17
REMARK    5  A    between atoms: O_17  and  C_18
REMARK    6  A    between atoms: C_22  and  O_26
REMARK    7  A    between atoms: O_26  and  C_27
REMARK    8  A    between atoms: C_27  and  C_28
REMARK    9  A    between atoms: C_28  and  C_30
REMARK   10  A    between atoms: C_28  and  N_40
REMARK   11  A    between atoms: C_30  and  C_31
REMARK                            x       y       z     vdW  Elec       q    Type
REMARK                         _______ _______ _______ _____ _____    ______ ____
ROOT
ATOM      1  C   UNL     1      -6.288   3.655   0.050  0.00  0.00    +0.022 A 
ATOM      2  C   UNL     1      -7.531   4.283   0.169  0.00  0.00    +0.058 A 
ATOM      3  C   UNL     1      -7.569   5.671   0.166  0.00  0.00    +0.139 A 
ATOM      4  C   UNL     1      -6.382   6.381   0.044  0.00  0.00    +0.156 A 
ATOM      5  N   UNL     1      -5.227   5.756  -0.067  0.00  0.00    -0.259 NA
ATOM      6  C   UNL     1      -5.143   4.441  -0.062  0.00  0.00    +0.121 A 
ENDROOT
BRANCH   1  12
ATOM      7  C   UNL     1      -1.201  -0.638   0.010  0.00  0.00    +0.162 A 
ATOM      8  C   UNL     1      -2.365   0.101   0.019  0.00  0.00    +0.060 A 
ATOM      9  C   UNL     1      -3.598  -0.551   0.028  0.00  0.00    +0.012 A 
ATOM     10  C   UNL     1      -4.862   0.186   0.037  0.00  0.00    -0.002 A 
ATOM     11  C   UNL     1      -4.937   1.578   0.039  0.00  0.00    +0.037 A 
ATOM     12  C   UNL     1      -6.190   2.176   0.048  0.00  0.00    +0.075 A 
ATOM     13  N   UNL     1      -7.305   1.447   0.055  0.00  0.00    -0.232 NA
ATOM     14  C   UNL     1      -7.292   0.127   0.054  0.00  0.00    +0.126 A 
ATOM     15  C   UNL     1      -6.064  -0.565   0.045  0.00  0.00    +0.040 A 
ATOM     16  C   UNL     1      -5.989  -1.970   0.043  0.00  0.00    +0.123 A 
ATOM     17  N   UNL     1      -4.844  -2.595   0.034  0.00  0.00    -0.254 NA
ATOM     18  C   UNL     1      -3.656  -1.965   0.027  0.00  0.00    +0.075 A 
ATOM     19  C   UNL     1      -2.460  -2.696   0.017  0.00  0.00    +0.077 A 
ATOM     20  C   UNL     1      -1.251  -2.037   0.003  0.00  0.00    +0.164 A 
ATOM     21  N   UNL     1      -8.483  -0.577   0.063  0.00  0.00    -0.343 N 
ATOM     22  H   UNL     1      -9.328  -0.101   0.070  0.00  0.00    +0.144 HD
ATOM     23  H   UNL     1      -8.473  -1.547   0.062  0.00  0.00    +0.144 HD
BRANCH   7  25
ATOM     24  C   UNL     1      -0.017   1.425   0.010  0.00  0.00    +0.277 C 
ATOM     25  O   UNL     1       0.002  -0.004   0.002  0.00  0.00    -0.491 OA
ENDBRANCH   7  25
BRANCH  20  26
ATOM     26  O   UNL     1      -0.095  -2.751  -0.012  0.00  0.00    -0.491 OA
ATOM     27  C   UNL     1      -0.213  -4.175  -0.019  0.00  0.00    +0.277 C 
ENDBRANCH  20  26
ENDBRANCH   1  12
BRANCH   3  28
ATOM     28  O   UNL     1      -8.754   6.327   0.279  0.00  0.00    -0.492 OA
BRANCH  28  29
ATOM     29  C   UNL     1      -8.709   7.755   0.267  0.00  0.00    +0.213 C 
BRANCH  29  30
ATOM     30  C   UNL     1     -10.128   8.312   0.404  0.00  0.00    -0.033 C 
BRANCH  30  31
ATOM     31  N   UNL     1     -10.916   7.938  -0.778  0.00  0.00    +0.382 N 
ATOM     32  H   UNL     1     -10.484   8.320  -1.606  0.00  0.00    -0.089 HD
ATOM     33  H   UNL     1     -10.955   6.933  -0.852  0.00  0.00    -0.089 HD
ATOM     34  H   UNL     1     -11.852   8.305  -0.688  0.00  0.00    -0.089 HD
ENDBRANCH  30  31
BRANCH  30  35
ATOM     35  C   UNL     1     -10.069   9.837   0.516  0.00  0.00    +0.020 C 
BRANCH  35  36
ATOM     36  C   UNL     1     -11.453  10.375   0.773  0.00  0.00    -0.043 C 
ATOM     37  C   UNL     1     -11.998  10.674   1.974  0.00  0.00    -0.001 A 
ATOM     38  C   UNL     1     -11.487  10.590   3.348  0.00  0.00    +0.010 A 
ATOM     39  C   UNL     1     -12.287  10.969   4.370  0.00  0.00    +0.001 A 
ATOM     40  C   UNL     1     -13.589  11.440   4.152  0.00  0.00    +0.002 A 
ATOM     41  C   UNL     1     -14.129  11.546   2.919  0.00  0.00    +0.026 A 
ATOM     42  C   UNL     1     -13.376  11.175   1.770  0.00  0.00    +0.043 A 
ATOM     43  N   UNL     1     -13.671  11.185   0.493  0.00  0.00    -0.380 N 
ATOM     44  C   UNL     1     -12.510  10.697  -0.259  0.00  0.00    +0.144 C 
ATOM     45  H   UNL     1     -14.515  11.471   0.109  0.00  0.00    +0.160 HD
ENDBRANCH  35  36
ENDBRANCH  30  35
ENDBRANCH  29  30
ENDBRANCH  28  29
ENDBRANCH   3  28
TORSDOF 9
