REMARK  Name = ZINC00998678
REMARK  11 active torsions:
REMARK  status: ('A' for Active; 'I' for Inactive)
REMARK    1  A    between atoms: C_1  and  C_2
REMARK    2  A    between atoms: C_2  and  C_3
REMARK    3  A    between atoms: C_15  and  C_17
REMARK    4  A    between atoms: C_20  and  N_23
REMARK    5  A    between atoms: N_23  and  C_24
REMARK    6  A    between atoms: N_23  and  C_26
REMARK    7  A    between atoms: C_24  and  C_25
REMARK    8  A    between atoms: C_26  and  C_27
REMARK    9  A    between atoms: C_31  and  C_34
REMARK   10  A    between atoms: C_37  and  O_40
REMARK   11  A    between atoms: O_40  and  C_41
REMARK                            x       y       z     vdW  Elec       q    Type
REMARK                         _______ _______ _______ _____ _____    ______ ____
ROOT
ATOM      1  C   UNL     1      -0.461   5.782   0.972  0.00  0.00    +0.220 C 
ATOM      2  O   UNL     1      -0.542   6.992   0.975  0.00  0.00    -0.275 OA
ATOM      3  N   UNL     1       0.044   5.143  -0.102  0.00  0.00    -0.258 N 
ATOM      4  C   UNL     1       0.133   3.750  -0.096  0.00  0.00    +0.058 A 
ATOM      5  C   UNL     1      -1.000   2.953  -0.071  0.00  0.00    +0.025 A 
ATOM      6  C   UNL     1      -0.863   1.577  -0.133  0.00  0.00    +0.002 A 
ATOM      7  C   UNL     1       0.392   1.000  -0.209  0.00  0.00    +0.002 A 
ATOM      8  C   UNL     1       1.526   1.794  -0.217  0.00  0.00    +0.025 A 
ATOM      9  C   UNL     1       1.391   3.170  -0.143  0.00  0.00    +0.053 A 
ATOM     10  N   UNL     1       2.486   4.018  -0.044  0.00  0.00    -0.316 N 
ATOM     11  C   UNL     1       2.828   4.958  -0.964  0.00  0.00    +0.017 C 
ATOM     12  C   UNL     1       1.968   5.826  -1.525  0.00  0.00    +0.037 C 
ATOM     13  C   UNL     1       0.487   5.912  -1.246  0.00  0.00    +0.147 C 
ATOM     14  C   UNL     1       2.428   6.770  -2.474  0.00  0.00    +0.163 C 
ATOM     15  O   UNL     1       1.634   7.557  -2.950  0.00  0.00    -0.292 OA
ATOM     16  C   UNL     1       3.861   6.834  -2.910  0.00  0.00    +0.088 C 
ATOM     17  C   UNL     1       4.473   5.434  -2.780  0.00  0.00    +0.032 C 
ATOM     18  C   UNL     1       4.302   4.985  -1.330  0.00  0.00    +0.059 C 
ATOM     19  H   UNL     1       3.050   3.934   0.741  0.00  0.00    +0.152 HD
ENDROOT
BRANCH  13  20
ATOM     20  C   UNL     1      -0.257   5.427  -2.464  0.00  0.00    -0.022 A 
ATOM     21  C   UNL     1      -0.143   4.108  -2.861  0.00  0.00    +0.007 A 
ATOM     22  C   UNL     1      -0.829   3.659  -3.974  0.00  0.00    +0.023 A 
ATOM     23  C   UNL     1      -1.623   4.538  -4.699  0.00  0.00    +0.030 A 
ATOM     24  C   UNL     1      -1.730   5.864  -4.300  0.00  0.00    +0.023 A 
ATOM     25  C   UNL     1      -1.046   6.305  -3.184  0.00  0.00    +0.007 A 
BRANCH  23  26
ATOM     26  N   UNL     1      -2.313   4.089  -5.828  0.00  0.00    -0.330 N 
BRANCH  26  27
ATOM     27  C   UNL     1      -2.199   2.689  -6.247  0.00  0.00    +0.102 C 
ATOM     28  C   UNL     1      -3.291   1.862  -5.566  0.00  0.00    +0.024 C 
ENDBRANCH  26  27
BRANCH  26  29
ATOM     29  C   UNL     1      -3.150   5.016  -6.592  0.00  0.00    +0.102 C 
ATOM     30  C   UNL     1      -2.310   5.680  -7.685  0.00  0.00    +0.024 C 
ENDBRANCH  26  29
ENDBRANCH  23  26
ENDBRANCH  13  20
BRANCH  17  31
ATOM     31  C   UNL     1       5.937   5.481  -3.133  0.00  0.00    -0.043 A 
ATOM     32  C   UNL     1       6.795   6.289  -2.410  0.00  0.00    +0.007 A 
ATOM     33  C   UNL     1       8.139   6.330  -2.728  0.00  0.00    +0.046 A 
ATOM     34  C   UNL     1       8.625   5.568  -3.780  0.00  0.00    +0.120 A 
ATOM     35  C   UNL     1       7.761   4.762  -4.508  0.00  0.00    +0.046 A 
ATOM     36  C   UNL     1       6.419   4.721  -4.183  0.00  0.00    +0.007 A 
BRANCH  34  37
ATOM     37  O   UNL     1       9.946   5.610  -4.098  0.00  0.00    -0.495 OA
ATOM     38  C   UNL     1      10.777   6.461  -3.306  0.00  0.00    +0.277 C 
ENDBRANCH  34  37
ENDBRANCH  17  31
BRANCH   1  40
ATOM     39  C   UNL     1      -1.451   5.951   3.239  0.00  0.00    +0.013 C 
ATOM     40  C   UNL     1      -0.926   4.992   2.168  0.00  0.00    +0.093 C 
ENDBRANCH   1  40
TORSDOF 7
