REMARK  Name = ZINC35361468
REMARK  11 active torsions:
REMARK  status: ('A' for Active; 'I' for Inactive)
REMARK    1  A    between atoms: C_1  and  C_2
REMARK    2  A    between atoms: C_2  and  C_4
REMARK    3  A    between atoms: C_2  and  N_35
REMARK    4  A    between atoms: C_4  and  C_5
REMARK    5  A    between atoms: C_5  and  C_6
REMARK    6  A    between atoms: C_6  and  C_8
REMARK    7  A    between atoms: C_8  and  C_34
REMARK    8  A    between atoms: C_15  and  C_33
REMARK    9  A    between atoms: C_25  and  C_32
REMARK   10  A    between atoms: C_28  and  O_31
REMARK   11  A    between atoms: C_36  and  C_38
REMARK                            x       y       z     vdW  Elec       q    Type
REMARK                         _______ _______ _______ _____ _____    ______ ____
ROOT
ATOM      1  C   UNL     1       1.270  -4.510   3.418  0.00  0.00    -0.001 C 
ATOM      2  C   UNL     1       2.091  -4.689   4.473  0.00  0.00    +0.007 C 
ATOM      3  C   UNL     1       2.789  -3.630   5.234  0.00  0.00    +0.160 C 
ATOM      4  O   UNL     1       2.721  -2.437   5.027  0.00  0.00    -0.292 OA
ATOM      5  C   UNL     1       3.605  -4.306   6.324  0.00  0.00    +0.084 C 
ATOM      6  C   UNL     1       3.831  -5.746   5.771  0.00  0.00    +0.010 C 
ATOM      7  C   UNL     1       2.468  -6.007   5.104  0.00  0.00    +0.000 C 
ATOM      8  C   UNL     1       2.507  -7.147   4.112  0.00  0.00    +0.012 C 
ATOM      9  C   UNL     1       3.609  -6.929   3.078  0.00  0.00    +0.005 C 
ATOM     10  C   UNL     1       4.960  -6.856   3.804  0.00  0.00    +0.003 C 
ATOM     11  C   UNL     1       4.970  -5.641   4.752  0.00  0.00    +0.001 C 
ATOM     12  C   UNL     1       6.293  -5.621   5.531  0.00  0.00    +0.031 C 
ATOM     13  C   UNL     1       7.451  -5.689   4.581  0.00  0.00    -0.027 C 
ATOM     14  C   UNL     1       7.362  -6.152   3.376  0.00  0.00    -0.065 C 
ATOM     15  C   UNL     1       6.055  -6.698   2.756  0.00  0.00    -0.008 C 
ATOM     16  C   UNL     1       5.602  -5.783   1.621  0.00  0.00    +0.014 C 
ATOM     17  C   UNL     1       6.812  -5.099   0.985  0.00  0.00    +0.032 C 
ATOM     18  C   UNL     1       8.031  -6.020   0.993  0.00  0.00    +0.119 C 
ATOM     19  C   UNL     1       8.589  -6.155   2.477  0.00  0.00    +0.062 C 
ATOM     20  C   UNL     1       6.344  -8.075   2.154  0.00  0.00    +0.016 C 
ATOM     21  C   UNL     1       1.441  -6.350   6.184  0.00  0.00    +0.016 C 
ATOM     22  C   UNL     1       0.594  -5.696   2.780  0.00  0.00    +0.048 C 
ENDROOT
BRANCH   1  23
ATOM     23  C   UNL     1       1.034  -3.159   2.891  0.00  0.00    +0.159 C 
ATOM     24  O   UNL     1       1.962  -2.501   2.472  0.00  0.00    -0.292 OA
BRANCH  23  25
ATOM     25  C   UNL     1      -0.362  -2.591   2.872  0.00  0.00    +0.081 C 
BRANCH  25  26
ATOM     26  C   UNL     1      -0.330  -1.180   2.279  0.00  0.00    +0.030 C 
BRANCH  26  28
ATOM     27  C   UNL     1      -1.700   0.850   1.784  0.00  0.00    +0.028 C 
ATOM     28  C   UNL     1      -1.747  -0.604   2.260  0.00  0.00    +0.070 C 
BRANCH  28  29
ATOM     29  N   UNL     1      -2.582  -1.389   1.348  0.00  0.00    -0.313 N 
ATOM     30  C   UNL     1      -3.918  -1.425   1.519  0.00  0.00    +0.210 C 
ATOM     31  O   UNL     1      -4.430  -0.807   2.428  0.00  0.00    -0.276 OA
ATOM     32  C   UNL     1      -4.777  -2.233   0.581  0.00  0.00    +0.109 C 
ATOM     33  H   UNL     1      -2.173  -1.884   0.620  0.00  0.00    +0.149 HD
ENDBRANCH  28  29
ENDBRANCH  26  28
ENDBRANCH  25  26
ENDBRANCH  23  25
ENDBRANCH   1  23
BRANCH  18  34
ATOM     34  O   UNL     1       7.662  -7.303   0.482  0.00  0.00    -0.391 OA
ATOM     35  H   UNL     1       8.379  -7.952   0.493  0.00  0.00    +0.210 HD
ENDBRANCH  18  34
TORSDOF 6
