REMARK  Name = ZINC31621115
REMARK  9 active torsions:
REMARK  status: ('A' for Active; 'I' for Inactive)
REMARK    1  A    between atoms: C_1  and  C_2
REMARK    2  A    between atoms: C_5  and  O_8
REMARK    3  A    between atoms: O_8  and  C_9
REMARK    4  A    between atoms: C_9  and  C_10
REMARK    5  A    between atoms: C_13  and  S_15
REMARK    6  A    between atoms: S_15  and  C_16
REMARK    7  A    between atoms: C_16  and  C_18
REMARK    8  A    between atoms: C_16  and  C_19
REMARK    9  A    between atoms: C_25  and  C_30
REMARK                            x       y       z     vdW  Elec       q    Type
REMARK                         _______ _______ _______ _____ _____    ______ ____
ROOT
ATOM      1  C   UNL     1      -0.238 -11.106   0.379  0.00  0.00    +0.119 C 
ATOM      2  C   UNL     1       0.555 -10.886  -0.911  0.00  0.00    +0.027 C 
ENDROOT
BRANCH   1   3
ATOM      3  C   UNL     1      -0.930 -12.443   0.321  0.00  0.00    +0.124 A 
ATOM      4  N   UNL     1      -2.217 -12.510  -0.107  0.00  0.00    -0.309 N 
ATOM      5  H   UNL     1      -2.673 -11.695  -0.371  0.00  0.00    +0.170 HD
ATOM      6  C   UNL     1      -2.872 -13.684  -0.175  0.00  0.00    +0.260 A 
ATOM      7  O   UNL     1      -4.027 -13.727  -0.562  0.00  0.00    -0.267 OA
ATOM      8  C   UNL     1      -2.191 -14.881   0.216  0.00  0.00    +0.083 A 
ATOM      9  C   UNL     1      -2.679 -16.256   0.232  0.00  0.00    +0.039 A 
ATOM     10  C   UNL     1      -1.840 -17.239   0.647  0.00  0.00    +0.059 A 
ATOM     11  S   UNL     1      -0.339 -16.361   1.042  0.00  0.00    -0.076 S 
ATOM     12  C   UNL     1      -0.865 -14.714   0.645  0.00  0.00    +0.116 A 
ATOM     13  N   UNL     1      -0.282 -13.518   0.679  0.00  0.00    -0.225 NA
BRANCH   9  14
ATOM     14  C   UNL     1      -4.057 -16.572  -0.195  0.00  0.00    +0.136 A 
ATOM     15  C   UNL     1      -4.415 -17.537  -1.084  0.00  0.00    +0.050 A 
ATOM     16  C   UNL     1      -5.821 -17.487  -1.192  0.00  0.00    +0.042 A 
ATOM     17  C   UNL     1      -6.245 -16.506  -0.373  0.00  0.00    +0.196 A 
ATOM     18  O   UNL     1      -5.177 -15.958   0.233  0.00  0.00    -0.463 OA
ENDBRANCH   9  14
ENDBRANCH   1   3
BRANCH   1  19
ATOM     19  S   UNL     1      -1.474  -9.791   0.561  0.00  0.00    -0.055 S 
BRANCH  19  23
ATOM     20  C   UNL     1       0.090  -6.277   1.043  0.00  0.00    +0.255 A 
ATOM     21  N   UNL     1       1.149  -7.026   0.939  0.00  0.00    -0.108 NA
ATOM     22  N   UNL     1       0.795  -8.251   0.770  0.00  0.00    -0.101 NA
ATOM     23  C   UNL     1      -0.514  -8.328   0.762  0.00  0.00    +0.278 A 
ATOM     24  O   UNL     1      -0.988  -7.080   0.940  0.00  0.00    -0.412 OA
BRANCH  20  25
ATOM     25  C   UNL     1       0.072  -4.785   1.249  0.00  0.00    +0.326 C 
BRANCH  25  26
ATOM     26  O   UNL     1       0.057  -4.129  -0.021  0.00  0.00    -0.483 OA
BRANCH  26  31
ATOM     27  C   UNL     1      -0.018   1.503   0.010  0.00  0.00    +0.044 C 
ATOM     28  C   UNL     1       0.002  -0.004   0.002  0.00  0.00    -0.050 A 
ATOM     29  C   UNL     1       0.006  -0.688  -1.200  0.00  0.00    +0.007 A 
ATOM     30  C   UNL     1       0.024  -2.069  -1.210  0.00  0.00    +0.046 A 
ATOM     31  C   UNL     1       0.039  -2.770  -0.013  0.00  0.00    +0.121 A 
ATOM     32  C   UNL     1       0.036  -2.082   1.191  0.00  0.00    +0.046 A 
ATOM     33  C   UNL     1       0.023  -0.701   1.196  0.00  0.00    +0.007 A 
ENDBRANCH  26  31
ENDBRANCH  25  26
ENDBRANCH  20  25
ENDBRANCH  19  23
ENDBRANCH   1  19
TORSDOF 7
