REMARK  Name = ZINC08820828
REMARK  5 active torsions:
REMARK  status: ('A' for Active; 'I' for Inactive)
REMARK    1  A    between atoms: C_3  and  N_9
REMARK    2  A    between atoms: C_15  and  C_16
REMARK    3  A    between atoms: C_19  and  O_22
REMARK    4  A    between atoms: O_22  and  C_23
REMARK    5  A    between atoms: C_23  and  C_24
REMARK                            x       y       z     vdW  Elec       q    Type
REMARK                         _______ _______ _______ _____ _____    ______ ____
ROOT
ATOM      1  N   UNL     1       3.089   2.868  -0.834  0.00  0.00    -0.224 NA
ATOM      2  C   UNL     1       3.345   3.713   0.139  0.00  0.00    +0.166 C 
ATOM      3  N   UNL     1       4.568   4.189   0.561  0.00  0.00    -0.260 N 
ATOM      4  C   UNL     1       4.648   5.044   1.566  0.00  0.00    +0.256 C 
ATOM      5  O   UNL     1       5.719   5.474   1.952  0.00  0.00    -0.269 OA
ATOM      6  C   UNL     1       3.379   5.453   2.199  0.00  0.00    +0.078 C 
ATOM      7  C   UNL     1       3.169   6.306   3.234  0.00  0.00    +0.028 C 
ATOM      8  S   UNL     1       2.194   4.532   1.230  0.00  0.00    -0.049 S 
ATOM      9  H   UNL     1       5.378   3.893   0.117  0.00  0.00    +0.157 HD
ENDROOT
BRANCH   1  12
ATOM     10  C   UNL     1      -0.518   3.115  -1.353  0.00  0.00    +0.004 A 
ATOM     11  C   UNL     1       0.783   3.476  -1.072  0.00  0.00    +0.029 A 
ATOM     12  C   UNL     1       1.796   2.516  -1.112  0.00  0.00    +0.086 A 
ATOM     13  C   UNL     1       1.484   1.193  -1.438  0.00  0.00    +0.085 A 
ATOM     14  C   UNL     1       0.176   0.845  -1.717  0.00  0.00    +0.061 A 
ATOM     15  C   UNL     1      -0.822   1.804  -1.675  0.00  0.00    +0.021 A 
ATOM     16 CL   UNL     1      -0.216  -0.797  -2.122  0.00  0.00    -0.082 Cl
ATOM     17 CL   UNL     1       2.735  -0.009  -1.492  0.00  0.00    -0.080 Cl
ENDBRANCH   1  12
BRANCH   7  18
ATOM     18  C   UNL     1       1.826   6.442   3.812  0.00  0.00    -0.024 A 
ATOM     19  C   UNL     1       0.849   5.472   3.555  0.00  0.00    +0.011 A 
ATOM     20  C   UNL     1      -0.409   5.605   4.099  0.00  0.00    +0.046 A 
ATOM     21  C   UNL     1      -0.710   6.699   4.902  0.00  0.00    +0.121 A 
ATOM     22  C   UNL     1       0.256   7.665   5.160  0.00  0.00    +0.046 A 
ATOM     23  C   UNL     1       1.519   7.539   4.626  0.00  0.00    +0.011 A 
BRANCH  21  24
ATOM     24  O   UNL     1      -1.952   6.825   5.435  0.00  0.00    -0.487 OA
BRANCH  24  25
ATOM     25  C   UNL     1      -2.194   7.974   6.251  0.00  0.00    +0.264 C 
BRANCH  25  26
ATOM     26  C   UNL     1      -3.615   7.944   6.751  0.00  0.00    -0.010 A 
ATOM     27  C   UNL     1      -4.621   8.538   6.011  0.00  0.00    +0.008 A 
ATOM     28  C   UNL     1      -5.924   8.511   6.469  0.00  0.00    +0.020 A 
ATOM     29  C   UNL     1      -6.223   7.890   7.668  0.00  0.00    +0.041 A 
ATOM     30  C   UNL     1      -5.216   7.296   8.409  0.00  0.00    +0.020 A 
ATOM     31  C   UNL     1      -3.914   7.319   7.947  0.00  0.00    +0.008 A 
ATOM     32 CL   UNL     1      -7.860   7.856   8.245  0.00  0.00    -0.084 Cl
ENDBRANCH  25  26
ENDBRANCH  24  25
ENDBRANCH  21  24
ENDBRANCH   7  18
TORSDOF 5
