REMARK  Name = ZINC09255802
REMARK  6 active torsions:
REMARK  status: ('A' for Active; 'I' for Inactive)
REMARK    1  A    between atoms: C_1  and  C_2
REMARK    2  A    between atoms: C_2  and  C_4
REMARK    3  A    between atoms: C_2  and  N_26
REMARK    4  A    between atoms: N_6  and  N_7
REMARK    5  A    between atoms: C_8  and  C_10
REMARK    6  A    between atoms: C_12  and  C_20
REMARK                            x       y       z     vdW  Elec       q    Type
REMARK                         _______ _______ _______ _____ _____    ______ ____
ROOT
ATOM      1  N   UNL     1      -4.306   0.907   0.295  0.00  0.00    -0.230 N 
ATOM      2  C   UNL     1      -5.145   1.212  -0.715  0.00  0.00    +0.261 C 
ATOM      3  O   UNL     1      -4.761   1.908  -1.634  0.00  0.00    -0.269 OA
ATOM      4  H   UNL     1      -4.613   0.351   1.029  0.00  0.00    +0.173 HD
ENDROOT
BRANCH   2   5
ATOM      5  C   UNL     1      -6.532   0.700  -0.704  0.00  0.00    +0.049 A 
ATOM      6  C   UNL     1      -6.958  -0.192   0.268  0.00  0.00    +0.042 A 
ATOM      7  C   UNL     1      -8.282  -0.657   0.247  0.00  0.00    +0.072 A 
ATOM      8  N   UNL     1      -9.137  -0.266  -0.677  0.00  0.00    -0.247 NA
ATOM      9  C   UNL     1      -8.789   0.590  -1.639  0.00  0.00    +0.072 A 
ATOM     10  C   UNL     1      -7.471   1.111  -1.686  0.00  0.00    +0.013 A 
ATOM     11  C   UNL     1      -7.115   2.005  -2.703  0.00  0.00    +0.011 A 
ATOM     12  C   UNL     1      -8.041   2.374  -3.633  0.00  0.00    +0.001 A 
ATOM     13  C   UNL     1      -9.338   1.869  -3.588  0.00  0.00    +0.002 A 
ATOM     14  C   UNL     1      -9.718   0.994  -2.617  0.00  0.00    +0.028 A 
BRANCH   7  15
ATOM     15  C   UNL     1      -8.730  -1.610   1.290  0.00  0.00    +0.000 A 
ATOM     16  C   UNL     1      -7.841  -2.041   2.273  0.00  0.00    +0.010 A 
ATOM     17  C   UNL     1      -8.264  -2.925   3.244  0.00  0.00    +0.001 A 
ATOM     18  C   UNL     1      -9.566  -3.392   3.237  0.00  0.00    +0.000 A 
ATOM     19  C   UNL     1     -10.452  -2.973   2.261  0.00  0.00    +0.001 A 
ATOM     20  C   UNL     1     -10.041  -2.085   1.288  0.00  0.00    +0.010 A 
ENDBRANCH   7  15
ENDBRANCH   2   5
BRANCH   1  23
ATOM     21  C   UNL     1      -2.153   1.087   1.295  0.00  0.00    +0.249 C 
ATOM     22  O   UNL     1      -2.537   0.392   2.213  0.00  0.00    -0.272 OA
ATOM     23  N   UNL     1      -2.992   1.392   0.285  0.00  0.00    -0.233 N 
ATOM     24  H   UNL     1      -2.685   1.947  -0.449  0.00  0.00    +0.173 HD
BRANCH  21  26
ATOM     25  C   UNL     1      -0.017   1.097   0.037  0.00  0.00    +0.038 C 
ATOM     26  C   UNL     1      -0.739   1.608   1.285  0.00  0.00    +0.156 C 
BRANCH  26  27
ATOM     27  N   UNL     1      -0.037   1.140   2.482  0.00  0.00    -0.316 N 
ATOM     28  C   UNL     1       1.036   1.851   2.974  0.00  0.00    +0.150 C 
ATOM     29  N   UNL     1       1.429   2.934   2.383  0.00  0.00    -0.113 NA
ATOM     30  S   UNL     1       2.735   3.491   3.271  0.00  0.00    +0.101 S 
ATOM     31  O   UNL     1       3.895   3.361   2.461  0.00  0.00    -0.146 OA
ATOM     32  O   UNL     1       2.347   4.707   3.895  0.00  0.00    -0.146 OA
ATOM     33  C   UNL     1       2.807   2.238   4.522  0.00  0.00    +0.123 A 
ATOM     34  C   UNL     1       1.744   1.392   4.179  0.00  0.00    +0.043 A 
ATOM     35  C   UNL     1       1.527   0.267   4.988  0.00  0.00    +0.013 A 
ATOM     36  C   UNL     1       2.333   0.030   6.080  0.00  0.00    +0.001 A 
ATOM     37  C   UNL     1       3.371   0.887   6.397  0.00  0.00    +0.002 A 
ATOM     38  C   UNL     1       3.604   2.002   5.603  0.00  0.00    +0.030 A 
ATOM     39  H   UNL     1      -0.328   0.330   2.929  0.00  0.00    +0.148 HD
ENDBRANCH  26  27
ENDBRANCH  21  26
ENDBRANCH   1  23
TORSDOF 5
