REMARK  Name = ZINC62039683
REMARK  7 active torsions:
REMARK  status: ('A' for Active; 'I' for Inactive)
REMARK    1  A    between atoms: C_1  and  C_2
REMARK    2  A    between atoms: C_2  and  N_3
REMARK    3  A    between atoms: N_3  and  C_4
REMARK    4  A    between atoms: N_3  and  C_6
REMARK    5  A    between atoms: C_4  and  C_5
REMARK    6  A    between atoms: C_9  and  N_13
REMARK    7  A    between atoms: C_10  and  C_12
REMARK                            x       y       z     vdW  Elec       q    Type
REMARK                         _______ _______ _______ _____ _____    ______ ____
ROOT
ATOM      1  N   UNL     1      -1.304  -6.059   0.439  0.00  0.00    -0.299 N 
ATOM      2  C   UNL     1      -1.369  -6.841  -0.701  0.00  0.00    +0.135 A 
ATOM      3  C   UNL     1      -1.464  -8.256  -0.601  0.00  0.00    +0.051 A 
ATOM      4  C   UNL     1      -1.508  -9.087   0.614  0.00  0.00    -0.025 A 
ATOM      5  C   UNL     1      -1.599 -10.415   0.438  0.00  0.00    -0.004 A 
ATOM      6  S   UNL     1      -1.637 -10.647  -1.325  0.00  0.00    -0.073 S 
ATOM      7  C   UNL     1      -1.525  -8.950  -1.823  0.00  0.00    +0.114 A 
ATOM      8  N   UNL     1      -1.495  -8.314  -2.979  0.00  0.00    -0.228 NA
ATOM      9  C   UNL     1      -1.406  -6.998  -3.010  0.00  0.00    +0.224 A 
ATOM     10  N   UNL     1      -1.349  -6.283  -1.901  0.00  0.00    -0.220 NA
ATOM     11  C   UNL     1      -1.630 -11.161   1.745  0.00  0.00    +0.043 C 
ATOM     12  C   UNL     1      -1.111 -10.143   2.784  0.00  0.00    +0.010 C 
ATOM     13  C   UNL     1      -1.476  -8.802   2.118  0.00  0.00    +0.037 C 
ATOM     14  H   UNL     1      -1.416  -6.464   1.313  0.00  0.00    +0.154 HD
ENDROOT
BRANCH   1  18
ATOM     15  C   UNL     1      -0.624  -1.962   0.116  0.00  0.00    +0.014 A 
ATOM     16  C   UNL     1      -0.144  -2.820  -0.857  0.00  0.00    +0.023 A 
ATOM     17  C   UNL     1      -0.367  -4.179  -0.753  0.00  0.00    +0.025 A 
ATOM     18  C   UNL     1      -1.075  -4.684   0.331  0.00  0.00    +0.035 A 
ATOM     19  C   UNL     1      -1.555  -3.820   1.306  0.00  0.00    -0.028 A 
ATOM     20  C   UNL     1      -1.323  -2.462   1.199  0.00  0.00    +0.026 A 
ATOM     21  C   UNL     1      -2.324  -4.363   2.483  0.00  0.00    +0.046 C 
BRANCH  15  22
ATOM     22  N   UNL     1      -0.395  -0.587   0.008  0.00  0.00    -0.394 NA
ATOM     23  H   UNL     1      -0.807  -0.115   0.798  0.00  0.00    +0.126 HD
BRANCH  22  25
ATOM     24  C   UNL     1       1.302   1.178  -0.011  0.00  0.00    +0.022 C 
ATOM     25  C   UNL     1       1.051  -0.331  -0.018  0.00  0.00    +0.081 C 
ENDBRANCH  22  25
BRANCH  22  26
ATOM     26  C   UNL     1      -1.003  -0.086  -1.232  0.00  0.00    +0.081 C 
ATOM     27  C   UNL     1      -2.523  -0.239  -1.153  0.00  0.00    +0.022 C 
ENDBRANCH  22  26
ENDBRANCH  15  22
ENDBRANCH   1  18
TORSDOF 4
