REMARK  Name = ZINC00945277
REMARK  6 active torsions:
REMARK  status: ('A' for Active; 'I' for Inactive)
REMARK    1  A    between atoms: C_1  and  C_2
REMARK    2  A    between atoms: C_11  and  O_13
REMARK    3  A    between atoms: O_13  and  C_14
REMARK    4  A    between atoms: C_14  and  C_16
REMARK    5  A    between atoms: C_16  and  C_17
REMARK    6  A    between atoms: C_17  and  N_18
REMARK                            x       y       z     vdW  Elec       q    Type
REMARK                         _______ _______ _______ _____ _____    ______ ____
ROOT
ATOM      1  C   UNL     1       0.192  -2.273   5.908  0.00  0.00    +0.314 C 
ATOM      2  O   UNL     1       0.173  -1.065   5.906  0.00  0.00    -0.250 OA
ENDROOT
BRANCH   1   3
ATOM      3  O   UNL     1       0.086  -2.948   4.752  0.00  0.00    -0.426 OA
BRANCH   3  14
ATOM      4  C   UNL     1      -1.183   0.096  -0.854  0.00  0.00    +0.045 C 
ATOM      5  C   UNL     1       0.058  -0.017  -0.006  0.00  0.00    -0.033 A 
ATOM      6  C   UNL     1       1.211   0.600  -0.373  0.00  0.00    +0.096 A 
ATOM      7  C   UNL     1       2.359   0.479   0.437  0.00  0.00    +0.337 A 
ATOM      8  O   UNL     1       3.387   1.037   0.097  0.00  0.00    -0.245 OA
ATOM      9  O   UNL     1       2.348  -0.234   1.575  0.00  0.00    -0.422 OA
ATOM     10  C   UNL     1       1.234  -0.871   1.996  0.00  0.00    +0.143 A 
ATOM     11  C   UNL     1       0.051  -0.788   1.239  0.00  0.00    +0.021 A 
ATOM     12  C   UNL     1      -1.107  -1.442   1.675  0.00  0.00    +0.015 A 
ATOM     13  C   UNL     1      -1.085  -2.155   2.839  0.00  0.00    +0.047 A 
ATOM     14  C   UNL     1       0.081  -2.236   3.596  0.00  0.00    +0.135 A 
ATOM     15  C   UNL     1       1.240  -1.603   3.173  0.00  0.00    +0.093 A 
ENDBRANCH   3  14
ENDBRANCH   1   3
BRANCH   1  16
ATOM     16  C   UNL     1       0.332  -3.023   7.208  0.00  0.00    +0.140 C 
BRANCH  16  17
ATOM     17  C   UNL     1       0.432  -2.025   8.363  0.00  0.00    +0.128 C 
BRANCH  17  18
ATOM     18  N   UNL     1       0.569  -2.753   9.627  0.00  0.00    -0.234 N 
ATOM     19  C   UNL     1      -0.464  -3.154  10.390  0.00  0.00    +0.254 C 
ATOM     20  O   UNL     1      -1.639  -2.970  10.146  0.00  0.00    -0.270 OA
ATOM     21  C   UNL     1       0.072  -3.853  11.577  0.00  0.00    +0.049 A 
ATOM     22  C   UNL     1      -0.502  -4.465  12.681  0.00  0.00    +0.014 A 
ATOM     23  C   UNL     1       0.309  -5.046  13.643  0.00  0.00    +0.001 A 
ATOM     24  C   UNL     1       1.684  -5.020  13.509  0.00  0.00    +0.001 A 
ATOM     25  C   UNL     1       2.272  -4.412  12.411  0.00  0.00    +0.014 A 
ATOM     26  C   UNL     1       1.474  -3.827  11.441  0.00  0.00    +0.049 A 
ATOM     27  C   UNL     1       1.744  -3.116  10.174  0.00  0.00    +0.254 C 
ATOM     28  O   UNL     1       2.842  -2.894   9.705  0.00  0.00    -0.270 OA
ENDBRANCH  17  18
ENDBRANCH  16  17
ENDBRANCH   1  16
TORSDOF 5
