REMARK  Name = ZINC27344965
REMARK  7 active torsions:
REMARK  status: ('A' for Active; 'I' for Inactive)
REMARK    1  A    between atoms: C_4  and  C_7
REMARK    2  A    between atoms: C_7  and  C_9
REMARK    3  A    between atoms: C_7  and  N_18
REMARK    4  A    between atoms: N_11  and  C_12
REMARK    5  A    between atoms: N_21  and  S_24
REMARK    6  A    between atoms: S_24  and  C_27
REMARK    7  A    between atoms: C_31  and  N_33
REMARK                            x       y       z     vdW  Elec       q    Type
REMARK                         _______ _______ _______ _____ _____    ______ ____
ROOT
ATOM      1  N   UNL     1       0.300   5.038  -4.205  0.00  0.00    +0.392 N 
ATOM      2  C   UNL     1      -0.929   4.761  -3.449  0.00  0.00    -0.060 C 
ATOM      3  C   UNL     1      -0.607   4.733  -1.951  0.00  0.00    +0.091 C 
ATOM      4  N   UNL     1       0.489   3.779  -1.726  0.00  0.00    -0.180 NA
ATOM      5  C   UNL     1       1.706   3.912  -2.542  0.00  0.00    +0.091 C 
ATOM      6  C   UNL     1       1.291   3.969  -4.021  0.00  0.00    -0.060 C 
ATOM      7  H   UNL     1       0.734   5.968  -3.810  0.00  0.00    -0.080 HD
ENDROOT
BRANCH   4   8
ATOM      8  S   UNL     1       0.360   2.590  -0.581  0.00  0.00    +0.061 S 
ATOM      9  O   UNL     1      -0.593   3.044   0.370  0.00  0.00    -0.153 OA
ATOM     10  O   UNL     1       1.686   2.230  -0.218  0.00  0.00    -0.153 OA
BRANCH   8  11
ATOM     11  C   UNL     1      -0.345   1.181  -1.369  0.00  0.00    +0.108 A 
ATOM     12  C   UNL     1       0.473   0.237  -1.961  0.00  0.00    +0.028 A 
ATOM     13  C   UNL     1      -0.081  -0.868  -2.579  0.00  0.00    +0.004 A 
ATOM     14  C   UNL     1      -1.453  -1.029  -2.606  0.00  0.00    +0.033 A 
ATOM     15  C   UNL     1      -2.272  -0.083  -2.019  0.00  0.00    +0.128 A 
ATOM     16  C   UNL     1      -1.718   1.019  -1.396  0.00  0.00    +0.061 A 
BRANCH  15  17
ATOM     17  N   UNL     1      -3.742  -0.253  -2.054  0.00  0.00    +0.056 N 
ATOM     18  O   UNL     1      -4.230  -1.227  -2.599  0.00  0.00    -0.126 OA
ATOM     19  O   UNL     1      -4.464   0.581  -1.536  0.00  0.00    -0.126 OA
ENDBRANCH  15  17
ENDBRANCH   8  11
ENDBRANCH   4   8
BRANCH   1  20
ATOM     20  C   UNL     1       0.006   5.243  -5.630  0.00  0.00    +0.050 C 
BRANCH  20  24
ATOM     21  C   UNL     1      -2.802   8.434  -6.058  0.00  0.00    +0.000 A 
ATOM     22  C   UNL     1      -2.957   7.274  -6.793  0.00  0.00    +0.000 A 
ATOM     23  C   UNL     1      -2.048   6.241  -6.654  0.00  0.00    +0.002 A 
ATOM     24  C   UNL     1      -0.984   6.369  -5.781  0.00  0.00    -0.052 A 
ATOM     25  C   UNL     1      -0.832   7.527  -5.042  0.00  0.00    +0.002 A 
ATOM     26  C   UNL     1      -1.738   8.562  -5.184  0.00  0.00    +0.000 A 
ENDBRANCH  20  24
BRANCH  20  27
ATOM     27  C   UNL     1       1.278   5.592  -6.360  0.00  0.00    +0.208 C 
ATOM     28  O   UNL     1       2.184   6.141  -5.770  0.00  0.00    -0.277 OA
ATOM     29  N   UNL     1       1.408   5.292  -7.667  0.00  0.00    -0.287 N 
ATOM     30  H   UNL     1       0.616   4.731  -8.184  0.00  0.00    +0.155 HD
BRANCH  29  31
ATOM     31  C   UNL     1       2.550   5.696  -8.367  0.00  0.00    +0.033 A 
ATOM     32  C   UNL     1       3.189   6.882  -8.031  0.00  0.00    +0.023 A 
ATOM     33  C   UNL     1       4.321   7.274  -8.720  0.00  0.00    +0.002 A 
ATOM     34  C   UNL     1       4.810   6.493  -9.751  0.00  0.00    +0.000 A 
ATOM     35  C   UNL     1       4.172   5.314 -10.091  0.00  0.00    +0.002 A 
ATOM     36  C   UNL     1       3.044   4.913  -9.403  0.00  0.00    +0.023 A 
ENDBRANCH  29  31
ENDBRANCH  20  27
ENDBRANCH   1  20
TORSDOF 7
