REMARK  Name = ZINC67219844
REMARK  8 active torsions:
REMARK  status: ('A' for Active; 'I' for Inactive)
REMARK    1  A    between atoms: C_1  and  N_2
REMARK    2  A    between atoms: N_6  and  C_9
REMARK    3  A    between atoms: C_9  and  C_10
REMARK    4  A    between atoms: C_10  and  N_11
REMARK    5  A    between atoms: N_11  and  C_12
REMARK    6  A    between atoms: C_12  and  C_13
REMARK    7  A    between atoms: C_22  and  O_23
REMARK    8  A    between atoms: O_23  and  C_24
REMARK                            x       y       z     vdW  Elec       q    Type
REMARK                         _______ _______ _______ _____ _____    ______ ____
ROOT
ATOM      1  C   UNL     1       0.943  -6.980  -2.299  0.00  0.00    -0.042 C 
ENDROOT
BRANCH   1   2
ATOM      2  C   UNL     1       1.631  -8.321  -2.340  0.00  0.00    -0.015 A 
ATOM      3  C   UNL     1       2.796  -8.494  -3.106  0.00  0.00    -0.013 A 
ATOM      4  C   UNL     1       3.346  -7.433  -3.846  0.00  0.00    +0.009 A 
ATOM      5  C   UNL     1       4.476  -7.637  -4.576  0.00  0.00    +0.001 A 
ATOM      6  C   UNL     1       5.098  -8.884  -4.602  0.00  0.00    +0.001 A 
ATOM      7  C   UNL     1       4.594  -9.934  -3.898  0.00  0.00    +0.008 A 
ATOM      8  C   UNL     1       3.429  -9.762  -3.132  0.00  0.00    -0.017 A 
ATOM      9  C   UNL     1       2.880 -10.824  -2.392  0.00  0.00    +0.012 A 
ATOM     10  C   UNL     1       1.751 -10.624  -1.661  0.00  0.00    +0.046 A 
ATOM     11  C   UNL     1       1.127  -9.373  -1.629  0.00  0.00    +0.129 A 
BRANCH  11  12
ATOM     12  O   UNL     1       0.003  -9.202  -0.885  0.00  0.00    -0.434 OA
BRANCH  12  13
ATOM     13  C   UNL     1      -0.475 -10.339  -0.163  0.00  0.00    +0.541 C 
ATOM     14  F   UNL     1      -0.772 -11.370  -1.060  0.00  0.00    -0.166 F 
ATOM     15  F   UNL     1       0.508 -10.769   0.734  0.00  0.00    -0.166 F 
ENDBRANCH  12  13
ENDBRANCH  11  12
ENDBRANCH   1   2
BRANCH   1  16
ATOM     16  N   UNL     1       1.496  -6.180  -1.198  0.00  0.00    +0.383 N 
ATOM     17  H   UNL     1       2.486  -6.047  -1.343  0.00  0.00    -0.085 HD
ATOM     18  H   UNL     1       1.346  -6.662  -0.324  0.00  0.00    -0.085 HD
BRANCH  16  19
ATOM     19  C   UNL     1       0.826  -4.873  -1.158  0.00  0.00    -0.067 C 
BRANCH  19  20
ATOM     20  C   UNL     1       1.402  -4.040  -0.011  0.00  0.00    +0.065 C 
BRANCH  20  26
ATOM     21  C   UNL     1      -0.018   1.465   0.010  0.00  0.00    -0.096 C 
ATOM     22  N   UNL     1       0.002  -0.004   0.002  0.00  0.00    +0.379 N 
ATOM     23  C   UNL     1      -1.380  -0.521   0.042  0.00  0.00    -0.078 C 
ATOM     24  C   UNL     1      -1.496  -1.886  -0.469  0.00  0.00    -0.003 C 
ATOM     25  C   UNL     1      -0.663  -2.877   0.375  0.00  0.00    +0.082 C 
ATOM     26  N   UNL     1       0.732  -2.733   0.029  0.00  0.00    -0.306 NA
ATOM     27  C   UNL     1       1.482  -1.779   0.876  0.00  0.00    +0.066 C 
ATOM     28  C   UNL     1       0.700  -0.488   1.170  0.00  0.00    -0.064 C 
ATOM     29  H   UNL     1       0.465  -0.334  -0.832  0.00  0.00    -0.082 HD
ENDBRANCH  20  26
ENDBRANCH  19  20
ENDBRANCH  16  19
ENDBRANCH   1  16
TORSDOF 7
