REMARK  Name = ZINC39695033
REMARK  6 active torsions:
REMARK  status: ('A' for Active; 'I' for Inactive)
REMARK    1  A    between atoms: C_1  and  C_2
REMARK    2  A    between atoms: C_3  and  C_9
REMARK    3  A    between atoms: C_9  and  N_10
REMARK    4  A    between atoms: C_11  and  C_13
REMARK    5  A    between atoms: C_24  and  C_26
REMARK    6  A    between atoms: C_26  and  C_32
REMARK                            x       y       z     vdW  Elec       q    Type
REMARK                         _______ _______ _______ _____ _____    ______ ____
ROOT
ATOM      1  C   UNL     1       3.549   1.767  -4.115  0.00  0.00    +0.100 C 
ATOM      2  C   UNL     1       4.254   0.399  -4.242  0.00  0.00    +0.121 C 
ATOM      3  N   UNL     1       4.272   0.121  -5.698  0.00  0.00    -0.300 N 
ATOM      4  C   UNL     1       4.558   1.436  -6.321  0.00  0.00    +0.115 C 
ATOM      5  C   UNL     1       3.753   2.446  -5.479  0.00  0.00    -0.004 C 
ATOM      6  C   UNL     1       2.405   2.725  -6.138  0.00  0.00    -0.010 C 
ATOM      7  C   UNL     1       2.633   3.450  -7.467  0.00  0.00    -0.082 C 
ATOM      8  N   UNL     1       3.350   4.708  -7.223  0.00  0.00    +0.379 N 
ATOM      9  C   UNL     1       4.682   4.426  -6.676  0.00  0.00    -0.082 C 
ATOM     10  C   UNL     1       4.542   3.741  -5.313  0.00  0.00    -0.010 C 
ATOM     11  C   UNL     1       4.072  -1.060  -6.316  0.00  0.00    +0.222 C 
ATOM     12  O   UNL     1       3.769  -2.040  -5.669  0.00  0.00    -0.275 OA
ATOM     13  H   UNL     1       3.445   5.213  -8.092  0.00  0.00    -0.086 HD
ATOM     14  H   UNL     1       2.829   5.269  -6.566  0.00  0.00    -0.086 HD
ENDROOT
BRANCH  11  15
ATOM     15  C   UNL     1       4.227  -1.163  -7.812  0.00  0.00    +0.044 C 
ATOM     16  C   UNL     1       3.128  -0.347  -8.495  0.00  0.00    +0.016 C 
ATOM     17  C   UNL     1       1.758  -0.892  -8.085  0.00  0.00    +0.001 C 
ATOM     18  C   UNL     1       1.644  -2.358  -8.509  0.00  0.00    +0.000 C 
ATOM     19  C   UNL     1       2.743  -3.174  -7.826  0.00  0.00    +0.001 C 
ATOM     20  C   UNL     1       4.113  -2.629  -8.236  0.00  0.00    +0.016 C 
ATOM     21  C   UNL     1       5.596  -0.619  -8.222  0.00  0.00    +0.021 C 
ENDBRANCH  11  15
BRANCH   1  23
ATOM     22  N   UNL     1       1.401   2.501  -3.130  0.00  0.00    -0.311 N 
ATOM     23  C   UNL     1       2.080   1.577  -3.838  0.00  0.00    +0.218 C 
ATOM     24  O   UNL     1       1.508   0.591  -4.253  0.00  0.00    -0.275 OA
ATOM     25  H   UNL     1       1.859   3.290  -2.799  0.00  0.00    +0.149 HD
BRANCH  22  26
ATOM     26  C   UNL     1      -0.027   2.316  -2.861  0.00  0.00    +0.139 C 
BRANCH  26  29
ATOM     27  C   UNL     1      -0.671   4.806  -4.178  0.00  0.00    +0.045 C 
ATOM     28  C   UNL     1      -0.851   4.673  -2.688  0.00  0.00    -0.027 A 
ATOM     29  C   UNL     1      -0.542   3.482  -2.058  0.00  0.00    -0.026 A 
ATOM     30  C   UNL     1      -0.707   3.360  -0.691  0.00  0.00    +0.005 A 
ATOM     31  C   UNL     1      -1.180   4.429   0.047  0.00  0.00    +0.002 A 
ATOM     32  C   UNL     1      -1.489   5.620  -0.582  0.00  0.00    +0.020 A 
ATOM     33  C   UNL     1      -1.319   5.745  -1.950  0.00  0.00    +0.044 A 
ATOM     34 CL   UNL     1      -1.700   7.243  -2.739  0.00  0.00    -0.083 Cl
ENDBRANCH  26  29
ENDBRANCH  22  26
ENDBRANCH   1  23
TORSDOF 4
