REMARK  Name = ZINC63383955
REMARK  9 active torsions:
REMARK  status: ('A' for Active; 'I' for Inactive)
REMARK    1  A    between atoms: C_1  and  C_2
REMARK    2  A    between atoms: C_2  and  C_3
REMARK    3  A    between atoms: C_2  and  C_4
REMARK    4  A    between atoms: C_4  and  C_5
REMARK    5  A    between atoms: C_5  and  C_7
REMARK    6  A    between atoms: C_5  and  N_16
REMARK    7  A    between atoms: N_9  and  C_10
REMARK    8  A    between atoms: C_10  and  C_11
REMARK    9  A    between atoms: C_17  and  C_19
REMARK                            x       y       z     vdW  Elec       q    Type
REMARK                         _______ _______ _______ _____ _____    ______ ____
ROOT
ATOM      1  C   UNL     1       1.011  -2.904  -2.959  0.00  0.00    +0.167 C 
ATOM      2  C   UNL     1       0.598  -4.348  -3.304  0.00  0.00    +0.065 C 
ATOM      3  C   UNL     1       1.869  -5.126  -3.537  0.00  0.00    -0.034 C 
ATOM      4  C   UNL     1       2.281  -6.280  -3.021  0.00  0.00    -0.001 A 
ATOM      5  C   UNL     1       1.616  -7.246  -2.131  0.00  0.00    +0.010 A 
ATOM      6  C   UNL     1       2.347  -8.337  -1.778  0.00  0.00    +0.001 A 
ATOM      7  C   UNL     1       3.656  -8.560  -2.216  0.00  0.00    +0.002 A 
ATOM      8  C   UNL     1       4.342  -7.729  -3.040  0.00  0.00    +0.026 A 
ATOM      9  C   UNL     1       3.675  -6.551  -3.486  0.00  0.00    +0.043 A 
ATOM     10  N   UNL     1       4.078  -5.607  -4.284  0.00  0.00    -0.375 N 
ATOM     11  C   UNL     1       2.980  -4.657  -4.467  0.00  0.00    +0.131 C 
ATOM     12  C   UNL     1       3.366  -3.243  -4.036  0.00  0.00    +0.134 C 
ATOM     13  N   UNL     1       2.478  -2.843  -2.927  0.00  0.00    -0.276 N 
ATOM     14  C   UNL     1       3.239  -2.439  -1.892  0.00  0.00    +0.248 C 
ATOM     15  O   UNL     1       2.815  -1.938  -0.870  0.00  0.00    -0.270 OA
ATOM     16  C   UNL     1       4.652  -2.692  -2.180  0.00  0.00    +0.042 A 
ATOM     17  C   UNL     1       4.760  -3.193  -3.504  0.00  0.00    -0.013 A 
ATOM     18  C   UNL     1       5.972  -3.528  -4.066  0.00  0.00    +0.006 A 
ATOM     19  C   UNL     1       7.105  -3.349  -3.278  0.00  0.00    +0.000 A 
ATOM     20  C   UNL     1       7.026  -2.855  -1.991  0.00  0.00    +0.001 A 
ATOM     21  C   UNL     1       5.792  -2.510  -1.392  0.00  0.00    +0.013 A 
ATOM     22  H   UNL     1       4.958  -5.543  -4.689  0.00  0.00    +0.160 HD
ENDROOT
BRANCH   1  24
ATOM     23  N   UNL     1       0.897  -3.149  -0.500  0.00  0.00    -0.302 N 
ATOM     24  C   UNL     1       0.456  -2.525  -1.610  0.00  0.00    +0.235 C 
ATOM     25  O   UNL     1      -0.387  -1.657  -1.523  0.00  0.00    -0.274 OA
ATOM     26  H   UNL     1       1.571  -3.843  -0.570  0.00  0.00    +0.150 HD
BRANCH  23  27
ATOM     27  C   UNL     1       0.358  -2.781   0.811  0.00  0.00    +0.159 C 
BRANCH  27  28
ATOM     28  C   UNL     1       1.364  -3.118   1.881  0.00  0.00    +0.234 C 
ATOM     29  O   UNL     1       2.427  -3.616   1.578  0.00  0.00    -0.274 OA
ATOM     30  N   UNL     1       1.083  -2.864   3.175  0.00  0.00    -0.307 N 
ATOM     31  H   UNL     1       0.233  -2.465   3.417  0.00  0.00    +0.149 HD
BRANCH  30  32
ATOM     32  C   UNL     1       2.062  -3.192   4.215  0.00  0.00    +0.178 C 
BRANCH  32  33
ATOM     33  C   UNL     1       1.507  -2.812   5.563  0.00  0.00    +0.122 A 
ATOM     34  C   UNL     1       0.784  -3.611   6.369  0.00  0.00    +0.046 A 
ATOM     35  C   UNL     1       0.474  -2.855   7.523  0.00  0.00    +0.041 A 
ATOM     36  C   UNL     1       1.027  -1.640   7.354  0.00  0.00    +0.195 A 
ATOM     37  O   UNL     1       1.656  -1.622   6.168  0.00  0.00    -0.466 OA
ENDBRANCH  32  33
ENDBRANCH  30  32
ENDBRANCH  27  28
BRANCH  27  38
ATOM     38  C   UNL     1      -0.937  -3.556   1.067  0.00  0.00    +0.034 C 
BRANCH  38  40
ATOM     39  C   UNL     1      -3.252  -3.982   0.230  0.00  0.00    +0.007 C 
ATOM     40  C   UNL     1      -1.999  -3.121   0.055  0.00  0.00    -0.015 C 
ATOM     41  C   UNL     1      -2.355  -1.651   0.289  0.00  0.00    +0.007 C 
ENDBRANCH  38  40
ENDBRANCH  27  38
ENDBRANCH  23  27
ENDBRANCH   1  24
TORSDOF 7
