REMARK  Name = ZINC39935328
REMARK  6 active torsions:
REMARK  status: ('A' for Active; 'I' for Inactive)
REMARK    1  A    between atoms: C_1  and  N_2
REMARK    2  A    between atoms: N_2  and  C_3
REMARK    3  A    between atoms: C_6  and  C_12
REMARK    4  A    between atoms: C_8  and  N_9
REMARK    5  A    between atoms: C_13  and  C_14
REMARK    6  A    between atoms: C_20  and  C_25
REMARK                            x       y       z     vdW  Elec       q    Type
REMARK                         _______ _______ _______ _____ _____    ______ ____
ROOT
ATOM      1  C   UNL     1       4.234  -2.632  -6.036  0.00  0.00    +0.147 C 
ATOM      2  N   UNL     1       4.527  -3.912  -5.854  0.00  0.00    -0.157 NA
ATOM      3  C   UNL     1       5.306  -4.596  -6.689  0.00  0.00    +0.271 C 
ATOM      4  O   UNL     1       5.555  -5.774  -6.492  0.00  0.00    -0.268 OA
ATOM      5  C   UNL     1       5.867  -3.878  -7.879  0.00  0.00    +0.068 C 
ATOM      6  C   UNL     1       6.665  -4.365  -8.838  0.00  0.00    +0.008 C 
ATOM      7  C   UNL     1       7.096  -3.426  -9.941  0.00  0.00    +0.106 C 
ATOM      8  S   UNL     1       6.261  -1.864  -9.448  0.00  0.00    -0.093 S 
ATOM      9  C   UNL     1       5.469  -2.456  -7.974  0.00  0.00    +0.112 C 
ATOM     10  N   UNL     1       4.689  -1.920  -7.073  0.00  0.00    -0.223 NA
ENDROOT
BRANCH   7  11
ATOM     11  C   UNL     1       6.601  -3.904 -11.282  0.00  0.00    -0.030 A 
ATOM     12  C   UNL     1       5.244  -4.040 -11.509  0.00  0.00    +0.005 A 
ATOM     13  C   UNL     1       4.789  -4.479 -12.738  0.00  0.00    +0.000 A 
ATOM     14  C   UNL     1       5.691  -4.780 -13.741  0.00  0.00    +0.000 A 
ATOM     15  C   UNL     1       7.048  -4.643 -13.515  0.00  0.00    +0.000 A 
ATOM     16  C   UNL     1       7.502  -4.201 -12.287  0.00  0.00    +0.005 A 
ENDBRANCH   7  11
BRANCH   1  18
ATOM     17  C   UNL     1       2.890  -2.657  -4.001  0.00  0.00    +0.011 C 
ATOM     18  C   UNL     1       3.366  -1.968  -5.059  0.00  0.00    +0.046 C 
BRANCH  17  22
ATOM     19  C   UNL     1       0.382  -0.732  -1.180  0.00  0.00    +0.058 A 
ATOM     20  C   UNL     1       0.876  -0.024  -2.273  0.00  0.00    +0.026 A 
ATOM     21  C   UNL     1       1.685  -0.641  -3.184  0.00  0.00    +0.010 A 
ATOM     22  C   UNL     1       2.020  -1.991  -3.021  0.00  0.00    -0.023 A 
ATOM     23  C   UNL     1       1.525  -2.705  -1.923  0.00  0.00    +0.042 A 
ATOM     24  C   UNL     1       0.714  -2.073  -1.007  0.00  0.00    +0.147 A 
BRANCH  19  26
ATOM     25  C   UNL     1      -0.685   1.344  -0.361  0.00  0.00    +0.125 C 
ATOM     26  N   UNL     1      -0.442  -0.097  -0.257  0.00  0.00    -0.345 N 
ATOM     27  H   UNL     1      -0.856  -0.608   0.457  0.00  0.00    +0.146 HD
ENDBRANCH  19  26
BRANCH  24  28
ATOM     28  N   UNL     1       0.192  -2.821   0.159  0.00  0.00    +0.058 N 
ATOM     29  O   UNL     1       0.096  -2.275   1.233  0.00  0.00    -0.126 OA
ATOM     30  O   UNL     1      -0.139  -3.977   0.036  0.00  0.00    -0.126 OA
ENDBRANCH  24  28
ENDBRANCH  17  22
ENDBRANCH   1  18
TORSDOF 5
