REMARK  Name = ZINC61594439
REMARK  9 active torsions:
REMARK  status: ('A' for Active; 'I' for Inactive)
REMARK    1  A    between atoms: C_1  and  C_2
REMARK    2  A    between atoms: C_2  and  C_3
REMARK    3  A    between atoms: C_3  and  C_5
REMARK    4  A    between atoms: C_3  and  N_24
REMARK    5  A    between atoms: C_5  and  C_7
REMARK    6  A    between atoms: C_5  and  S_14
REMARK    7  A    between atoms: S_14  and  C_15
REMARK    8  A    between atoms: N_21  and  C_22
REMARK    9  A    between atoms: C_22  and  C_23
REMARK                            x       y       z     vdW  Elec       q    Type
REMARK                         _______ _______ _______ _____ _____    ______ ____
ROOT
ATOM      1  C   UNL     1       0.733  -2.043  -1.033  0.00  0.00    +0.070 C 
ENDROOT
BRANCH   1   2
ATOM      2  C   UNL     1      -0.717  -2.451  -1.027  0.00  0.00    -0.035 A 
ATOM      3  C   UNL     1      -1.548  -2.067  -2.064  0.00  0.00    +0.005 A 
ATOM      4  C   UNL     1      -2.878  -2.441  -2.059  0.00  0.00    +0.001 A 
ATOM      5  C   UNL     1      -3.379  -3.200  -1.018  0.00  0.00    +0.015 A 
ATOM      6  C   UNL     1      -2.549  -3.585   0.019  0.00  0.00    +0.018 A 
ATOM      7  C   UNL     1      -1.216  -3.215   0.011  0.00  0.00    +0.020 A 
ATOM      8 BR   UNL     1      -3.233  -4.623   1.444  0.00  0.00    -0.050 Br
ENDBRANCH   1   2
BRANCH   1   9
ATOM      9  C   UNL     1       0.844  -0.549  -0.720  0.00  0.00    -0.057 C 
BRANCH   9  10
ATOM     10  N   UNL     1       0.149  -0.261   0.543  0.00  0.00    +0.381 N 
ATOM     11  H   UNL     1      -0.839  -0.430   0.429  0.00  0.00    -0.090 HD
ATOM     12  H   UNL     1       0.511  -0.861   1.270  0.00  0.00    -0.090 HD
ATOM     13  H   UNL     1       0.299   0.704   0.796  0.00  0.00    -0.090 HD
ENDBRANCH   9  10
BRANCH   9  15
ATOM     14  C   UNL     1       0.429   1.751  -1.603  0.00  0.00    +0.002 C 
ATOM     15  C   UNL     1       0.203   0.258  -1.850  0.00  0.00    -0.018 C 
ENDBRANCH   9  15
ENDBRANCH   1   9
BRANCH   1  16
ATOM     16  S   UNL     1       1.448  -2.372  -2.668  0.00  0.00    -0.080 S 
BRANCH  16  17
ATOM     17  C   UNL     1       3.160  -2.007  -2.466  0.00  0.00    +0.193 A 
ATOM     18  N   UNL     1       3.736  -1.663  -1.351  0.00  0.00    -0.145 NA
ATOM     19  N   UNL     1       5.099  -1.462  -1.611  0.00  0.00    -0.226 N 
ATOM     20  H   UNL     1       5.774  -1.199  -0.966  0.00  0.00    +0.194 HD
ATOM     21  C   UNL     1       5.299  -1.702  -2.924  0.00  0.00    +0.345 A 
ATOM     22  O   UNL     1       6.361  -1.627  -3.515  0.00  0.00    -0.245 OA
ATOM     23  N   UNL     1       4.111  -2.044  -3.460  0.00  0.00    -0.271 N 
BRANCH  23  24
ATOM     24  C   UNL     1       3.872  -2.393  -4.863  0.00  0.00    +0.125 C 
ATOM     25  C   UNL     1       3.529  -1.128  -5.652  0.00  0.00    +0.027 C 
ENDBRANCH  23  24
ENDBRANCH  16  17
ENDBRANCH   1  16
TORSDOF 7
