REMARK  Name = ZINC04187776
REMARK  11 active torsions:
REMARK  status: ('A' for Active; 'I' for Inactive)
REMARK    1  A    between atoms: C_1  and  C_2
REMARK    2  A    between atoms: C_2  and  O_3
REMARK    3  A    between atoms: O_3  and  C_4
REMARK    4  A    between atoms: C_4  and  C_6
REMARK    5  A    between atoms: C_6  and  C_7
REMARK    6  A    between atoms: C_7  and  C_8
REMARK    7  A    between atoms: C_8  and  C_10
REMARK    8  A    between atoms: C_8  and  C_11
REMARK    9  A    between atoms: C_17  and  C_35
REMARK   10  A    between atoms: C_27  and  C_34
REMARK   11  A    between atoms: C_28  and  O_33
REMARK                            x       y       z     vdW  Elec       q    Type
REMARK                         _______ _______ _______ _____ _____    ______ ____
ROOT
ATOM      1  C   UNL     1      -0.532   2.031  -1.148  0.00  0.00    -0.002 C 
ATOM      2  C   UNL     1      -0.232   3.554  -1.161  0.00  0.00    +0.004 C 
ATOM      3  C   UNL     1      -1.595   4.272  -0.969  0.00  0.00    +0.004 C 
ATOM      4  C   UNL     1      -2.465   3.173  -0.339  0.00  0.00    -0.001 C 
ATOM      5  C   UNL     1      -2.068   1.943  -1.179  0.00  0.00    -0.026 C 
ATOM      6  C   UNL     1      -2.684   0.710  -0.581  0.00  0.00    +0.007 C 
ATOM      7  C   UNL     1      -4.206   0.858  -0.445  0.00  0.00    +0.005 C 
ATOM      8  C   UNL     1      -4.747   2.217  -0.830  0.00  0.00    +0.005 C 
ATOM      9  C   UNL     1      -3.943   3.389  -0.274  0.00  0.00    +0.000 C 
ATOM     10  C   UNL     1      -4.386   4.638  -1.058  0.00  0.00    +0.031 C 
ATOM     11  C   UNL     1      -5.871   4.789  -0.871  0.00  0.00    -0.027 C 
ATOM     12  C   UNL     1      -6.661   3.806  -0.570  0.00  0.00    -0.065 C 
ATOM     13  C   UNL     1      -6.206   2.377  -0.395  0.00  0.00    +0.018 C 
ATOM     14  C   UNL     1      -6.432   1.964   1.053  0.00  0.00    +0.125 C 
ATOM     15  C   UNL     1      -7.344   2.972   1.753  0.00  0.00    +0.032 C 
ATOM     16  C   UNL     1      -8.567   3.303   0.902  0.00  0.00    +0.007 C 
ATOM     17  C   UNL     1      -8.140   4.076  -0.352  0.00  0.00    +0.031 C 
ATOM     18  C   UNL     1      -7.058   1.481  -1.301  0.00  0.00    +0.018 C 
ATOM     19  C   UNL     1      -2.461   2.093  -2.656  0.00  0.00    +0.012 C 
ENDROOT
BRANCH   1  20
ATOM     20  C   UNL     1       0.054   1.389   0.102  0.00  0.00    -0.010 C 
ATOM     21  C   UNL     1      -0.408   2.164   1.337  0.00  0.00    +0.008 C 
BRANCH  20  22
ATOM     22  C   UNL     1       1.582   1.420   0.022  0.00  0.00    +0.014 C 
BRANCH  22  23
ATOM     23  C   UNL     1       2.170   0.685   1.228  0.00  0.00    +0.121 C 
BRANCH  23  24
ATOM     24  C   UNL     1       3.675   0.715   1.150  0.00  0.00    +0.307 C 
ATOM     25  O   UNL     1       4.221   1.268   0.225  0.00  0.00    -0.251 OA
BRANCH  24  26
ATOM     26  O   UNL     1       4.409   0.127   2.108  0.00  0.00    -0.465 OA
BRANCH  26  28
ATOM     27  C   UNL     1       6.514  -0.523   3.146  0.00  0.00    +0.048 C 
ATOM     28  C   UNL     1       5.852   0.196   1.968  0.00  0.00    +0.229 C 
ENDBRANCH  26  28
ENDBRANCH  24  26
ENDBRANCH  23  24
ENDBRANCH  22  23
ENDBRANCH  20  22
ENDBRANCH   1  20
BRANCH  14  29
ATOM     29  O   UNL     1      -7.052   0.674   1.088  0.00  0.00    -0.391 OA
ATOM     30  H   UNL     1      -7.227   0.345   1.980  0.00  0.00    +0.210 HD
ENDBRANCH  14  29
TORSDOF 7
