REMARK  Name = ZINC41070060
REMARK  6 active torsions:
REMARK  status: ('A' for Active; 'I' for Inactive)
REMARK    1  A    between atoms: C_1  and  C_2
REMARK    2  A    between atoms: C_7  and  N_10
REMARK    3  A    between atoms: N_10  and  S_11
REMARK    4  A    between atoms: S_11  and  C_14
REMARK    5  A    between atoms: C_19  and  N_20
REMARK    6  A    between atoms: N_20  and  N_21
REMARK                            x       y       z     vdW  Elec       q    Type
REMARK                         _______ _______ _______ _____ _____    ______ ____
ROOT
ATOM      1  S   UNL     1       0.919  -3.762   3.115  0.00  0.00    +0.062 S 
ATOM      2  O   UNL     1       1.616  -3.952   4.339  0.00  0.00    -0.153 OA
ATOM      3  O   UNL     1      -0.475  -3.491   3.067  0.00  0.00    -0.153 OA
ENDROOT
BRANCH   1   4
ATOM      4  C   UNL     1       1.183  -5.215   2.154  0.00  0.00    +0.147 A 
ATOM      5  C   UNL     1       0.116  -5.870   1.566  0.00  0.00    +0.048 A 
ATOM      6  C   UNL     1       0.370  -7.012   0.817  0.00  0.00    +0.038 A 
ATOM      7  C   UNL     1       1.671  -7.456   0.682  0.00  0.00    +0.128 A 
ATOM      8  N   UNL     1       2.669  -6.811   1.255  0.00  0.00    -0.236 NA
ATOM      9  C   UNL     1       2.468  -5.715   1.972  0.00  0.00    +0.159 A 
ATOM     10 BR   UNL     1      -1.050  -7.949  -0.009  0.00  0.00    -0.049 Br
BRANCH   9  11
ATOM     11  N   UNL     1       3.550  -5.063   2.552  0.00  0.00    -0.266 N 
ATOM     12  H   UNL     1       3.410  -4.248   3.059  0.00  0.00    +0.167 HD
BRANCH  11  13
ATOM     13  N   UNL     1       4.810  -5.570   2.408  0.00  0.00    -0.255 NA
ATOM     14  H   UNL     1       5.046  -5.680   1.433  0.00  0.00    +0.140 HD
ATOM     15  H   UNL     1       5.489  -4.992   2.881  0.00  0.00    +0.140 HD
ENDBRANCH  11  13
ENDBRANCH   9  11
ENDBRANCH   1   4
BRANCH   1  16
ATOM     16  N   UNL     1       1.671  -2.513   2.331  0.00  0.00    -0.187 NA
ATOM     17  H   UNL     1       2.413  -2.052   2.752  0.00  0.00    +0.148 HD
BRANCH  16  23
ATOM     18  C   UNL     1      -0.252   1.218  -0.281  0.00  0.00    +0.007 C 
ATOM     19  C   UNL     1       0.243  -0.228  -0.335  0.00  0.00    -0.013 C 
ATOM     20  C   UNL     1       1.404  -0.333  -1.327  0.00  0.00    +0.003 C 
ATOM     21  C   UNL     1       1.899  -1.779  -1.381  0.00  0.00    +0.002 C 
ATOM     22  C   UNL     1       2.376  -2.208   0.009  0.00  0.00    +0.020 C 
ATOM     23  C   UNL     1       1.215  -2.103   1.000  0.00  0.00    +0.077 C 
ATOM     24  C   UNL     1       0.720  -0.656   1.054  0.00  0.00    +0.023 C 
ENDBRANCH  16  23
ENDBRANCH   1  16
TORSDOF 5
