REMARK  Name = ZINC10246260
REMARK  7 active torsions:
REMARK  status: ('A' for Active; 'I' for Inactive)
REMARK    1  A    between atoms: C_1  and  C_2
REMARK    2  A    between atoms: C_2  and  C_3
REMARK    3  A    between atoms: C_3  and  C_5
REMARK    4  A    between atoms: C_3  and  C_11
REMARK    5  A    between atoms: N_13  and  C_14
REMARK    6  A    between atoms: C_22  and  C_23
REMARK    7  A    between atoms: N_25  and  C_26
REMARK                            x       y       z     vdW  Elec       q    Type
REMARK                         _______ _______ _______ _____ _____    ______ ____
ROOT
ATOM      1  C   UNL     1      -1.245  -2.054   0.369  0.00  0.00    +0.092 A 
ATOM      2  C   UNL     1      -2.380  -2.919   0.027  0.00  0.00    +0.042 A 
ATOM      3  C   UNL     1      -3.707  -2.683  -0.334  0.00  0.00    +0.013 A 
ATOM      4  C   UNL     1      -4.534  -3.736  -0.606  0.00  0.00    +0.001 A 
ATOM      5  C   UNL     1      -4.060  -5.039  -0.529  0.00  0.00    +0.004 A 
ATOM      6  C   UNL     1      -2.752  -5.293  -0.179  0.00  0.00    +0.047 A 
ATOM      7  C   UNL     1      -1.893  -4.236   0.102  0.00  0.00    +0.138 A 
ATOM      8  O   UNL     1      -0.595  -4.176   0.461  0.00  0.00    -0.448 OA
ATOM      9  C   UNL     1      -0.196  -2.895   0.624  0.00  0.00    +0.212 A 
ENDROOT
BRANCH   1  12
ATOM     10  C   UNL     1      -2.093   0.046  -0.334  0.00  0.00    +0.225 C 
ATOM     11  O   UNL     1      -2.818  -0.522  -1.123  0.00  0.00    -0.275 OA
ATOM     12  N   UNL     1      -1.238  -0.665   0.428  0.00  0.00    -0.281 N 
ATOM     13  H   UNL     1      -0.619  -0.207   1.018  0.00  0.00    +0.155 HD
BRANCH  10  14
ATOM     14  C   UNL     1      -2.147   1.546  -0.206  0.00  0.00    +0.105 C 
BRANCH  14  15
ATOM     15  C   UNL     1      -3.176   2.095  -1.160  0.00  0.00    -0.036 A 
ATOM     16  C   UNL     1      -3.039   1.885  -2.520  0.00  0.00    +0.004 A 
ATOM     17  C   UNL     1      -3.985   2.385  -3.395  0.00  0.00    +0.000 A 
ATOM     18  C   UNL     1      -5.063   3.102  -2.912  0.00  0.00    +0.000 A 
ATOM     19  C   UNL     1      -5.198   3.316  -1.553  0.00  0.00    +0.000 A 
ATOM     20  C   UNL     1      -4.254   2.813  -0.677  0.00  0.00    +0.004 A 
ENDBRANCH  14  15
BRANCH  14  22
ATOM     21  C   UNL     1      -0.796   3.646  -0.289  0.00  0.00    +0.005 C 
ATOM     22  C   UNL     1      -0.776   2.137  -0.539  0.00  0.00    +0.014 C 
ENDBRANCH  14  22
ENDBRANCH  10  14
ENDBRANCH   1  12
BRANCH   9  23
ATOM     23  C   UNL     1       1.148  -2.473   1.012  0.00  0.00    +0.285 C 
ATOM     24  O   UNL     1       1.370  -1.302   1.262  0.00  0.00    -0.266 OA
ATOM     25  N   UNL     1       2.142  -3.379   1.093  0.00  0.00    -0.279 N 
ATOM     26  H   UNL     1       1.949  -4.322   0.970  0.00  0.00    +0.155 HD
BRANCH  25  27
ATOM     27  C   UNL     1       3.451  -2.961   1.354  0.00  0.00    +0.037 A 
ATOM     28  C   UNL     1       4.303  -3.766   2.100  0.00  0.00    +0.026 A 
ATOM     29  C   UNL     1       5.597  -3.355   2.352  0.00  0.00    +0.043 A 
ATOM     30  C   UNL     1       6.043  -2.135   1.872  0.00  0.00    +0.159 A 
ATOM     31  C   UNL     1       5.194  -1.327   1.132  0.00  0.00    +0.160 A 
ATOM     32  C   UNL     1       3.899  -1.738   0.873  0.00  0.00    +0.064 A 
ATOM     33  F   UNL     1       5.631  -0.137   0.664  0.00  0.00    -0.202 F 
ATOM     34  F   UNL     1       7.308  -1.733   2.125  0.00  0.00    -0.202 F 
ENDBRANCH  25  27
ENDBRANCH   9  23
TORSDOF 6
