REMARK  Name = ZINC21221988
REMARK  8 active torsions:
REMARK  status: ('A' for Active; 'I' for Inactive)
REMARK    1  A    between atoms: C_1  and  O_2
REMARK    2  A    between atoms: O_2  and  C_3
REMARK    3  A    between atoms: C_6  and  O_40
REMARK    4  A    between atoms: C_7  and  C_9
REMARK    5  A    between atoms: C_14  and  C_24
REMARK    6  A    between atoms: C_28  and  O_30
REMARK    7  A    between atoms: O_30  and  C_31
REMARK    8  A    between atoms: O_40  and  C_41
REMARK                            x       y       z     vdW  Elec       q    Type
REMARK                         _______ _______ _______ _____ _____    ______ ____
ROOT
ATOM      1  C   UNL     1       5.230  -0.227  -1.615  0.00  0.00    +0.036 C 
ATOM      2  C   UNL     1       4.702  -0.337  -0.186  0.00  0.00    +0.060 C 
ATOM      3  C   UNL     1       3.352  -1.035  -0.182  0.00  0.00    +0.017 C 
ATOM      4  C   UNL     1       3.066  -1.973  -1.101  0.00  0.00    +0.036 C 
ATOM      5  C   UNL     1       1.772  -2.743  -1.208  0.00  0.00    +0.136 C 
ATOM      6  N   UNL     1       0.892  -2.600  -0.068  0.00  0.00    -0.331 N 
ATOM      7  C   UNL     1       0.328  -1.367   0.252  0.00  0.00    +0.049 A 
ATOM      8  C   UNL     1      -1.036  -1.147   0.143  0.00  0.00    +0.025 A 
ATOM      9  C   UNL     1      -1.546   0.112   0.409  0.00  0.00    +0.002 A 
ATOM     10  C   UNL     1      -0.702   1.148   0.765  0.00  0.00    +0.002 A 
ATOM     11  C   UNL     1       0.660   0.931   0.879  0.00  0.00    +0.025 A 
ATOM     12  C   UNL     1       1.168  -0.334   0.640  0.00  0.00    +0.052 A 
ATOM     13  N   UNL     1       2.513  -0.641   0.810  0.00  0.00    -0.316 N 
ATOM     14  C   UNL     1       4.020  -2.317  -2.088  0.00  0.00    +0.163 C 
ATOM     15  O   UNL     1       3.743  -3.184  -2.894  0.00  0.00    -0.292 OA
ATOM     16  C   UNL     1       5.359  -1.649  -2.175  0.00  0.00    +0.088 C 
ATOM     17  H   UNL     1       0.661  -3.473   0.561  0.00  0.00    +0.147 HD
ATOM     18  H   UNL     1       2.886  -0.545   1.841  0.00  0.00    +0.152 HD
ENDROOT
BRANCH   1  23
ATOM     19  C   UNL     1       8.861   0.518  -0.881  0.00  0.00    +0.121 A 
ATOM     20  C   UNL     1       9.057   1.685  -1.605  0.00  0.00    +0.049 A 
ATOM     21  C   UNL     1       8.016   2.230  -2.331  0.00  0.00    +0.049 A 
ATOM     22  C   UNL     1       6.775   1.611  -2.335  0.00  0.00    +0.124 A 
ATOM     23  C   UNL     1       6.579   0.445  -1.611  0.00  0.00    +0.002 A 
ATOM     24  C   UNL     1       7.619  -0.098  -0.881  0.00  0.00    +0.053 A 
BRANCH  19  26
ATOM     25  C   UNL     1      11.137   0.671  -0.207  0.00  0.00    +0.277 C 
ATOM     26  O   UNL     1       9.886  -0.019  -0.166  0.00  0.00    -0.495 OA
ENDBRANCH  19  26
BRANCH  22  27
ATOM     27  O   UNL     1       5.750   2.148  -3.050  0.00  0.00    -0.495 OA
ATOM     28  C   UNL     1       6.023   3.350  -3.772  0.00  0.00    +0.277 C 
ENDBRANCH  22  27
ENDBRANCH   1  23
BRANCH   5  29
ATOM     29  C   UNL     1       1.040  -2.272  -2.438  0.00  0.00    -0.019 A 
ATOM     30  C   UNL     1       0.841  -3.137  -3.498  0.00  0.00    +0.006 A 
ATOM     31  C   UNL     1       0.165  -2.710  -4.625  0.00  0.00    +0.004 A 
ATOM     32  C   UNL     1      -0.304  -1.412  -4.700  0.00  0.00    +0.046 A 
ATOM     33  C   UNL     1      -0.101  -0.540  -3.641  0.00  0.00    +0.129 A 
ATOM     34  C   UNL     1       0.573  -0.974  -2.508  0.00  0.00    +0.052 A 
BRANCH  33  35
ATOM     35  O   UNL     1      -0.561   0.736  -3.712  0.00  0.00    -0.456 OA
BRANCH  35  36
ATOM     36  C   UNL     1      -1.891   0.946  -3.525  0.00  0.00    +0.128 A 
ATOM     37  C   UNL     1      -2.719  -0.110  -3.173  0.00  0.00    +0.046 A 
ATOM     38  C   UNL     1      -4.069   0.107  -2.978  0.00  0.00    +0.004 A 
ATOM     39  C   UNL     1      -4.598   1.373  -3.145  0.00  0.00    +0.000 A 
ATOM     40  C   UNL     1      -3.776   2.427  -3.502  0.00  0.00    +0.004 A 
ATOM     41  C   UNL     1      -2.425   2.216  -3.693  0.00  0.00    +0.046 A 
ENDBRANCH  35  36
ENDBRANCH  33  35
ENDBRANCH   5  29
TORSDOF 6
