REMARK  Name = ZINC37340483
REMARK  6 active torsions:
REMARK  status: ('A' for Active; 'I' for Inactive)
REMARK    1  A    between atoms: C_1  and  C_2
REMARK    2  A    between atoms: C_2  and  C_3
REMARK    3  A    between atoms: C_2  and  C_4
REMARK    4  A    between atoms: N_8  and  C_9
REMARK    5  A    between atoms: C_9  and  C_10
REMARK    6  A    between atoms: C_10  and  C_12
REMARK                            x       y       z     vdW  Elec       q    Type
REMARK                         _______ _______ _______ _____ _____    ______ ____
ROOT
ATOM      1  C   UNL     1      -1.412  -0.526   0.013  0.00  0.00    +0.090 A 
ATOM      2  N   UNL     1      -2.421   0.026   0.629  0.00  0.00    -0.349 N 
ATOM      3  C   UNL     1      -3.523  -0.710   0.420  0.00  0.00    +0.101 A 
ATOM      4  C   UNL     1      -3.183  -1.758  -0.356  0.00  0.00    +0.105 A 
ATOM      5  N   UNL     1      -1.845  -1.638  -0.619  0.00  0.00    -0.328 N 
ATOM      6  H   UNL     1      -2.381   0.840   1.155  0.00  0.00    +0.166 HD
ENDROOT
BRANCH   1   8
ATOM      7  C   UNL     1      -0.019   1.526   0.010  0.00  0.00    +0.015 C 
ATOM      8  C   UNL     1       0.002  -0.004   0.002  0.00  0.00    +0.047 C 
ATOM      9  C   UNL     1       0.742  -0.511   1.242  0.00  0.00    +0.015 C 
ENDBRANCH   1   8
BRANCH   5  10
ATOM     10  C   UNL     1      -1.034  -2.549  -1.431  0.00  0.00    +0.203 C 
BRANCH  10  11
ATOM     11  C   UNL     1      -0.364  -3.559  -0.535  0.00  0.00    +0.189 C 
ATOM     12  O   UNL     1      -0.546  -3.522   0.665  0.00  0.00    -0.290 OA
BRANCH  11  13
ATOM     13  C   UNL     1       0.475  -4.548  -1.091  0.00  0.00    +0.057 A 
ATOM     14  C   UNL     1       1.177  -5.565  -0.450  0.00  0.00    +0.020 A 
ATOM     15  C   UNL     1       1.916  -6.382  -1.265  0.00  0.00    +0.023 A 
ATOM     16  C   UNL     1       1.918  -6.153  -2.605  0.00  0.00    +0.056 A 
ATOM     17  S   UNL     1       0.908  -4.824  -2.798  0.00  0.00    -0.078 S 
ATOM     18 BR   UNL     1       2.840  -7.115  -3.947  0.00  0.00    -0.043 Br
ENDBRANCH  11  13
ENDBRANCH  10  11
ENDBRANCH   5  10
TORSDOF 4
