REMARK  Name = ZINC25265569
REMARK  10 active torsions:
REMARK  status: ('A' for Active; 'I' for Inactive)
REMARK    1  A    between atoms: C_1  and  C_2
REMARK    2  A    between atoms: C_5  and  N_8
REMARK    3  A    between atoms: C_9  and  C_11
REMARK    4  A    between atoms: C_11  and  S_12
REMARK    5  A    between atoms: S_12  and  C_13
REMARK    6  A    between atoms: C_13  and  C_15
REMARK    7  A    between atoms: C_13  and  C_16
REMARK    8  A    between atoms: N_18  and  C_19
REMARK    9  A    between atoms: C_24  and  S_25
REMARK   10  A    between atoms: S_25  and  C_26
REMARK                            x       y       z     vdW  Elec       q    Type
REMARK                         _______ _______ _______ _____ _____    ______ ____
ROOT
ATOM      1  C   UNL     1       5.855   1.474  -1.074  0.00  0.00    +0.230 C 
ATOM      2  O   UNL     1       5.984   0.282  -1.260  0.00  0.00    -0.274 OA
ATOM      3  N   UNL     1       6.929   2.286  -1.135  0.00  0.00    -0.284 N 
ATOM      4  H   UNL     1       6.830   3.350  -0.874  0.00  0.00    +0.155 HD
ENDROOT
BRANCH   3   5
ATOM      5  C   UNL     1       8.172   1.774  -1.532  0.00  0.00    +0.047 A 
ATOM      6  C   UNL     1       8.241   0.581  -2.235  0.00  0.00    +0.024 A 
ATOM      7  C   UNL     1       9.468   0.081  -2.628  0.00  0.00    +0.002 A 
ATOM      8  C   UNL     1      10.631   0.762  -2.315  0.00  0.00    +0.001 A 
ATOM      9  C   UNL     1      10.572   1.949  -1.610  0.00  0.00    +0.016 A 
ATOM     10  C   UNL     1       9.344   2.461  -1.215  0.00  0.00    +0.029 A 
BRANCH  10  11
ATOM     11  S   UNL     1       9.266   3.975  -0.316  0.00  0.00    -0.120 S 
BRANCH  11  12
ATOM     12  C   UNL     1      11.001   4.477  -0.150  0.00  0.00    +0.051 C 
ATOM     13  C   UNL     1      11.754   3.486   0.762  0.00  0.00    +0.014 C 
ATOM     14  C   UNL     1      12.730   4.379   1.568  0.00  0.00    +0.001 C 
ATOM     15  C   UNL     1      11.891   5.654   1.831  0.00  0.00    +0.001 C 
ATOM     16  C   UNL     1      11.089   5.855   0.529  0.00  0.00    +0.014 C 
ENDBRANCH  11  12
ENDBRANCH  10  11
ENDBRANCH   3   5
BRANCH   1  17
ATOM     17  C   UNL     1       4.493   2.046  -0.775  0.00  0.00    +0.130 C 
ATOM     18  C   UNL     1       4.357   2.277   0.732  0.00  0.00    +0.029 C 
BRANCH  17  19
ATOM     19  S   UNL     1       3.214   0.885  -1.327  0.00  0.00    -0.139 S 
BRANCH  19  20
ATOM     20  C   UNL     1       1.660   1.775  -1.040  0.00  0.00    +0.165 C 
BRANCH  20  22
ATOM     21  N   UNL     1      -0.761   1.370  -1.345  0.00  0.00    -0.285 N 
ATOM     22  C   UNL     1       0.500   0.911  -1.462  0.00  0.00    +0.227 C 
ATOM     23  O   UNL     1       0.702  -0.197  -1.913  0.00  0.00    -0.275 OA
ATOM     24  H   UNL     1      -0.950   2.343  -0.867  0.00  0.00    +0.155 HD
BRANCH  21  29
ATOM     25  C   UNL     1      -5.099  -1.710  -3.315  0.00  0.00    +0.044 C 
ATOM     26  C   UNL     1      -3.946  -0.892  -2.792  0.00  0.00    -0.050 A 
ATOM     27  C   UNL     1      -2.855  -1.522  -2.223  0.00  0.00    +0.005 A 
ATOM     28  C   UNL     1      -1.797  -0.775  -1.742  0.00  0.00    +0.023 A 
ATOM     29  C   UNL     1      -1.831   0.611  -1.831  0.00  0.00    +0.033 A 
ATOM     30  C   UNL     1      -2.931   1.241  -2.398  0.00  0.00    +0.023 A 
ATOM     31  C   UNL     1      -3.983   0.488  -2.881  0.00  0.00    +0.005 A 
ENDBRANCH  21  29
ENDBRANCH  20  22
ENDBRANCH  19  20
ENDBRANCH  17  19
ENDBRANCH   1  17
TORSDOF 8
