REMARK  Name = ZINC17633849
REMARK  7 active torsions:
REMARK  status: ('A' for Active; 'I' for Inactive)
REMARK    1  A    between atoms: C_4  and  C_7
REMARK    2  A    between atoms: N_10  and  C_12
REMARK    3  A    between atoms: C_12  and  C_13
REMARK    4  A    between atoms: C_16  and  C_19
REMARK    5  A    between atoms: N_21  and  N_22
REMARK    6  A    between atoms: C_23  and  C_25
REMARK    7  A    between atoms: C_25  and  C_26
REMARK                            x       y       z     vdW  Elec       q    Type
REMARK                         _______ _______ _______ _____ _____    ______ ____
ROOT
ATOM      1  C   UNL     1      -0.513   1.424  -4.808  0.00  0.00    +0.260 C 
ATOM      2  O   UNL     1       0.484   0.739  -4.933  0.00  0.00    -0.269 OA
ATOM      3  N   UNL     1      -0.966   1.736  -3.578  0.00  0.00    -0.230 N 
ATOM      4  H   UNL     1      -1.761   2.283  -3.479  0.00  0.00    +0.173 HD
ENDROOT
BRANCH   1   8
ATOM      5  C   UNL     1      -2.568   2.830  -8.249  0.00  0.00    -0.024 A 
ATOM      6  C   UNL     1      -1.434   2.051  -8.395  0.00  0.00    +0.006 A 
ATOM      7  C   UNL     1      -0.761   1.591  -7.282  0.00  0.00    +0.013 A 
ATOM      8  C   UNL     1      -1.228   1.913  -6.006  0.00  0.00    +0.038 A 
ATOM      9  C   UNL     1      -2.376   2.695  -5.866  0.00  0.00    +0.013 A 
ATOM     10  C   UNL     1      -3.036   3.152  -6.988  0.00  0.00    +0.006 A 
BRANCH   5  11
ATOM     11  C   UNL     1      -3.298   3.328  -9.470  0.00  0.00    +0.203 C 
BRANCH  11  15
ATOM     12  C   UNL     1      -6.143   1.314 -10.018  0.00  0.00    +0.205 A 
ATOM     13  N   UNL     1      -5.234   0.712 -10.798  0.00  0.00    -0.108 NA
ATOM     14  N   UNL     1      -4.133   1.374 -10.683  0.00  0.00    -0.045 NA
ATOM     15  N   UNL     1      -4.316   2.350  -9.864  0.00  0.00    -0.158 N 
ATOM     16  N   UNL     1      -5.535   2.335  -9.448  0.00  0.00    -0.130 NA
BRANCH  12  20
ATOM     17  C   UNL     1     -10.200   0.153  -9.485  0.00  0.00    +0.000 A 
ATOM     18  C   UNL     1      -9.381  -0.573 -10.329  0.00  0.00    +0.001 A 
ATOM     19  C   UNL     1      -8.063  -0.201 -10.506  0.00  0.00    +0.012 A 
ATOM     20  C   UNL     1      -7.559   0.909  -9.832  0.00  0.00    +0.023 A 
ATOM     21  C   UNL     1      -8.387   1.633  -8.977  0.00  0.00    +0.012 A 
ATOM     22  C   UNL     1      -9.705   1.256  -8.812  0.00  0.00    +0.001 A 
ENDBRANCH  12  20
ENDBRANCH  11  15
ENDBRANCH   5  11
ENDBRANCH   1   8
BRANCH   3  23
ATOM     23  N   UNL     1      -0.288   1.272  -2.443  0.00  0.00    -0.234 N 
ATOM     24  C   UNL     1      -0.742   1.585  -1.213  0.00  0.00    +0.231 C 
ATOM     25  O   UNL     1      -1.736   2.268  -1.088  0.00  0.00    -0.274 OA
ATOM     26  H   UNL     1       0.507   0.726  -2.543  0.00  0.00    +0.173 HD
BRANCH  24  27
ATOM     27  C   UNL     1      -0.013   1.086   0.008  0.00  0.00    +0.121 C 
BRANCH  27  28
ATOM     28  C   UNL     1      -0.729   1.579   1.267  0.00  0.00    +0.146 C 
ATOM     29  C   UNL     1       0.063   1.187   2.487  0.00  0.00    +0.231 C 
ATOM     30  O   UNL     1       0.794   2.013   2.991  0.00  0.00    -0.274 OA
ATOM     31  N   UNL     1      -0.001  -0.021   3.038  0.00  0.00    -0.284 N 
ATOM     32  C   UNL     1      -0.856  -1.057   2.675  0.00  0.00    +0.047 A 
ATOM     33  C   UNL     1      -0.588  -2.348   3.117  0.00  0.00    +0.024 A 
ATOM     34  C   UNL     1      -1.419  -3.393   2.764  0.00  0.00    +0.002 A 
ATOM     35  C   UNL     1      -2.532  -3.167   1.975  0.00  0.00    +0.001 A 
ATOM     36  C   UNL     1      -2.821  -1.885   1.543  0.00  0.00    +0.016 A 
ATOM     37  C   UNL     1      -1.993  -0.833   1.898  0.00  0.00    +0.030 A 
ATOM     38  S   UNL     1      -2.374   0.810   1.377  0.00  0.00    -0.110 S 
ATOM     39  H   UNL     1       0.611  -0.198   3.770  0.00  0.00    +0.155 HD
ENDBRANCH  27  28
ENDBRANCH  24  27
ENDBRANCH   3  23
TORSDOF 7
