REMARK  Name = ZINC16248840
REMARK  6 active torsions:
REMARK  status: ('A' for Active; 'I' for Inactive)
REMARK    1  A    between atoms: C_1  and  S_2
REMARK    2  A    between atoms: S_2  and  C_3
REMARK    3  A    between atoms: C_8  and  S_12
REMARK    4  A    between atoms: S_12  and  N_15
REMARK    5  A    between atoms: N_15  and  C_16
REMARK    6  A    between atoms: C_20  and  C_22
REMARK                            x       y       z     vdW  Elec       q    Type
REMARK                         _______ _______ _______ _____ _____    ______ ____
ROOT
ATOM      1  S   UNL     1      -5.119   3.304   0.370  0.00  0.00    +0.072 S 
ATOM      2  O   UNL     1      -5.820   4.376   0.984  0.00  0.00    -0.150 OA
ATOM      3  O   UNL     1      -5.773   2.311  -0.408  0.00  0.00    -0.150 OA
ENDROOT
BRANCH   1   9
ATOM      4  C   UNL     1      -0.714   7.110  -2.809  0.00  0.00    +0.135 A 
ATOM      5  N   UNL     1      -1.017   5.855  -3.059  0.00  0.00    -0.233 NA
ATOM      6  C   UNL     1      -1.937   5.175  -2.342  0.00  0.00    +0.080 A 
ATOM      7  C   UNL     1      -2.353   3.833  -2.505  0.00  0.00    +0.031 A 
ATOM      8  C   UNL     1      -3.307   3.291  -1.683  0.00  0.00    +0.031 A 
ATOM      9  C   UNL     1      -3.896   4.032  -0.669  0.00  0.00    +0.110 A 
ATOM     10  C   UNL     1      -3.509   5.346  -0.478  0.00  0.00    +0.046 A 
ATOM     11  C   UNL     1      -2.558   5.899  -1.299  0.00  0.00    +0.042 A 
ATOM     12  S   UNL     1      -1.780   7.490  -1.426  0.00  0.00    -0.061 S 
BRANCH   4  14
ATOM     13  C   UNL     1       1.074   7.001  -4.878  0.00  0.00    +0.092 C 
ATOM     14  S   UNL     1       0.447   8.151  -3.629  0.00  0.00    -0.102 S 
ENDBRANCH   4  14
ENDBRANCH   1   9
BRANCH   1  15
ATOM     15  N   UNL     1      -4.320   2.506   1.581  0.00  0.00    -0.216 N 
ATOM     16  H   UNL     1      -4.401   1.542   1.663  0.00  0.00    +0.174 HD
BRANCH  15  17
ATOM     17  C   UNL     1      -3.529   3.219   2.485  0.00  0.00    +0.048 A 
ATOM     18  C   UNL     1      -2.144   3.155   2.400  0.00  0.00    +0.024 A 
ATOM     19  C   UNL     1      -1.366   3.866   3.292  0.00  0.00    +0.002 A 
ATOM     20  C   UNL     1      -1.963   4.633   4.276  0.00  0.00    +0.009 A 
ATOM     21  C   UNL     1      -3.342   4.694   4.366  0.00  0.00    +0.010 A 
ATOM     22  C   UNL     1      -4.126   3.990   3.474  0.00  0.00    +0.033 A 
BRANCH  21  23
ATOM     23  C   UNL     1      -3.989   5.531   5.440  0.00  0.00    +0.282 C 
ATOM     24  O   UNL     1      -4.808   6.534   4.833  0.00  0.00    -0.347 OA
ATOM     25  C   UNL     1      -5.447   7.402   5.774  0.00  0.00    +0.165 C 
ATOM     26  C   UNL     1      -4.375   8.081   6.634  0.00  0.00    +0.056 C 
ATOM     27  C   UNL     1      -3.491   7.000   7.266  0.00  0.00    +0.165 C 
ATOM     28  O   UNL     1      -2.976   6.158   6.231  0.00  0.00    -0.347 OA
ENDBRANCH  21  23
ENDBRANCH  15  17
ENDBRANCH   1  15
TORSDOF 5
