REMARK  Name = ZINC36646172
REMARK  5 active torsions:
REMARK  status: ('A' for Active; 'I' for Inactive)
REMARK    1  A    between atoms: C_1  and  C_2
REMARK    2  A    between atoms: C_6  and  C_8
REMARK    3  A    between atoms: C_8  and  S_9
REMARK    4  A    between atoms: S_9  and  C_10
REMARK    5  A    between atoms: N_23  and  N_24
REMARK                            x       y       z     vdW  Elec       q    Type
REMARK                         _______ _______ _______ _____ _____    ______ ____
ROOT
ATOM      1  C   UNL     1       1.622  -4.015   4.517  0.00  0.00    +0.190 A 
ATOM      2  N   UNL     1       0.425  -4.306   4.984  0.00  0.00    -0.215 NA
ATOM      3  C   UNL     1       0.284  -4.974   6.123  0.00  0.00    +0.117 A 
ATOM      4  C   UNL     1       1.387  -5.400   6.881  0.00  0.00    +0.077 A 
ATOM      5  C   UNL     1       1.074  -6.125   8.115  0.00  0.00    -0.023 A 
ATOM      6  C   UNL     1      -0.230  -6.311   8.400  0.00  0.00    -0.004 A 
ATOM      7  S   UNL     1      -1.108  -5.546   7.065  0.00  0.00    -0.073 S 
ATOM      8  C   UNL     1      -0.807  -7.015   9.591  0.00  0.00    +0.043 C 
ATOM      9  C   UNL     1       0.311  -7.824  10.264  0.00  0.00    +0.005 C 
ATOM     10  C   UNL     1       1.542  -6.926  10.419  0.00  0.00    +0.005 C 
ATOM     11  C   UNL     1       2.160  -6.652   9.048  0.00  0.00    +0.037 C 
ATOM     12  C   UNL     1       2.674  -5.070   6.349  0.00  0.00    +0.280 A 
ATOM     13  O   UNL     1       3.689  -5.399   6.939  0.00  0.00    -0.265 OA
ATOM     14  N   UNL     1       2.748  -4.396   5.187  0.00  0.00    -0.209 N 
ENDROOT
BRANCH  14  15
ATOM     15  N   UNL     1       3.973  -4.082   4.671  0.00  0.00    -0.293 N 
ATOM     16  H   UNL     1       3.881  -3.575   3.803  0.00  0.00    +0.163 HD
ATOM     17  H   UNL     1       4.523  -3.561   5.337  0.00  0.00    +0.163 HD
ENDBRANCH  14  15
BRANCH   1  18
ATOM     18  S   UNL     1       1.770  -3.127   3.002  0.00  0.00    -0.081 S 
BRANCH  18  19
ATOM     19  C   UNL     1       0.054  -2.845   2.489  0.00  0.00    +0.112 C 
BRANCH  19  25
ATOM     20  C   UNL     1      -0.018   1.503   0.010  0.00  0.00    +0.044 C 
ATOM     21  C   UNL     1       0.002  -0.004   0.002  0.00  0.00    -0.050 A 
ATOM     22  C   UNL     1       0.006  -0.689  -1.199  0.00  0.00    +0.003 A 
ATOM     23  C   UNL     1       0.025  -2.071  -1.207  0.00  0.00    +0.001 A 
ATOM     24  C   UNL     1       0.040  -2.768  -0.013  0.00  0.00    +0.004 A 
ATOM     25  C   UNL     1       0.037  -2.084   1.188  0.00  0.00    -0.037 A 
ATOM     26  C   UNL     1       0.023  -0.702   1.195  0.00  0.00    +0.007 A 
ENDBRANCH  19  25
ENDBRANCH  18  19
ENDBRANCH   1  18
TORSDOF 4
