REMARK  Name = ZINC62824309
REMARK  3 active torsions:
REMARK  status: ('A' for Active; 'I' for Inactive)
REMARK    1  A    between atoms: C_3  and  N_19
REMARK    2  A    between atoms: C_4  and  C_8
REMARK    3  A    between atoms: C_10  and  C_13
REMARK                            x       y       z     vdW  Elec       q    Type
REMARK                         _______ _______ _______ _____ _____    ______ ____
ROOT
ATOM      1  C   UNL     1       3.706  -0.667  -0.095  0.00  0.00    +0.260 A 
ATOM      2  N   UNL     1       3.874  -1.965  -0.228  0.00  0.00    -0.191 NA
ATOM      3  C   UNL     1       5.177  -2.257  -0.231  0.00  0.00    +0.175 A 
ATOM      4  N   UNL     1       5.862  -1.157  -0.100  0.00  0.00    -0.061 NA
ATOM      5  O   UNL     1       4.921  -0.097  -0.013  0.00  0.00    -0.333 OA
ENDROOT
BRANCH   1   9
ATOM      6  C   UNL     1      -0.023   1.369   0.037  0.00  0.00    +0.016 A 
ATOM      7  C   UNL     1       0.949   1.666   0.972  0.00  0.00    +0.024 A 
ATOM      8  C   UNL     1       2.170   1.007   0.938  0.00  0.00    +0.037 A 
ATOM      9  C   UNL     1       2.411   0.039  -0.049  0.00  0.00    +0.061 A 
ATOM     10  C   UNL     1       1.419  -0.251  -0.987  0.00  0.00    +0.029 A 
ATOM     11  C   UNL     1       0.212   0.414  -0.939  0.00  0.00    +0.014 A 
ATOM     12  I   UNL     1      -1.275  -0.024  -2.349  0.00  0.00    -0.044 I 
BRANCH   8  13
ATOM     13  N   UNL     1       3.151   1.306   1.879  0.00  0.00    -0.357 N 
ATOM     14  H   UNL     1       3.019   2.037   2.502  0.00  0.00    +0.142 HD
ATOM     15  H   UNL     1       3.967   0.783   1.911  0.00  0.00    +0.142 HD
ENDBRANCH   8  13
ENDBRANCH   1   9
BRANCH   3  16
ATOM     16  C   UNL     1       5.761  -3.640  -0.364  0.00  0.00    +0.060 C 
ATOM     17  C   UNL     1       6.650  -3.700  -1.608  0.00  0.00    +0.011 C 
ATOM     18  C   UNL     1       7.244  -5.104  -1.742  0.00  0.00    +0.001 C 
ATOM     19  C   UNL     1       8.080  -5.426  -0.502  0.00  0.00    +0.000 C 
ATOM     20  C   UNL     1       7.191  -5.365   0.742  0.00  0.00    +0.001 C 
ATOM     21  C   UNL     1       6.597  -3.961   0.877  0.00  0.00    +0.011 C 
ENDBRANCH   3  16
TORSDOF 3
