REMARK  Name = ZINC04511139
REMARK  6 active torsions:
REMARK  status: ('A' for Active; 'I' for Inactive)
REMARK    1  A    between atoms: C_1  and  C_2
REMARK    2  A    between atoms: C_7  and  C_8
REMARK    3  A    between atoms: C_14  and  C_19
REMARK    4  A    between atoms: C_16  and  C_18
REMARK    5  A    between atoms: C_21  and  C_26
REMARK    6  A    between atoms: C_23  and  C_25
REMARK                            x       y       z     vdW  Elec       q    Type
REMARK                         _______ _______ _______ _____ _____    ______ ____
ROOT
ATOM      1  C   UNL     1       4.761   4.052   1.087  0.00  0.00    +0.044 C 
ATOM      2  C   UNL     1       3.506   3.315   0.696  0.00  0.00    -0.045 A 
ATOM      3  C   UNL     1       3.498   1.953   0.702  0.00  0.00    +0.033 A 
ATOM      4  C   UNL     1       2.331   1.261   0.339  0.00  0.00    +0.092 A 
ATOM      5  C   UNL     1       1.175   1.995  -0.029  0.00  0.00    +0.092 A 
ATOM      6  C   UNL     1       1.221   3.399  -0.023  0.00  0.00    +0.033 A 
ATOM      7  C   UNL     1       2.371   4.036   0.335  0.00  0.00    -0.045 A 
ATOM      8  C   UNL     1       2.414   5.542   0.340  0.00  0.00    +0.044 C 
ATOM      9  N   UNL     1       0.057   1.345  -0.376  0.00  0.00    -0.223 NA
ATOM     10  C   UNL     1       0.040   0.028  -0.375  0.00  0.00    +0.200 A 
ATOM     11  C   UNL     1       1.190  -0.703  -0.009  0.00  0.00    +0.200 A 
ATOM     12  N   UNL     1       2.296  -0.078   0.336  0.00  0.00    -0.223 NA
ATOM     13  N   UNL     1       1.155  -2.098  -0.012  0.00  0.00    -0.215 N 
ATOM     14  C   UNL     1       1.958  -2.918  -0.740  0.00  0.00    +0.044 A 
ATOM     15  C   UNL     1       1.605  -4.192  -0.457  0.00  0.00    +0.048 A 
ATOM     16  C   UNL     1       0.551  -4.155   0.463  0.00  0.00    +0.061 A 
ATOM     17  N   UNL     1       0.281  -2.903   0.730  0.00  0.00    -0.170 NA
ATOM     18  C   UNL     1      -0.152  -5.353   1.047  0.00  0.00    +0.067 C 
ATOM     19  C   UNL     1       3.046  -2.485  -1.688  0.00  0.00    +0.066 C 
ATOM     20  N   UNL     1      -1.125  -0.649  -0.737  0.00  0.00    -0.215 N 
ATOM     21  C   UNL     1      -2.333  -0.084  -0.995  0.00  0.00    +0.044 A 
ATOM     22  C   UNL     1      -3.193  -1.079  -1.311  0.00  0.00    +0.048 A 
ATOM     23  C   UNL     1      -2.496  -2.291  -1.237  0.00  0.00    +0.061 A 
ATOM     24  N   UNL     1      -1.260  -2.035  -0.894  0.00  0.00    -0.170 NA
ATOM     25  C   UNL     1      -3.071  -3.657  -1.506  0.00  0.00    +0.067 C 
ATOM     26  C   UNL     1      -2.657   1.387  -0.943  0.00  0.00    +0.066 C 
ENDROOT
TORSDOF 0
