REMARK  Name = ZINC08427614
REMARK  5 active torsions:
REMARK  status: ('A' for Active; 'I' for Inactive)
REMARK    1  A    between atoms: C_1  and  C_2
REMARK    2  A    between atoms: N_12  and  N_13
REMARK    3  A    between atoms: C_14  and  C_16
REMARK    4  A    between atoms: C_16  and  O_17
REMARK    5  A    between atoms: O_17  and  C_18
REMARK                            x       y       z     vdW  Elec       q    Type
REMARK                         _______ _______ _______ _____ _____    ______ ____
ROOT
ATOM      1  C   UNL     1      -0.018   1.503   0.010  0.00  0.00    +0.046 C 
ATOM      2  C   UNL     1       0.002  -0.004   0.002  0.00  0.00    -0.028 A 
ATOM      3  C   UNL     1       0.006  -0.686  -1.198  0.00  0.00    +0.020 A 
ATOM      4  C   UNL     1       0.025  -2.071  -1.222  0.00  0.00    +0.019 A 
ATOM      5  C   UNL     1       0.041  -2.784  -0.038  0.00  0.00    +0.027 A 
ATOM      6  C   UNL     1       0.037  -2.105   1.175  0.00  0.00    +0.029 A 
ATOM      7  C   UNL     1       0.023  -0.704   1.203  0.00  0.00    +0.046 A 
ATOM      8  N   UNL     1       0.029  -0.271   2.525  0.00  0.00    -0.279 N 
ATOM      9  C   UNL     1       0.050  -1.306   3.381  0.00  0.00    +0.269 C 
ATOM     10  O   UNL     1       0.060  -1.231   4.596  0.00  0.00    -0.268 OA
ATOM     11  C   UNL     1       0.050  -2.552   2.587  0.00  0.00    +0.153 C 
ATOM     12  N   UNL     1       0.068  -3.784   3.034  0.00  0.00    -0.174 NA
ATOM     13 BR   UNL     1       0.029  -2.987  -2.877  0.00  0.00    -0.050 Br
ATOM     14  H   UNL     1       0.018   0.661   2.794  0.00  0.00    +0.155 HD
ENDROOT
BRANCH  12  15
ATOM     15  N   UNL     1       0.078  -4.028   4.414  0.00  0.00    -0.203 N 
ATOM     16  C   UNL     1       0.097  -5.295   4.874  0.00  0.00    +0.270 C 
ATOM     17  O   UNL     1       0.106  -6.223   4.093  0.00  0.00    -0.270 OA
ATOM     18  H   UNL     1       0.071  -3.285   5.038  0.00  0.00    +0.177 HD
BRANCH  16  19
ATOM     19  C   UNL     1       0.107  -5.558   6.357  0.00  0.00    +0.326 C 
BRANCH  19  20
ATOM     20  O   UNL     1       0.127  -6.967   6.591  0.00  0.00    -0.483 OA
BRANCH  20  21
ATOM     21  C   UNL     1       0.139  -7.377   7.887  0.00  0.00    +0.122 A 
ATOM     22  C   UNL     1       0.126  -6.442   8.912  0.00  0.00    +0.046 A 
ATOM     23  C   UNL     1       0.137  -6.861  10.228  0.00  0.00    +0.005 A 
ATOM     24  C   UNL     1       0.163  -8.211  10.525  0.00  0.00    +0.015 A 
ATOM     25  C   UNL     1       0.176  -9.146   9.505  0.00  0.00    +0.021 A 
ATOM     26  C   UNL     1       0.158  -8.731   8.187  0.00  0.00    +0.061 A 
ATOM     27 BR   UNL     1       0.212 -10.992   9.915  0.00  0.00    -0.050 Br
ENDBRANCH  20  21
ENDBRANCH  19  20
ENDBRANCH  16  19
ENDBRANCH  12  15
TORSDOF 4
