REMARK  Name = ZINC12362096
REMARK  11 active torsions:
REMARK  status: ('A' for Active; 'I' for Inactive)
REMARK    1  A    between atoms: C_1  and  C_2
REMARK    2  A    between atoms: C_2  and  N_7
REMARK    3  A    between atoms: C_3  and  C_4
REMARK    4  A    between atoms: C_4  and  C_6
REMARK    5  A    between atoms: N_7  and  C_8
REMARK    6  A    between atoms: C_11  and  C_14
REMARK    7  A    between atoms: C_17  and  N_20
REMARK    8  A    between atoms: N_20  and  C_21
REMARK    9  A    between atoms: C_21  and  C_26
REMARK   10  A    between atoms: C_22  and  C_23
REMARK   11  A    between atoms: C_23  and  C_25
REMARK                            x       y       z     vdW  Elec       q    Type
REMARK                         _______ _______ _______ _____ _____    ______ ____
ROOT
ATOM      1  C   UNL     1      -0.230   0.356  -2.334  0.00  0.00    +0.031 A 
ATOM      2  C   UNL     1      -0.134   1.743  -2.317  0.00  0.00    +0.024 A 
ATOM      3  C   UNL     1      -0.137   2.450  -3.500  0.00  0.00    +0.010 A 
ATOM      4  C   UNL     1      -0.236   1.773  -4.715  0.00  0.00    -0.018 A 
ATOM      5  C   UNL     1      -0.331   0.382  -4.730  0.00  0.00    +0.010 A 
ATOM      6  C   UNL     1      -0.322  -0.321  -3.545  0.00  0.00    +0.024 A 
ENDROOT
BRANCH   4   7
ATOM      7  C   UNL     1      -0.240   2.532  -5.990  0.00  0.00    -0.018 A 
ATOM      8  C   UNL     1      -0.140   3.922  -5.975  0.00  0.00    +0.010 A 
ATOM      9  C   UNL     1      -0.144   4.625  -7.161  0.00  0.00    +0.024 A 
ATOM     10  C   UNL     1      -0.248   3.949  -8.371  0.00  0.00    +0.031 A 
ATOM     11  C   UNL     1      -0.349   2.562  -8.388  0.00  0.00    +0.024 A 
ATOM     12  C   UNL     1      -0.339   1.855  -7.205  0.00  0.00    +0.010 A 
BRANCH  10  13
ATOM     13  N   UNL     1      -0.254   4.663  -9.571  0.00  0.00    -0.318 N 
ATOM     14  H   UNL     1      -0.063   5.614  -9.570  0.00  0.00    +0.152 HD
BRANCH  13  15
ATOM     15  C   UNL     1      -0.526   4.024 -10.744  0.00  0.00    +0.008 C 
ATOM     16  C   UNL     1       0.388   4.026 -11.746  0.00  0.00    +0.064 C 
ATOM     17  C   UNL     1      -1.843   3.313 -10.927  0.00  0.00    +0.061 C 
BRANCH  16  18
ATOM     18  C   UNL     1       1.663   4.568 -11.530  0.00  0.00    +0.154 C 
ATOM     19  O   UNL     1       1.985   4.940 -10.419  0.00  0.00    -0.293 OA
ATOM     20  C   UNL     1       2.634   4.688 -12.676  0.00  0.00    +0.091 C 
ENDBRANCH  16  18
ENDBRANCH  13  15
ENDBRANCH  10  13
ENDBRANCH   4   7
BRANCH   1  21
ATOM     21  N   UNL     1      -0.226  -0.358  -1.134  0.00  0.00    -0.318 N 
ATOM     22  H   UNL     1      -0.375  -1.316  -1.140  0.00  0.00    +0.152 HD
BRANCH  21  24
ATOM     23  C   UNL     1       1.271   1.046   0.270  0.00  0.00    +0.061 C 
ATOM     24  C   UNL     1      -0.014   0.292   0.046  0.00  0.00    +0.008 C 
ATOM     25  C   UNL     1      -0.960   0.261   1.017  0.00  0.00    +0.064 C 
BRANCH  25  26
ATOM     26  C   UNL     1      -2.119  -0.508   0.842  0.00  0.00    +0.154 C 
ATOM     27  O   UNL     1      -2.321  -1.071  -0.216  0.00  0.00    -0.293 OA
ATOM     28  C   UNL     1      -3.114  -0.638   1.966  0.00  0.00    +0.091 C 
ENDBRANCH  25  26
ENDBRANCH  21  24
ENDBRANCH   1  21
TORSDOF 7
