REMARK  Name = ZINC13110235
REMARK  10 active torsions:
REMARK  status: ('A' for Active; 'I' for Inactive)
REMARK    1  A    between atoms: C_1  and  C_2
REMARK    2  A    between atoms: C_2  and  C_3
REMARK    3  A    between atoms: C_2  and  C_4
REMARK    4  A    between atoms: C_4  and  C_6
REMARK    5  A    between atoms: C_4  and  N_17
REMARK    6  A    between atoms: C_18  and  C_20
REMARK    7  A    between atoms: C_25  and  S_26
REMARK    8  A    between atoms: S_26  and  C_27
REMARK    9  A    between atoms: C_27  and  C_28
REMARK   10  A    between atoms: N_30  and  C_31
REMARK                            x       y       z     vdW  Elec       q    Type
REMARK                         _______ _______ _______ _____ _____    ______ ____
ROOT
ATOM      1  N   UNL     1      -0.698   1.560   1.214  0.00  0.00    -0.304 N 
ATOM      2  C   UNL     1      -0.574   0.878   2.370  0.00  0.00    +0.246 C 
ATOM      3  O   UNL     1       0.100  -0.133   2.411  0.00  0.00    -0.270 OA
ATOM      4  H   UNL     1      -1.236   2.366   1.182  0.00  0.00    +0.150 HD
ENDROOT
BRANCH   2   5
ATOM      5  C   UNL     1      -1.256   1.359   3.586  0.00  0.00    +0.050 A 
ATOM      6  C   UNL     1      -2.027   2.524   3.545  0.00  0.00    +0.014 A 
ATOM      7  C   UNL     1      -2.666   2.965   4.683  0.00  0.00    +0.001 A 
ATOM      8  C   UNL     1      -2.540   2.265   5.873  0.00  0.00    +0.001 A 
ATOM      9  C   UNL     1      -1.779   1.117   5.932  0.00  0.00    +0.015 A 
ATOM     10  C   UNL     1      -1.130   0.653   4.793  0.00  0.00    +0.020 A 
BRANCH  10  11
ATOM     11  S   UNL     1      -0.155  -0.813   4.864  0.00  0.00    -0.115 S 
BRANCH  11  12
ATOM     12  C   UNL     1      -0.297  -1.351   6.591  0.00  0.00    +0.170 C 
BRANCH  12  13
ATOM     13  C   UNL     1       0.502  -2.613   6.791  0.00  0.00    +0.227 C 
ATOM     14  O   UNL     1       1.107  -3.102   5.860  0.00  0.00    -0.275 OA
ATOM     15  N   UNL     1       0.544  -3.199   8.004  0.00  0.00    -0.285 N 
ATOM     16  H   UNL     1       0.116  -2.773   8.763  0.00  0.00    +0.155 HD
BRANCH  15  17
ATOM     17  C   UNL     1       1.205  -4.422   8.168  0.00  0.00    +0.034 A 
ATOM     18  C   UNL     1       0.717  -5.361   9.068  0.00  0.00    +0.026 A 
ATOM     19  C   UNL     1       1.367  -6.569   9.224  0.00  0.00    +0.040 A 
ATOM     20  C   UNL     1       2.512  -6.840   8.493  0.00  0.00    +0.124 A 
ATOM     21  C   UNL     1       3.003  -5.904   7.600  0.00  0.00    +0.040 A 
ATOM     22  C   UNL     1       2.353  -4.696   7.436  0.00  0.00    +0.026 A 
ATOM     23  F   UNL     1       3.149  -8.021   8.651  0.00  0.00    -0.205 F 
ENDBRANCH  15  17
ENDBRANCH  12  13
ENDBRANCH  11  12
ENDBRANCH  10  11
ENDBRANCH   2   5
BRANCH   1  24
ATOM     24  C   UNL     1      -0.020   1.082   0.006  0.00  0.00    +0.106 C 
BRANCH  24  25
ATOM     25  C   UNL     1      -0.751   1.585  -1.212  0.00  0.00    -0.023 A 
ATOM     26  C   UNL     1      -1.253   2.872  -1.232  0.00  0.00    +0.009 A 
ATOM     27  C   UNL     1      -1.924   3.341  -2.347  0.00  0.00    +0.050 A 
ATOM     28  C   UNL     1      -2.091   2.514  -3.445  0.00  0.00    +0.162 A 
ATOM     29  C   UNL     1      -1.588   1.222  -3.425  0.00  0.00    +0.162 A 
ATOM     30  C   UNL     1      -0.912   0.757  -2.309  0.00  0.00    +0.055 A 
ATOM     31  O   UNL     1      -1.759   0.415  -4.512  0.00  0.00    -0.488 OA
ATOM     32  C   UNL     1      -3.101   0.002  -4.779  0.00  0.00    +0.232 C 
ATOM     33  C   UNL     1      -3.840   1.057  -5.586  0.00  0.00    +0.082 C 
ATOM     34  C   UNL     1      -4.016   2.357  -4.816  0.00  0.00    +0.232 C 
ATOM     35  O   UNL     1      -2.750   2.965  -4.552  0.00  0.00    -0.488 OA
ENDBRANCH  24  25
BRANCH  24  37
ATOM     36  C   UNL     1       2.161   1.093   1.226  0.00  0.00    +0.009 C 
ATOM     37  C   UNL     1       1.419   1.603  -0.011  0.00  0.00    +0.008 C 
ATOM     38  C   UNL     1       2.126   1.104  -1.272  0.00  0.00    +0.009 C 
ENDBRANCH  24  37
ENDBRANCH   1  24
TORSDOF 8
