REMARK  Name = ZINC02962753
REMARK  9 active torsions:
REMARK  status: ('A' for Active; 'I' for Inactive)
REMARK    1  A    between atoms: C_1  and  C_2
REMARK    2  A    between atoms: C_2  and  O_3
REMARK    3  A    between atoms: O_3  and  C_4
REMARK    4  A    between atoms: C_11  and  C_38
REMARK    5  A    between atoms: C_12  and  C_28
REMARK    6  A    between atoms: N_19  and  C_20
REMARK    7  A    between atoms: C_24  and  C_27
REMARK    8  A    between atoms: C_25  and  C_26
REMARK    9  A    between atoms: N_30  and  C_31
REMARK                            x       y       z     vdW  Elec       q    Type
REMARK                         _______ _______ _______ _____ _____    ______ ____
ROOT
ATOM      1  C   UNL     1       0.656  -2.415  -1.014  0.00  0.00    +0.162 A 
ATOM      2  C   UNL     1       0.224  -3.417  -0.162  0.00  0.00    +0.049 A 
ATOM      3  C   UNL     1       0.443  -4.743  -0.487  0.00  0.00    +0.004 A 
ATOM      4  C   UNL     1       1.089  -5.067  -1.665  0.00  0.00    +0.009 A 
ATOM      5  C   UNL     1       1.521  -4.070  -2.521  0.00  0.00    +0.019 A 
ATOM      6  C   UNL     1       1.307  -2.742  -2.205  0.00  0.00    +0.170 A 
ATOM      7  O   UNL     1       1.727  -1.733  -3.013  0.00  0.00    -0.463 OA
ATOM      8  C   UNL     1       2.161  -2.048  -4.333  0.00  0.00    +0.194 C 
ATOM      9  C   UNL     1       3.077  -3.279  -4.269  0.00  0.00    +0.163 C 
ATOM     10  C   UNL     1       2.215  -4.459  -3.807  0.00  0.00    +0.123 C 
ATOM     11  N   UNL     1       1.172  -4.654  -4.828  0.00  0.00    -0.318 N 
ATOM     12  C   UNL     1       0.625  -3.588  -5.435  0.00  0.00    +0.141 C 
ATOM     13  S   UNL     1      -0.648  -3.837  -6.551  0.00  0.00    -0.018 S 
ATOM     14  N   UNL     1       1.022  -2.337  -5.200  0.00  0.00    -0.243 N 
ATOM     15  C   UNL     1       2.947  -0.866  -4.904  0.00  0.00    +0.079 C 
ATOM     16  H   UNL     1       0.879  -5.550  -5.060  0.00  0.00    +0.148 HD
ENDROOT
BRANCH  14  17
ATOM     17  C   UNL     1       0.344  -1.274  -5.805  0.00  0.00    +0.042 A 
ATOM     18  C   UNL     1       0.740  -0.816  -7.055  0.00  0.00    +0.024 A 
ATOM     19  C   UNL     1       0.068   0.233  -7.650  0.00  0.00    +0.002 A 
ATOM     20  C   UNL     1      -0.999   0.829  -7.002  0.00  0.00    +0.004 A 
ATOM     21  C   UNL     1      -1.396   0.376  -5.757  0.00  0.00    -0.046 A 
ATOM     22  C   UNL     1      -0.732  -0.677  -5.160  0.00  0.00    -0.026 A 
ATOM     23  C   UNL     1      -1.169  -1.174  -3.805  0.00  0.00    +0.046 C 
ATOM     24  C   UNL     1      -2.559   1.028  -5.055  0.00  0.00    +0.044 C 
ENDBRANCH  14  17
BRANCH   9  25
ATOM     25  C   UNL     1       4.188  -3.043  -3.279  0.00  0.00    +0.228 C 
ATOM     26  O   UNL     1       4.250  -1.993  -2.675  0.00  0.00    -0.275 OA
ATOM     27  N   UNL     1       5.112  -4.000  -3.064  0.00  0.00    -0.285 N 
ATOM     28  H   UNL     1       5.020  -4.868  -3.488  0.00  0.00    +0.155 HD
BRANCH  27  29
ATOM     29  C   UNL     1       6.205  -3.742  -2.228  0.00  0.00    +0.033 A 
ATOM     30  C   UNL     1       6.749  -4.763  -1.460  0.00  0.00    +0.025 A 
ATOM     31  C   UNL     1       7.828  -4.505  -0.636  0.00  0.00    +0.022 A 
ATOM     32  C   UNL     1       8.366  -3.232  -0.576  0.00  0.00    +0.041 A 
ATOM     33  C   UNL     1       7.825  -2.213  -1.341  0.00  0.00    +0.022 A 
ATOM     34  C   UNL     1       6.750  -2.466  -2.171  0.00  0.00    +0.025 A 
ATOM     35 CL   UNL     1       9.721  -2.911   0.461  0.00  0.00    -0.084 Cl
ENDBRANCH  27  29
ENDBRANCH   9  25
BRANCH   1  36
ATOM     36  O   UNL     1       0.439  -1.111  -0.694  0.00  0.00    -0.489 OA
BRANCH  36  38
ATOM     37  C   UNL     1      -0.385   0.661   0.727  0.00  0.00    +0.048 C 
ATOM     38  C   UNL     1      -0.233  -0.849   0.539  0.00  0.00    +0.226 C 
ENDBRANCH  36  38
ENDBRANCH   1  36
TORSDOF 5
