REMARK  Name = ZINC26571570
REMARK  8 active torsions:
REMARK  status: ('A' for Active; 'I' for Inactive)
REMARK    1  A    between atoms: C_1  and  C_2
REMARK    2  A    between atoms: C_5  and  S_8
REMARK    3  A    between atoms: S_8  and  C_11
REMARK    4  A    between atoms: C_11  and  C_13
REMARK    5  A    between atoms: C_11  and  N_17
REMARK    6  A    between atoms: C_18  and  C_20
REMARK    7  A    between atoms: C_20  and  O_21
REMARK    8  A    between atoms: O_21  and  C_22
REMARK                            x       y       z     vdW  Elec       q    Type
REMARK                         _______ _______ _______ _____ _____    ______ ____
ROOT
ATOM      1  C   UNL     1       5.271  -2.733  -0.066  0.00  0.00    +0.273 C 
ENDROOT
BRANCH   1   2
ATOM      2  C   UNL     1       5.379  -3.875   0.947  0.00  0.00    +0.229 C 
ATOM      3 CL   UNL     1       4.210  -5.178   0.511  0.00  0.00    -0.079 Cl
ATOM      4 CL   UNL     1       7.055  -4.540   0.927  0.00  0.00    -0.079 Cl
ATOM      5 CL   UNL     1       4.998  -3.254   2.596  0.00  0.00    -0.079 Cl
ENDBRANCH   1   2
BRANCH   1   6
ATOM      6  N   UNL     1       3.909  -2.193  -0.049  0.00  0.00    -0.288 N 
ATOM      7  C   UNL     1       3.713  -0.860  -0.040  0.00  0.00    +0.252 C 
ATOM      8  O   UNL     1       4.664  -0.107  -0.044  0.00  0.00    -0.272 OA
ATOM      9  H   UNL     1       3.046  -2.876  -0.045  0.00  0.00    +0.151 HD
BRANCH   7  10
ATOM     10  C   UNL     1       2.312  -0.304  -0.023  0.00  0.00    +0.324 C 
BRANCH  10  11
ATOM     11  O   UNL     1       2.366   1.123  -0.015  0.00  0.00    -0.481 OA
BRANCH  11  12
ATOM     12  C   UNL     1       1.179   1.786   0.000  0.00  0.00    +0.140 A 
ATOM     13  C   UNL     1      -0.013   1.076   0.008  0.00  0.00    +0.048 A 
ATOM     14  C   UNL     1      -1.218   1.751   0.017  0.00  0.00    +0.023 A 
ATOM     15  C   UNL     1      -1.238   3.134   0.031  0.00  0.00    +0.043 A 
ATOM     16  C   UNL     1      -0.051   3.845   0.023  0.00  0.00    +0.043 A 
ATOM     17  C   UNL     1       1.157   3.174   0.008  0.00  0.00    +0.084 A 
ATOM     18 CL   UNL     1       2.647   4.066  -0.001  0.00  0.00    -0.080 Cl
ATOM     19 CL   UNL     1      -2.754   3.979   0.050  0.00  0.00    -0.083 Cl
ENDBRANCH  11  12
ENDBRANCH  10  11
ENDBRANCH   7  10
ENDBRANCH   1   6
BRANCH   1  20
ATOM     20  S   UNL     1       5.653  -3.358  -1.725  0.00  0.00    +0.020 S 
ATOM     21  O   UNL     1       7.025  -3.721  -1.807  0.00  0.00    -0.167 OA
ATOM     22  O   UNL     1       4.639  -4.256  -2.156  0.00  0.00    -0.167 OA
BRANCH  20  27
ATOM     23  C   UNL     1       5.109   1.435  -5.350  0.00  0.00    +0.044 C 
ATOM     24  C   UNL     1       5.245   0.237  -4.445  0.00  0.00    -0.050 A 
ATOM     25  C   UNL     1       6.464  -0.052  -3.860  0.00  0.00    +0.005 A 
ATOM     26  C   UNL     1       6.588  -1.150  -3.030  0.00  0.00    +0.027 A 
ATOM     27  C   UNL     1       5.494  -1.959  -2.784  0.00  0.00    +0.090 A 
ATOM     28  C   UNL     1       4.277  -1.672  -3.372  0.00  0.00    +0.027 A 
ATOM     29  C   UNL     1       4.151  -0.572  -4.199  0.00  0.00    +0.005 A 
ENDBRANCH  20  27
ENDBRANCH   1  20
TORSDOF 7
