REMARK  Name = ZINC13914863
REMARK  11 active torsions:
REMARK  status: ('A' for Active; 'I' for Inactive)
REMARK    1  A    between atoms: C_1  and  C_2
REMARK    2  A    between atoms: C_2  and  O_3
REMARK    3  A    between atoms: O_3  and  C_4
REMARK    4  A    between atoms: C_6  and  C_20
REMARK    5  A    between atoms: C_9  and  O_10
REMARK    6  A    between atoms: O_10  and  C_11
REMARK    7  A    between atoms: C_11  and  C_12
REMARK    8  A    between atoms: C_22  and  C_29
REMARK    9  A    between atoms: C_23  and  C_28
REMARK   10  A    between atoms: C_29  and  O_31
REMARK   11  A    between atoms: O_31  and  C_32
REMARK                            x       y       z     vdW  Elec       q    Type
REMARK                         _______ _______ _______ _____ _____    ______ ____
ROOT
ATOM      1  C   UNL     1       1.174   2.087   0.002  0.00  0.00    +0.162 A 
ATOM      2  C   UNL     1      -0.017   1.378   0.010  0.00  0.00    +0.055 A 
ATOM      3  C   UNL     1       0.002  -0.004   0.002  0.00  0.00    -0.019 A 
ATOM      4  C   UNL     1       1.207  -0.682  -0.013  0.00  0.00    +0.009 A 
ATOM      5  C   UNL     1       2.398   0.019  -0.021  0.00  0.00    +0.050 A 
ATOM      6  C   UNL     1       2.386   1.405  -0.014  0.00  0.00    +0.162 A 
ENDROOT
BRANCH   3   7
ATOM      7  C   UNL     1      -1.294  -0.774   0.010  0.00  0.00    +0.141 C 
ATOM      8  C   UNL     1      -1.673  -1.064  -1.428  0.00  0.00    +0.078 C 
ATOM      9  C   UNL     1      -1.832  -2.356  -1.788  0.00  0.00    +0.019 C 
ATOM     10  N   UNL     1      -1.656  -3.365  -0.886  0.00  0.00    -0.300 N 
ATOM     11  C   UNL     1      -1.321  -3.166   0.395  0.00  0.00    +0.135 C 
ATOM     12  S   UNL     1      -1.132  -4.523   1.421  0.00  0.00    -0.019 S 
ATOM     13  N   UNL     1      -1.128  -1.933   0.902  0.00  0.00    -0.315 N 
ATOM     14  C   UNL     1      -2.210  -2.689  -3.208  0.00  0.00    +0.061 C 
ATOM     15  H   UNL     1      -1.780  -4.278  -1.191  0.00  0.00    +0.154 HD
ATOM     16  H   UNL     1      -0.885  -1.812   1.834  0.00  0.00    +0.149 HD
BRANCH   8  17
ATOM     17  C   UNL     1      -1.856  -0.017  -2.362  0.00  0.00    +0.338 C 
ATOM     18  O   UNL     1      -2.161  -0.273  -3.511  0.00  0.00    -0.245 OA
BRANCH  17  19
ATOM     19  O   UNL     1      -1.692   1.266  -1.977  0.00  0.00    -0.465 OA
ATOM     20  C   UNL     1      -1.892   2.272  -2.972  0.00  0.00    +0.280 C 
ENDBRANCH  17  19
ENDBRANCH   8  17
ENDBRANCH   3   7
BRANCH   1  21
ATOM     21  O   UNL     1       1.157   3.447   0.009  0.00  0.00    -0.489 OA
BRANCH  21  23
ATOM     22  C   UNL     1       0.058   5.599   0.030  0.00  0.00    +0.048 C 
ATOM     23  C   UNL     1      -0.124   4.080   0.024  0.00  0.00    +0.226 C 
ENDBRANCH  21  23
ENDBRANCH   1  21
BRANCH   6  24
ATOM     24  O   UNL     1       3.557   2.096  -0.022  0.00  0.00    -0.484 OA
BRANCH  24  25
ATOM     25  C   UNL     1       4.763   1.330  -0.039  0.00  0.00    +0.266 C 
BRANCH  25  26
ATOM     26  C   UNL     1       5.949   2.260  -0.046  0.00  0.00    +0.008 A 
ATOM     27  C   UNL     1       5.755   3.628  -0.036  0.00  0.00    +0.010 A 
ATOM     28  C   UNL     1       6.842   4.481  -0.043  0.00  0.00    +0.020 A 
ATOM     29  C   UNL     1       8.126   3.966  -0.058  0.00  0.00    +0.042 A 
ATOM     30  C   UNL     1       8.322   2.597  -0.068  0.00  0.00    +0.040 A 
ATOM     31  C   UNL     1       7.233   1.743  -0.056  0.00  0.00    +0.049 A 
ATOM     32 CL   UNL     1       7.477   0.024  -0.061  0.00  0.00    -0.083 Cl
ATOM     33 CL   UNL     1       9.492   5.038  -0.067  0.00  0.00    -0.083 Cl
ENDBRANCH  25  26
ENDBRANCH  24  25
ENDBRANCH   6  24
TORSDOF 8
