REMARK  Name = ZINC00669289
REMARK  6 active torsions:
REMARK  status: ('A' for Active; 'I' for Inactive)
REMARK    1  A    between atoms: C_1  and  C_2
REMARK    2  A    between atoms: C_5  and  N_9
REMARK    3  A    between atoms: C_13  and  C_14
REMARK    4  A    between atoms: C_18  and  O_21
REMARK    5  A    between atoms: C_19  and  O_20
REMARK    6  A    between atoms: O_21  and  C_22
REMARK                            x       y       z     vdW  Elec       q    Type
REMARK                         _______ _______ _______ _____ _____    ______ ____
ROOT
ATOM      1  N   UNL     1       2.132   0.759  -0.165  0.00  0.00    -0.184 N 
ATOM      2  C   UNL     1       1.397   1.857   0.094  0.00  0.00    +0.272 C 
ATOM      3  O   UNL     1       1.817   2.946   0.440  0.00  0.00    -0.268 OA
ATOM      4  C   UNL     1      -0.015   1.488  -0.121  0.00  0.00    +0.102 C 
ATOM      5  C   UNL     1      -1.124   2.296   0.020  0.00  0.00    +0.030 C 
ATOM      6  C   UNL     1       0.017   0.070  -0.526  0.00  0.00    +0.266 C 
ATOM      7  O   UNL     1      -0.941  -0.628  -0.800  0.00  0.00    -0.268 OA
ATOM      8  N   UNL     1       1.311  -0.305  -0.534  0.00  0.00    -0.223 N 
ATOM      9  H   UNL     1       1.627  -1.193  -0.764  0.00  0.00    +0.174 HD
ENDROOT
BRANCH   1  14
ATOM     10  C   UNL     1       7.788   0.497   0.195  0.00  0.00    +0.045 C 
ATOM     11  C   UNL     1       6.286   0.567   0.100  0.00  0.00    -0.032 A 
ATOM     12  C   UNL     1       5.565  -0.552  -0.277  0.00  0.00    +0.006 A 
ATOM     13  C   UNL     1       4.189  -0.491  -0.365  0.00  0.00    +0.025 A 
ATOM     14  C   UNL     1       3.526   0.695  -0.075  0.00  0.00    +0.058 A 
ATOM     15  C   UNL     1       4.252   1.819   0.298  0.00  0.00    +0.045 A 
ATOM     16  C   UNL     1       5.630   1.750   0.390  0.00  0.00    +0.046 A 
ATOM     17 CL   UNL     1       6.538   3.152   0.862  0.00  0.00    -0.083 Cl
ENDBRANCH   1  14
BRANCH   5  18
ATOM     18  C   UNL     1      -2.465   1.721  -0.086  0.00  0.00    +0.022 A 
ATOM     19  C   UNL     1      -2.751   0.481   0.505  0.00  0.00    +0.027 A 
ATOM     20  C   UNL     1      -4.015  -0.054   0.402  0.00  0.00    +0.022 A 
ATOM     21  C   UNL     1      -5.011   0.625  -0.285  0.00  0.00    +0.064 A 
ATOM     22  C   UNL     1      -4.746   1.849  -0.875  0.00  0.00    +0.163 A 
ATOM     23  C   UNL     1      -3.477   2.410  -0.776  0.00  0.00    +0.166 A 
ATOM     24 BR   UNL     1      -4.396  -1.726   1.200  0.00  0.00    -0.050 Br
BRANCH  23  25
ATOM     25  O   UNL     1      -3.216   3.613  -1.348  0.00  0.00    -0.503 OA
ATOM     26  H   UNL     1      -2.907   3.554  -2.263  0.00  0.00    +0.292 HD
ENDBRANCH  23  25
BRANCH  22  27
ATOM     27  O   UNL     1      -5.729   2.507  -1.547  0.00  0.00    -0.491 OA
ATOM     28  C   UNL     1      -7.010   1.875  -1.604  0.00  0.00    +0.277 C 
ENDBRANCH  22  27
ENDBRANCH   5  18
TORSDOF 4
