REMARK  Name = ZINC01834718
REMARK  5 active torsions:
REMARK  status: ('A' for Active; 'I' for Inactive)
REMARK    1  A    between atoms: C_10  and  C_11
REMARK    2  A    between atoms: C_13  and  C_17
REMARK    3  A    between atoms: N_19  and  N_20
REMARK    4  A    between atoms: C_21  and  C_22
REMARK    5  A    between atoms: C_31  and  O_32
REMARK                            x       y       z     vdW  Elec       q    Type
REMARK                         _______ _______ _______ _____ _____    ______ ____
ROOT
ATOM      1  C   UNL     1       8.570   0.636   0.039  0.00  0.00    +0.281 C 
ATOM      2  O   UNL     1       9.149  -0.430   0.129  0.00  0.00    -0.267 OA
ATOM      3  N   UNL     1       9.276   1.784  -0.014  0.00  0.00    -0.202 N 
ATOM      4  H   UNL     1       8.815   2.634  -0.086  0.00  0.00    +0.178 HD
ENDROOT
BRANCH   1   7
ATOM      5  C   UNL     1       4.949   0.138  -0.046  0.00  0.00    +0.094 A 
ATOM      6  C   UNL     1       6.243  -0.409   0.032  0.00  0.00    +0.062 A 
ATOM      7  C   UNL     1       7.100   0.674  -0.012  0.00  0.00    +0.122 A 
ATOM      8  N   UNL     1       6.313   1.787  -0.111  0.00  0.00    -0.272 N 
ATOM      9  H   UNL     1       6.641   2.699  -0.160  0.00  0.00    +0.189 HD
ATOM     10  N   UNL     1       5.075   1.447  -0.134  0.00  0.00    -0.173 NA
BRANCH   5  20
ATOM     11  C   UNL     1       0.667   0.175  -2.840  0.00  0.00    +0.001 A 
ATOM     12  C   UNL     1       1.856   0.900  -2.866  0.00  0.00    +0.001 A 
ATOM     13  C   UNL     1       2.846   0.656  -1.963  0.00  0.00    +0.009 A 
ATOM     14  C   UNL     1       2.669  -0.339  -0.991  0.00  0.00    -0.009 A 
ATOM     15  C   UNL     1       1.461  -1.077  -0.962  0.00  0.00    -0.017 A 
ATOM     16  C   UNL     1       0.461  -0.798  -1.911  0.00  0.00    +0.008 A 
ATOM     17  C   UNL     1       1.282  -2.074   0.012  0.00  0.00    +0.008 A 
ATOM     18  C   UNL     1       2.266  -2.326   0.920  0.00  0.00    +0.001 A 
ATOM     19  C   UNL     1       3.458  -1.610   0.905  0.00  0.00    +0.011 A 
ATOM     20  C   UNL     1       3.675  -0.620  -0.037  0.00  0.00    +0.010 A 
ENDBRANCH   5  20
ENDBRANCH   1   7
BRANCH   3  21
ATOM     21  N   UNL     1      10.676   1.748   0.034  0.00  0.00    -0.187 NA
ATOM     22  C   UNL     1      11.356   2.854  -0.018  0.00  0.00    +0.142 C 
BRANCH  22  23
ATOM     23  C   UNL     1      12.825   2.817   0.033  0.00  0.00    +0.044 A 
ATOM     24  C   UNL     1      13.605   4.052  -0.018  0.00  0.00    -0.006 A 
ATOM     25  C   UNL     1      12.986   5.304  -0.114  0.00  0.00    +0.009 A 
ATOM     26  C   UNL     1      13.751   6.432  -0.158  0.00  0.00    +0.001 A 
ATOM     27  C   UNL     1      15.141   6.356  -0.108  0.00  0.00    +0.001 A 
ATOM     28  C   UNL     1      15.775   5.154  -0.014  0.00  0.00    +0.008 A 
ATOM     29  C   UNL     1      15.018   3.971   0.033  0.00  0.00    -0.017 A 
ATOM     30  C   UNL     1      15.638   2.713   0.132  0.00  0.00    +0.012 A 
ATOM     31  C   UNL     1      14.896   1.574   0.177  0.00  0.00    +0.046 A 
ATOM     32  C   UNL     1      13.503   1.603   0.135  0.00  0.00    +0.126 A 
BRANCH  32  33
ATOM     33  O   UNL     1      12.803   0.441   0.190  0.00  0.00    -0.506 OA
ATOM     34  H   UNL     1      12.629   0.046  -0.675  0.00  0.00    +0.292 HD
ENDBRANCH  32  33
ENDBRANCH  22  23
ENDBRANCH   3  21
TORSDOF 5
