REMARK  Name = ZINC03184822
REMARK  3 active torsions:
REMARK  status: ('A' for Active; 'I' for Inactive)
REMARK    1  A    between atoms: C_4  and  C_7
REMARK    2  A    between atoms: C_8  and  C_18
REMARK    3  A    between atoms: N_19  and  N_20
REMARK                            x       y       z     vdW  Elec       q    Type
REMARK                         _______ _______ _______ _____ _____    ______ ____
ROOT
ATOM      1  C   UNL     1       1.091  -0.883  -0.013  0.00  0.00    +0.089 A 
ATOM      2  C   UNL     1       0.002  -0.004   0.002  0.00  0.00    +0.061 A 
ATOM      3  S   UNL     1      -1.358  -1.165   0.017  0.00  0.00    -0.051 S 
ATOM      4  C   UNL     1      -0.379  -2.660  -0.009  0.00  0.00    +0.162 A 
ATOM      5  N   UNL     1       0.853  -2.181  -0.018  0.00  0.00    -0.224 NA
ATOM      6  N   UNL     1      -0.801  -3.976  -0.012  0.00  0.00    -0.310 N 
ATOM      7  C   UNL     1      -0.238  -4.706  -1.155  0.00  0.00    +0.107 C 
ATOM      8  C   UNL     1      -0.606  -6.187  -1.046  0.00  0.00    +0.019 C 
ATOM      9  C   UNL     1      -2.131  -6.330  -1.026  0.00  0.00    +0.003 C 
ATOM     10  C   UNL     1      -2.696  -5.521   0.145  0.00  0.00    +0.019 C 
ATOM     11  C   UNL     1      -2.267  -4.058   0.002  0.00  0.00    +0.107 C 
ENDROOT
BRANCH   1  15
ATOM     12  C   UNL     1       5.074   0.594  -0.044  0.00  0.00    +0.000 A 
ATOM     13  C   UNL     1       4.777  -0.571   0.641  0.00  0.00    +0.001 A 
ATOM     14  C   UNL     1       3.486  -1.056   0.655  0.00  0.00    +0.010 A 
ATOM     15  C   UNL     1       2.478  -0.369  -0.024  0.00  0.00    +0.002 A 
ATOM     16  C   UNL     1       2.786   0.802  -0.718  0.00  0.00    +0.010 A 
ATOM     17  C   UNL     1       4.080   1.280  -0.720  0.00  0.00    +0.001 A 
ENDBRANCH   1  15
BRANCH   2  18
ATOM     18  C   UNL     1      -0.017   1.410   0.010  0.00  0.00    +0.150 C 
ATOM     19  N   UNL     1      -1.161   2.049   0.019  0.00  0.00    -0.180 NA
BRANCH  19  20
ATOM     20  N   UNL     1      -1.180   3.450   0.026  0.00  0.00    -0.268 N 
ATOM     21  C   UNL     1      -2.319   4.087   0.035  0.00  0.00    +0.089 C 
ATOM     22  C   UNL     1      -3.578   3.372   0.037  0.00  0.00    +0.071 C 
ATOM     23  C   UNL     1      -4.517   3.820  -1.092  0.00  0.00    +0.007 C 
ATOM     24  C   UNL     1      -5.136   5.115  -0.643  0.00  0.00    +0.002 C 
ATOM     25  C   UNL     1      -4.389   6.361  -1.182  0.00  0.00    +0.019 C 
ATOM     26  C   UNL     1      -2.868   6.138  -1.135  0.00  0.00    +0.102 C 
ATOM     27  N   UNL     1      -2.367   5.493   0.049  0.00  0.00    -0.333 N 
ATOM     28  H   UNL     1      -2.043   6.097   0.909  0.00  0.00    +0.147 HD
ATOM     29  H   UNL     1      -0.235   4.013   0.025  0.00  0.00    +0.190 HD
ENDBRANCH  19  20
ENDBRANCH   2  18
TORSDOF 3
