REMARK  Name = ZINC36082192
REMARK  1 active torsions:
REMARK  status: ('A' for Active; 'I' for Inactive)
REMARK    1  A    between atoms: C_6  and  C_7
REMARK                            x       y       z     vdW  Elec       q    Type
REMARK                         _______ _______ _______ _____ _____    ______ ____
ROOT
ATOM      1  C   UNL     1      -1.293  -0.775   0.011  0.00  0.00    +0.185 C 
ATOM      2  N   UNL     1      -1.114  -2.066   0.718  0.00  0.00    -0.269 NA
ATOM      3  C   UNL     1      -2.147  -3.019   0.263  0.00  0.00    +0.087 C 
ATOM      4  C   UNL     1      -2.606  -3.795   1.508  0.00  0.00    +0.017 C 
ATOM      5  C   UNL     1      -2.166  -2.945   2.713  0.00  0.00    +0.029 C 
ATOM      6  C   UNL     1      -1.460  -1.716   2.122  0.00  0.00    +0.145 C 
ATOM      7  C   UNL     1      -2.434  -0.566   2.000  0.00  0.00    +0.240 C 
ATOM      8  O   UNL     1      -3.193  -0.184   2.865  0.00  0.00    -0.273 OA
ATOM      9  N   UNL     1      -2.316  -0.037   0.763  0.00  0.00    -0.228 N 
ATOM     10  C   UNL     1      -3.048   1.040   0.276  0.00  0.00    +0.169 A 
ATOM     11  N   UNL     1      -2.987   1.599  -0.913  0.00  0.00    -0.233 NA
ATOM     12  C   UNL     1      -3.757   2.625  -1.225  0.00  0.00    +0.120 A 
ATOM     13  C   UNL     1      -4.606   3.071  -0.267  0.00  0.00    +0.068 A 
ATOM     14  S   UNL     1      -4.232   1.940   1.062  0.00  0.00    -0.060 S 
ENDROOT
BRANCH   1  20
ATOM     15  C   UNL     1      -0.017   1.378   0.010  0.00  0.00    +0.008 A 
ATOM     16  C   UNL     1       1.171   2.086   0.002  0.00  0.00    +0.022 A 
ATOM     17  C   UNL     1       2.378   1.412  -0.013  0.00  0.00    +0.059 A 
ATOM     18  C   UNL     1       2.397   0.027  -0.021  0.00  0.00    +0.060 A 
ATOM     19  C   UNL     1       1.208  -0.680  -0.013  0.00  0.00    +0.028 A 
ATOM     20  C   UNL     1       0.002  -0.004   0.002  0.00  0.00    -0.011 A 
ATOM     21 CL   UNL     1       3.912  -0.821  -0.040  0.00  0.00    -0.082 Cl
ATOM     22 CL   UNL     1       3.869   2.301  -0.023  0.00  0.00    -0.082 Cl
ENDBRANCH   1  20
TORSDOF 1
