REMARK  Name = ZINC00391733
REMARK  7 active torsions:
REMARK  status: ('A' for Active; 'I' for Inactive)
REMARK    1  A    between atoms: C_1  and  O_2
REMARK    2  A    between atoms: O_2  and  C_3
REMARK    3  A    between atoms: C_11  and  C_14
REMARK    4  A    between atoms: C_12  and  O_13
REMARK    5  A    between atoms: C_22  and  O_25
REMARK    6  A    between atoms: C_23  and  O_24
REMARK    7  A    between atoms: O_25  and  C_26
REMARK                            x       y       z     vdW  Elec       q    Type
REMARK                         _______ _______ _______ _____ _____    ______ ____
ROOT
ATOM      1  C   UNL     1       1.059   5.957   0.023  0.00  0.00    +0.162 A 
ATOM      2  C   UNL     1      -0.112   5.254   0.031  0.00  0.00    +0.058 A 
ATOM      3  C   UNL     1      -0.092   3.849   0.024  0.00  0.00    -0.014 A 
ATOM      4  C   UNL     1      -1.286   3.106   0.032  0.00  0.00    +0.008 A 
ATOM      5  C   UNL     1      -1.234   1.746   0.017  0.00  0.00    +0.001 A 
ATOM      6  C   UNL     1      -0.013   1.076   0.008  0.00  0.00    +0.001 A 
ATOM      7  C   UNL     1       1.164   1.764   0.000  0.00  0.00    +0.009 A 
ATOM      8  C   UNL     1       1.149   3.165   0.008  0.00  0.00    -0.006 A 
ATOM      9  C   UNL     1       2.354   3.911   0.000  0.00  0.00    +0.039 A 
ATOM     10  C   UNL     1       2.294   5.298   0.008  0.00  0.00    +0.167 A 
ENDROOT
BRANCH   9  11
ATOM     11  C   UNL     1       3.659   3.220  -0.017  0.00  0.00    +0.039 A 
ATOM     12  C   UNL     1       4.280   2.891  -1.248  0.00  0.00    -0.006 A 
ATOM     13  C   UNL     1       3.676   3.211  -2.472  0.00  0.00    +0.009 A 
ATOM     14  C   UNL     1       4.299   2.882  -3.638  0.00  0.00    +0.001 A 
ATOM     15  C   UNL     1       5.530   2.231  -3.633  0.00  0.00    +0.001 A 
ATOM     16  C   UNL     1       6.145   1.905  -2.463  0.00  0.00    +0.008 A 
ATOM     17  C   UNL     1       5.531   2.229  -1.240  0.00  0.00    -0.014 A 
ATOM     18  C   UNL     1       6.141   1.907  -0.015  0.00  0.00    +0.058 A 
ATOM     19  C   UNL     1       5.529   2.231   1.161  0.00  0.00    +0.162 A 
ATOM     20  C   UNL     1       4.294   2.890   1.173  0.00  0.00    +0.167 A 
BRANCH  20  21
ATOM     21  O   UNL     1       3.709   3.205   2.359  0.00  0.00    -0.503 OA
ATOM     22  H   UNL     1       3.127   2.516   2.706  0.00  0.00    +0.292 HD
ENDBRANCH  20  21
BRANCH  19  23
ATOM     23  O   UNL     1       6.130   1.913   2.338  0.00  0.00    -0.491 OA
ATOM     24  C   UNL     1       7.391   1.246   2.264  0.00  0.00    +0.277 C 
ENDBRANCH  19  23
ENDBRANCH   9  11
BRANCH   1  26
ATOM     25  C   UNL     1      -0.264   7.932   0.047  0.00  0.00    +0.277 C 
ATOM     26  O   UNL     1       1.025   7.316   0.031  0.00  0.00    -0.491 OA
ENDBRANCH   1  26
BRANCH  10  27
ATOM     27  O   UNL     1       3.444   6.022   0.001  0.00  0.00    -0.503 OA
ATOM     28  H   UNL     1       3.769   6.237  -0.885  0.00  0.00    +0.292 HD
ENDBRANCH  10  27
TORSDOF 5
