REMARK  Name = ZINC31845087
REMARK  4 active torsions:
REMARK  status: ('A' for Active; 'I' for Inactive)
REMARK    1  A    between atoms: C_1  and  C_2
REMARK    2  A    between atoms: C_8  and  N_10
REMARK    3  A    between atoms: C_11  and  C_13
REMARK    4  A    between atoms: C_13  and  N_14
REMARK                            x       y       z     vdW  Elec       q    Type
REMARK                         _______ _______ _______ _____ _____    ______ ____
ROOT
ATOM      1  C   UNL     1       2.167   5.180   0.746  0.00  0.00    +0.201 C 
ENDROOT
BRANCH   1   2
ATOM      2  N   UNL     1       2.335   3.937  -0.017  0.00  0.00    -0.308 N 
ATOM      3  C   UNL     1       3.404   3.108   0.557  0.00  0.00    +0.226 C 
ATOM      4  C   UNL     1       3.355   1.754  -0.123  0.00  0.00    +0.330 C 
ATOM      5  O   UNL     1       4.315   1.294  -0.702  0.00  0.00    -0.249 OA
ATOM      6  O   UNL     1       2.183   1.088  -0.047  0.00  0.00    -0.423 OA
ATOM      7  C   UNL     1       1.061   1.856  -0.145  0.00  0.00    +0.153 A 
ATOM      8  C   UNL     1       1.125   3.244  -0.120  0.00  0.00    +0.075 A 
ATOM      9  C   UNL     1      -0.051   3.985  -0.207  0.00  0.00    +0.046 A 
ATOM     10  C   UNL     1      -1.270   3.346  -0.324  0.00  0.00    +0.043 A 
ATOM     11  C   UNL     1      -1.329   1.964  -0.359  0.00  0.00    +0.024 A 
ATOM     12  C   UNL     1      -0.168   1.221  -0.264  0.00  0.00    +0.050 A 
ATOM     13 CL   UNL     1      -2.730   4.279  -0.434  0.00  0.00    -0.083 Cl
ENDBRANCH   1   2
BRANCH   1  15
ATOM     14  N   UNL     1       3.454   7.248   1.178  0.00  0.00    -0.311 N 
ATOM     15  C   UNL     1       3.385   6.049   0.566  0.00  0.00    +0.231 C 
ATOM     16  O   UNL     1       4.303   5.670  -0.129  0.00  0.00    -0.274 OA
ATOM     17  H   UNL     1       2.621   7.592   1.809  0.00  0.00    +0.149 HD
BRANCH  14  24
ATOM     18  C   UNL     1       4.923   8.206   3.483  0.00  0.00    +0.009 C 
ATOM     19  C   UNL     1       4.776   9.032   2.204  0.00  0.00    +0.006 C 
ATOM     20  C   UNL     1       6.013   9.914   2.021  0.00  0.00    +0.005 C 
ATOM     21  C   UNL     1       5.865  10.740   0.742  0.00  0.00    +0.000 C 
ATOM     22  C   UNL     1       5.727   9.801  -0.459  0.00  0.00    +0.002 C 
ATOM     23  C   UNL     1       4.490   8.919  -0.276  0.00  0.00    +0.022 C 
ATOM     24  C   UNL     1       4.638   8.093   1.004  0.00  0.00    +0.076 C 
ENDBRANCH  14  24
ENDBRANCH   1  15
TORSDOF 3
