REMARK  Name = ZINC62854902
REMARK  6 active torsions:
REMARK  status: ('A' for Active; 'I' for Inactive)
REMARK    1  A    between atoms: C_1  and  C_2
REMARK    2  A    between atoms: C_2  and  C_3
REMARK    3  A    between atoms: C_3  and  C_4
REMARK    4  A    between atoms: C_4  and  C_10
REMARK    5  A    between atoms: N_12  and  C_13
REMARK    6  A    between atoms: C_18  and  C_19
REMARK                            x       y       z     vdW  Elec       q    Type
REMARK                         _______ _______ _______ _____ _____    ______ ____
ROOT
ATOM      1  C   UNL     1      -0.751  -1.959   1.528  0.00  0.00    +0.222 C 
ATOM      2  O   UNL     1      -1.440  -2.338   2.451  0.00  0.00    -0.275 OA
ATOM      3  N   UNL     1       0.591  -1.938   1.652  0.00  0.00    -0.284 N 
ATOM      4  H   UNL     1       1.146  -1.720   0.887  0.00  0.00    +0.155 HD
ENDROOT
BRANCH   1   5
ATOM      5  C   UNL     1      -1.395  -1.512   0.241  0.00  0.00    +0.032 C 
ATOM      6  C   UNL     1      -0.784  -2.283  -0.933  0.00  0.00    +0.012 C 
ATOM      7  C   UNL     1      -1.093  -3.774  -0.768  0.00  0.00    -0.018 C 
ATOM      8  C   UNL     1      -2.608  -3.968  -0.672  0.00  0.00    -0.083 C 
ATOM      9  N   UNL     1      -3.127  -3.228   0.484  0.00  0.00    +0.380 N 
ATOM     10  C   UNL     1      -2.899  -1.790   0.299  0.00  0.00    -0.066 C 
ATOM     11  H   UNL     1      -4.117  -3.401   0.576  0.00  0.00    -0.086 HD
ATOM     12  H   UNL     1      -2.655  -3.538   1.320  0.00  0.00    -0.086 HD
BRANCH   5  13
ATOM     13  C   UNL     1      -1.160  -0.013   0.045  0.00  0.00    +0.014 C 
BRANCH  13  15
ATOM     14  C   UNL     1      -1.365   2.236   1.115  0.00  0.00    +0.004 C 
ATOM     15  C   UNL     1      -1.706   0.750   1.254  0.00  0.00    -0.002 C 
ENDBRANCH  13  15
ENDBRANCH   5  13
ENDBRANCH   1   5
BRANCH   3  16
ATOM     16  C   UNL     1       1.182  -2.229   2.881  0.00  0.00    +0.052 A 
ATOM     17  C   UNL     1       0.587  -3.140   3.742  0.00  0.00    +0.044 A 
ATOM     18  C   UNL     1       1.175  -3.426   4.960  0.00  0.00    +0.043 A 
ATOM     19  C   UNL     1       2.359  -2.808   5.330  0.00  0.00    +0.021 A 
ATOM     20  C   UNL     1       2.963  -1.901   4.487  0.00  0.00    +0.022 A 
ATOM     21  C   UNL     1       2.384  -1.605   3.250  0.00  0.00    +0.073 A 
ATOM     22 CL   UNL     1       0.424  -4.567   6.032  0.00  0.00    -0.083 Cl
BRANCH  21  23
ATOM     23  C   UNL     1       3.010  -0.668   2.367  0.00  0.00    +0.101 C 
ATOM     24  N   UNL     1       3.506   0.076   1.667  0.00  0.00    -0.191 NA
ENDBRANCH  21  23
ENDBRANCH   3  16
TORSDOF 5
