REMARK  Name = ZINC36483992
REMARK  6 active torsions:
REMARK  status: ('A' for Active; 'I' for Inactive)
REMARK    1  A    between atoms: C_3  and  C_8
REMARK    2  A    between atoms: C_5  and  O_7
REMARK    3  A    between atoms: C_8  and  C_10
REMARK    4  A    between atoms: C_8  and  N_19
REMARK    5  A    between atoms: N_12  and  C_13
REMARK    6  A    between atoms: N_19  and  C_22
REMARK                            x       y       z     vdW  Elec       q    Type
REMARK                         _______ _______ _______ _____ _____    ______ ____
ROOT
ATOM      1  C   UNL     1       3.456   2.082   0.158  0.00  0.00    +0.197 C 
ENDROOT
BRANCH   1   4
ATOM      2  C   UNL     1       0.836  -0.287   1.493  0.00  0.00    +0.004 A 
ATOM      3  C   UNL     1       2.058   0.297   1.219  0.00  0.00    +0.006 A 
ATOM      4  C   UNL     1       2.122   1.447   0.454  0.00  0.00    -0.014 A 
ATOM      5  C   UNL     1       0.962   2.016  -0.038  0.00  0.00    +0.051 A 
ATOM      6  C   UNL     1      -0.266   1.431   0.235  0.00  0.00    +0.117 A 
ATOM      7  C   UNL     1      -0.326   0.277   1.003  0.00  0.00    +0.045 A 
BRANCH   6   8
ATOM      8  O   UNL     1      -1.407   1.988  -0.247  0.00  0.00    -0.507 OA
ATOM      9  H   UNL     1      -1.667   1.659  -1.119  0.00  0.00    +0.292 HD
ENDBRANCH   6   8
ENDBRANCH   1   4
BRANCH   1  10
ATOM     10  C   UNL     1       3.627   2.218  -1.333  0.00  0.00    +0.239 C 
ATOM     11  O   UNL     1       3.783   3.314  -1.828  0.00  0.00    -0.273 OA
ATOM     12  N   UNL     1       3.607   1.122  -2.117  0.00  0.00    -0.311 N 
ATOM     13  H   UNL     1       3.482   0.245  -1.721  0.00  0.00    +0.149 HD
BRANCH  12  14
ATOM     14  C   UNL     1       3.773   1.254  -3.567  0.00  0.00    +0.073 C 
ATOM     15  C   UNL     1       2.419   1.559  -4.210  0.00  0.00    +0.022 C 
ATOM     16  C   UNL     1       2.592   1.698  -5.723  0.00  0.00    +0.002 C 
ATOM     17  C   UNL     1       3.145   0.391  -6.295  0.00  0.00    +0.000 C 
ATOM     18  C   UNL     1       4.500   0.085  -5.652  0.00  0.00    +0.002 C 
ATOM     19  C   UNL     1       4.326  -0.053  -4.138  0.00  0.00    +0.022 C 
ENDBRANCH  12  14
ENDBRANCH   1  10
BRANCH   1  20
ATOM     20  N   UNL     1       3.515   3.407   0.779  0.00  0.00    -0.258 N 
ATOM     21  C   UNL     1       2.703   4.392   0.346  0.00  0.00    +0.333 C 
ATOM     22  O   UNL     1       2.811   5.511   0.801  0.00  0.00    -0.279 OA
BRANCH  20  23
ATOM     23  C   UNL     1       4.415   3.651   1.823  0.00  0.00    +0.039 A 
ATOM     24  C   UNL     1       3.943   3.879   3.109  0.00  0.00    +0.023 A 
ATOM     25  C   UNL     1       4.833   4.119   4.137  0.00  0.00    +0.003 A 
ATOM     26  C   UNL     1       6.193   4.134   3.888  0.00  0.00    +0.020 A 
ATOM     27  C   UNL     1       6.667   3.908   2.607  0.00  0.00    +0.043 A 
ATOM     28  C   UNL     1       5.781   3.660   1.575  0.00  0.00    +0.043 A 
ATOM     29 CL   UNL     1       8.375   3.928   2.298  0.00  0.00    -0.083 Cl
ENDBRANCH  20  23
ENDBRANCH   1  20
TORSDOF 6
