REMARK  Name = ZINC12575101
REMARK  4 active torsions:
REMARK  status: ('A' for Active; 'I' for Inactive)
REMARK    1  A    between atoms: C_11  and  C_26
REMARK    2  A    between atoms: C_15  and  C_16
REMARK    3  A    between atoms: C_15  and  N_55
REMARK    4  A    between atoms: C_30  and  O_32
REMARK                            x       y       z     vdW  Elec       q    Type
REMARK                         _______ _______ _______ _____ _____    ______ ____
ROOT
ATOM      1  C   UNL     1      -5.528   4.702  -7.298  0.00  0.00    +0.001 A 
ATOM      2  C   UNL     1      -6.588   5.508  -6.916  0.00  0.00    +0.002 A 
ATOM      3  C   UNL     1      -6.825   5.838  -5.593  0.00  0.00    +0.026 A 
ATOM      4  C   UNL     1      -5.943   5.321  -4.646  0.00  0.00    +0.047 A 
ATOM      5  C   UNL     1      -4.859   4.496  -5.043  0.00  0.00    +0.003 A 
ATOM      6  C   UNL     1      -4.644   4.179  -6.388  0.00  0.00    +0.010 A 
ATOM      7  C   UNL     1      -4.163   4.143  -3.826  0.00  0.00    -0.022 A 
ATOM      8  C   UNL     1      -4.818   4.737  -2.803  0.00  0.00    +0.011 A 
ATOM      9  N   UNL     1      -5.885   5.444  -3.287  0.00  0.00    -0.359 N 
ATOM     10  H   UNL     1      -6.507   5.955  -2.745  0.00  0.00    +0.166 HD
ATOM     11  C   UNL     1      -4.387   4.603  -1.362  0.00  0.00    +0.011 C 
ATOM     12  C   UNL     1      -2.845   2.902  -2.158  0.00  0.00    -0.072 C 
ATOM     13  C   UNL     1      -2.938   3.283  -3.642  0.00  0.00    +0.019 C 
ATOM     14  N   UNL     1      -2.982   4.130  -1.343  0.00  0.00    +0.391 N 
ATOM     15  H   UNL     1      -2.380   4.861  -1.740  0.00  0.00    -0.080 HD
ENDROOT
BRANCH  11  16
ATOM     16  C   UNL     1      -4.458   5.948  -0.685  0.00  0.00    -0.052 A 
ATOM     17  C   UNL     1      -3.451   6.875  -0.882  0.00  0.00    +0.002 A 
ATOM     18  C   UNL     1      -3.514   8.109  -0.264  0.00  0.00    +0.004 A 
ATOM     19  C   UNL     1      -4.584   8.420   0.553  0.00  0.00    +0.045 A 
ATOM     20  C   UNL     1      -5.595   7.492   0.753  0.00  0.00    +0.117 A 
ATOM     21  C   UNL     1      -5.532   6.256   0.127  0.00  0.00    +0.047 A 
BRANCH  20  22
ATOM     22  O   UNL     1      -6.649   7.796   1.556  0.00  0.00    -0.507 OA
ATOM     23  H   UNL     1      -7.390   8.210   1.093  0.00  0.00    +0.292 HD
ENDBRANCH  20  22
ENDBRANCH  11  16
BRANCH  14  24
ATOM     24  C   UNL     1      -2.559   3.863   0.047  0.00  0.00    -0.041 C 
BRANCH  24  25
ATOM     25  C   UNL     1      -1.241   3.132   0.029  0.00  0.00    -0.060 A 
ATOM     26  C   UNL     1      -1.219   1.750   0.017  0.00  0.00    +0.005 A 
ATOM     27  C   UNL     1      -0.013   1.076   0.008  0.00  0.00    +0.049 A 
ATOM     28  C   UNL     1       1.179   1.785   0.000  0.00  0.00    +0.162 A 
ATOM     29  C   UNL     1       1.157   3.175   0.005  0.00  0.00    +0.162 A 
ATOM     30  C   UNL     1      -0.057   3.845   0.020  0.00  0.00    +0.051 A 
ATOM     31  O   UNL     1       2.315   3.890  -0.010  0.00  0.00    -0.485 OA
ATOM     32  C   UNL     1       3.509   3.189   0.355  0.00  0.00    +0.270 C 
ATOM     33  C   UNL     1       3.524   1.847  -0.390  0.00  0.00    +0.270 C 
ATOM     34  O   UNL     1       2.360   1.107  -0.006  0.00  0.00    -0.485 OA
ENDBRANCH  24  25
ENDBRANCH  14  24
TORSDOF 4
