REMARK  Name = ZINC43510827
REMARK  14 active torsions:
REMARK  status: ('A' for Active; 'I' for Inactive)
REMARK    1  A    between atoms: C_1  and  C_2
REMARK    2  A    between atoms: C_2  and  C_39
REMARK    3  A    between atoms: C_3  and  C_4
REMARK    4  A    between atoms: C_4  and  C_5
REMARK    5  A    between atoms: C_5  and  C_6
REMARK    6  A    between atoms: C_6  and  C_8
REMARK    7  A    between atoms: C_12  and  C_38
REMARK    8  A    between atoms: C_19  and  C_37
REMARK    9  A    between atoms: C_24  and  C_36
REMARK   10  A    between atoms: C_27  and  O_32
REMARK   11  A    between atoms: C_29  and  C_30
REMARK   12  A    between atoms: C_29  and  C_31
REMARK   13  A    between atoms: O_32  and  C_33
REMARK   14  A    between atoms: C_33  and  C_35
REMARK                            x       y       z     vdW  Elec       q    Type
REMARK                         _______ _______ _______ _____ _____    ______ ____
ROOT
ATOM      1  C   UNL     1      -0.214  -0.539   5.618  0.00  0.00    +0.018 C 
ATOM      2  C   UNL     1       0.896   0.370   5.054  0.00  0.00    +0.009 C 
ATOM      3  C   UNL     1       2.236  -0.325   5.374  0.00  0.00    +0.008 C 
ATOM      4  C   UNL     1       1.910  -1.828   5.559  0.00  0.00    -0.023 C 
ATOM      5  C   UNL     1       0.461  -1.823   6.067  0.00  0.00    +0.003 C 
ATOM      6  C   UNL     1      -0.294  -3.106   5.908  0.00  0.00    +0.005 C 
ATOM      7  C   UNL     1      -0.043  -3.815   4.578  0.00  0.00    +0.005 C 
ATOM      8  C   UNL     1       1.468  -3.969   4.379  0.00  0.00    +0.002 C 
ATOM      9  C   UNL     1       2.097  -2.590   4.245  0.00  0.00    -0.023 C 
ATOM     10  C   UNL     1       3.587  -2.694   3.914  0.00  0.00    +0.008 C 
ATOM     11  C   UNL     1       3.859  -3.648   2.761  0.00  0.00    +0.005 C 
ATOM     12  C   UNL     1       3.260  -5.036   2.950  0.00  0.00    +0.004 C 
ATOM     13  C   UNL     1       1.780  -4.959   3.276  0.00  0.00    -0.025 C 
ATOM     14  C   UNL     1       1.210  -6.337   3.647  0.00  0.00    +0.011 C 
ATOM     15  C   UNL     1       2.066  -7.013   4.712  0.00  0.00    +0.046 C 
ATOM     16  C   UNL     1       3.438  -7.285   4.095  0.00  0.00    +0.182 C 
ATOM     17  C   UNL     1       4.124  -5.950   3.785  0.00  0.00    +0.005 C 
ATOM     18  C   UNL     1       5.400  -6.290   2.981  0.00  0.00    +0.015 C 
ATOM     19  C   UNL     1       4.571  -5.328   5.108  0.00  0.00    +0.015 C 
ATOM     20  C   UNL     1       1.036  -4.584   1.971  0.00  0.00    +0.012 C 
ATOM     21  C   UNL     1       1.451  -1.796   3.103  0.00  0.00    +0.012 C 
ATOM     22  C   UNL     1       2.809  -2.411   6.682  0.00  0.00    +0.012 C 
ENDROOT
BRANCH   1  23
ATOM     23  C   UNL     1      -1.303  -0.748   4.606  0.00  0.00    -0.073 C 
ATOM     24  C   UNL     1      -2.386  -1.407   4.936  0.00  0.00    +0.008 C 
BRANCH  23  25
ATOM     25  C   UNL     1      -1.150  -0.200   3.211  0.00  0.00    +0.034 C 
BRANCH  25  26
ATOM     26  C   UNL     1      -1.610   1.259   3.183  0.00  0.00    +0.031 C 
BRANCH  26  29
ATOM     27  C   UNL     1      -3.710   2.433   1.712  0.00  0.00    +0.038 C 
ATOM     28  C   UNL     1      -2.331   2.336   1.114  0.00  0.00    -0.080 C 
ATOM     29  C   UNL     1      -1.343   1.843   1.819  0.00  0.00    -0.028 C 
ATOM     30  C   UNL     1      -2.087   2.807  -0.297  0.00  0.00    +0.038 C 
ENDBRANCH  26  29
ENDBRANCH  25  26
ENDBRANCH  23  25
ENDBRANCH   1  23
BRANCH  16  31
ATOM     31  O   UNL     1       4.239  -8.027   5.016  0.00  0.00    -0.461 OA
BRANCH  31  32
ATOM     32  C   UNL     1       4.169  -9.365   4.943  0.00  0.00    +0.304 C 
ATOM     33  O   UNL     1       3.451  -9.889   4.125  0.00  0.00    -0.251 OA
ATOM     34  C   UNL     1       4.986 -10.214   5.883  0.00  0.00    +0.136 C 
ENDBRANCH  31  32
ENDBRANCH  16  31
TORSDOF 6
