REMARK  Name = ZINC12000873
REMARK  13 active torsions:
REMARK  status: ('A' for Active; 'I' for Inactive)
REMARK    1  A    between atoms: C_1  and  C_2
REMARK    2  A    between atoms: C_2  and  C_3
REMARK    3  A    between atoms: C_2  and  C_4
REMARK    4  A    between atoms: C_4  and  C_5
REMARK    5  A    between atoms: C_5  and  N_65
REMARK    6  A    between atoms: C_11  and  C_13
REMARK    7  A    between atoms: C_13  and  C_14
REMARK    8  A    between atoms: N_16  and  C_17
REMARK    9  A    between atoms: N_16  and  C_18
REMARK   10  A    between atoms: C_20  and  C_25
REMARK   11  A    between atoms: C_20  and  C_26
REMARK   12  A    between atoms: C_21  and  C_23
REMARK   13  A    between atoms: C_21  and  C_24
REMARK                            x       y       z     vdW  Elec       q    Type
REMARK                         _______ _______ _______ _____ _____    ______ ____
ROOT
ATOM      1  C   UNL     1       0.283   1.513   0.020  0.00  0.00    +0.214 C 
ATOM      2  O   UNL     1       0.139   0.329  -0.197  0.00  0.00    -0.276 OA
ATOM      3  N   UNL     1      -0.794   2.320   0.093  0.00  0.00    -0.302 N 
ATOM      4  C   UNL     1      -0.620   3.751   0.356  0.00  0.00    +0.132 C 
ENDROOT
BRANCH   3   5
ATOM      5  C   UNL     1      -2.141   1.766  -0.089  0.00  0.00    +0.073 C 
ATOM      6  C   UNL     1      -2.816   2.460  -1.272  0.00  0.00    +0.009 C 
ATOM      7  C   UNL     1      -4.228   1.917  -1.473  0.00  0.00    -0.072 C 
ATOM      8  C   UNL     1      -4.385   1.485   0.996  0.00  0.00    -0.072 C 
ATOM      9  C   UNL     1      -2.970   2.032   1.167  0.00  0.00    +0.009 C 
ATOM     10  C   UNL     1      -4.365  -0.042   1.133  0.00  0.00    -0.010 C 
ATOM     11  C   UNL     1      -5.240   2.037   2.159  0.00  0.00    -0.010 C 
ATOM     12  C   UNL     1      -4.155   0.525  -2.112  0.00  0.00    -0.010 C 
ATOM     13  C   UNL     1      -4.945   2.845  -2.478  0.00  0.00    -0.010 C 
ATOM     14  N   UNL     1      -5.076   1.911  -0.251  0.00  0.00    +0.386 N 
ATOM     15  H   UNL     1      -5.862   1.271  -0.412  0.00  0.00    -0.084 HD
ATOM     16  H   UNL     1      -5.434   2.863  -0.107  0.00  0.00    -0.084 HD
ENDBRANCH   3   5
BRANCH   1  17
ATOM     17  C   UNL     1       1.666   2.083   0.201  0.00  0.00    +0.090 C 
BRANCH  17  23
ATOM     18  C   UNL     1       3.388  -0.980  -1.121  0.00  0.00    -0.059 C 
ATOM     19  C   UNL     1       2.761  -1.977  -0.144  0.00  0.00    +0.085 C 
ATOM     20  N   UNL     1       2.505  -1.327   1.138  0.00  0.00    -0.318 N 
ATOM     21  C   UNL     1       2.455   0.002   1.282  0.00  0.00    +0.200 C 
ATOM     22  O   UNL     1       2.205   0.458   2.378  0.00  0.00    -0.278 OA
ATOM     23  C   UNL     1       2.695   0.953   0.144  0.00  0.00    +0.028 C 
ATOM     24  H   UNL     1       2.364  -1.883   1.920  0.00  0.00    +0.149 HD
ATOM     25  N   UNL     1       2.549   0.235  -1.136  0.00  0.00    +0.389 N 
ATOM     26  H   UNL     1       1.566  -0.037  -1.258  0.00  0.00    -0.081 HD
BRANCH  25  27
ATOM     27  C   UNL     1       2.948   1.114  -2.258  0.00  0.00    -0.077 C 
BRANCH  27  28
ATOM     28  C   UNL     1       4.430   1.477  -2.147  0.00  0.00    -0.016 C 
BRANCH  28  30
ATOM     29  C   UNL     1       4.108   3.620  -3.390  0.00  0.00    +0.007 C 
ATOM     30  C   UNL     1       4.852   2.283  -3.377  0.00  0.00    -0.019 C 
ATOM     31  C   UNL     1       6.359   2.539  -3.327  0.00  0.00    +0.007 C 
ENDBRANCH  28  30
ENDBRANCH  27  28
ENDBRANCH  25  27
ENDBRANCH  17  23
ENDBRANCH   1  17
TORSDOF 6
