REMARK  Name = ZINC45470518
REMARK  7 active torsions:
REMARK  status: ('A' for Active; 'I' for Inactive)
REMARK    1  A    between atoms: C_1  and  C_2
REMARK    2  A    between atoms: C_15  and  C_17
REMARK    3  A    between atoms: C_17  and  N_18
REMARK    4  A    between atoms: N_18  and  C_19
REMARK    5  A    between atoms: N_18  and  C_25
REMARK    6  A    between atoms: C_19  and  C_20
REMARK    7  A    between atoms: C_25  and  C_26
REMARK                            x       y       z     vdW  Elec       q    Type
REMARK                         _______ _______ _______ _____ _____    ______ ____
ROOT
ATOM      1  C   UNL     1      -0.217   1.409  -0.136  0.00  0.00    +0.029 C 
ATOM      2  C   UNL     1      -0.249  -0.117  -0.022  0.00  0.00    +0.087 C 
ATOM      3  C   UNL     1       0.368  -0.733  -1.279  0.00  0.00    +0.118 C 
ATOM      4  C   UNL     1       0.709  -2.179  -1.033  0.00  0.00    +0.219 C 
ATOM      5  O   UNL     1       0.008  -3.051  -1.501  0.00  0.00    -0.275 OA
ATOM      6  N   UNL     1       1.790  -2.511  -0.295  0.00  0.00    -0.284 N 
ATOM      7  C   UNL     1       2.553  -1.519   0.331  0.00  0.00    +0.055 A 
ATOM      8  C   UNL     1       3.933  -1.498   0.206  0.00  0.00    +0.025 A 
ATOM      9  C   UNL     1       4.668  -0.522   0.853  0.00  0.00    +0.002 A 
ATOM     10  C   UNL     1       4.031   0.433   1.626  0.00  0.00    +0.002 A 
ATOM     11  C   UNL     1       2.653   0.425   1.748  0.00  0.00    +0.025 A 
ATOM     12  C   UNL     1       1.909  -0.543   1.093  0.00  0.00    +0.058 A 
ATOM     13  N   UNL     1       0.510  -0.533   1.158  0.00  0.00    -0.268 N 
ATOM     14  C   UNL     1      -0.125  -0.899   2.289  0.00  0.00    +0.204 C 
ATOM     15  O   UNL     1      -1.337  -0.886   2.335  0.00  0.00    -0.277 OA
ATOM     16  H   UNL     1       2.039  -3.443  -0.197  0.00  0.00    +0.155 HD
ENDROOT
BRANCH  14  17
ATOM     17  C   UNL     1       0.671  -1.325   3.496  0.00  0.00    +0.020 C 
BRANCH  17  18
ATOM     18  N   UNL     1      -0.244  -1.806   4.540  0.00  0.00    +0.390 N 
ATOM     19  H   UNL     1      -0.949  -1.107   4.718  0.00  0.00    -0.081 HD
BRANCH  18  20
ATOM     20  C   UNL     1      -0.889  -3.048   4.092  0.00  0.00    -0.035 C 
BRANCH  20  21
ATOM     21  C   UNL     1      -1.916  -3.475   5.109  0.00  0.00    -0.027 A 
ATOM     22  C   UNL     1      -3.232  -3.159   5.177  0.00  0.00    +0.009 A 
ATOM     23  C   UNL     1      -3.993  -3.673   6.210  0.00  0.00    +0.008 A 
ATOM     24  C   UNL     1      -3.400  -4.478   7.125  0.00  0.00    +0.045 A 
ATOM     25  S   UNL     1      -1.717  -4.536   6.531  0.00  0.00    -0.103 S 
ENDBRANCH  20  21
ENDBRANCH  18  20
BRANCH  18  26
ATOM     26  C   UNL     1       0.513  -2.065   5.772  0.00  0.00    -0.046 C 
BRANCH  26  27
ATOM     27  C   UNL     1       1.069  -0.747   6.315  0.00  0.00    +0.102 C 
ATOM     28  C   UNL     1       1.820  -1.001   7.640  0.00  0.00    +0.032 C 
ATOM     29  C   UNL     1       1.417   0.235   8.489  0.00  0.00    +0.030 C 
ATOM     30  C   UNL     1      -0.032   0.473   7.994  0.00  0.00    +0.160 C 
ATOM     31  O   UNL     1      -0.006   0.158   6.591  0.00  0.00    -0.378 OA
ENDBRANCH  26  27
ENDBRANCH  18  26
ENDBRANCH  17  18
ENDBRANCH  14  17
TORSDOF 6
