REMARK  Name = ZINC34791820
REMARK  14 active torsions:
REMARK  status: ('A' for Active; 'I' for Inactive)
REMARK    1  A    between atoms: C_1  and  C_2
REMARK    2  A    between atoms: C_2  and  N_3
REMARK    3  A    between atoms: C_6  and  C_11
REMARK    4  A    between atoms: C_14  and  C_18
REMARK    5  A    between atoms: C_16  and  C_17
REMARK    6  A    between atoms: N_21  and  C_23
REMARK    7  A    between atoms: C_23  and  C_25
REMARK    8  A    between atoms: C_23  and  C_32
REMARK    9  A    between atoms: C_25  and  C_26
REMARK   10  A    between atoms: N_34  and  C_35
REMARK   11  A    between atoms: C_35  and  C_36
REMARK   12  A    between atoms: C_36  and  C_37
REMARK   13  A    between atoms: C_37  and  C_38
REMARK   14  A    between atoms: C_37  and  C_39
REMARK                            x       y       z     vdW  Elec       q    Type
REMARK                         _______ _______ _______ _____ _____    ______ ____
ROOT
ATOM      1  N   UNL     1       1.764  -1.135   0.883  0.00  0.00    -0.257 N 
ATOM      2  C   UNL     1       3.057  -1.451   1.189  0.00  0.00    +0.042 C 
ATOM      3  C   UNL     1       3.427  -1.733   2.455  0.00  0.00    +0.058 C 
ATOM      4  C   UNL     1       2.358  -1.687   3.528  0.00  0.00    +0.142 C 
ATOM      5  N   UNL     1       0.995  -1.335   3.096  0.00  0.00    -0.288 N 
ATOM      6  C   UNL     1       0.781  -1.074   1.791  0.00  0.00    +0.307 C 
ATOM      7  O   UNL     1      -0.340  -0.779   1.426  0.00  0.00    -0.252 OA
ATOM      8  C   UNL     1       4.805  -2.026   2.509  0.00  0.00    +0.247 C 
ATOM      9  O   UNL     1       5.407  -2.316   3.527  0.00  0.00    -0.270 OA
ATOM     10  N   UNL     1       5.367  -1.945   1.290  0.00  0.00    -0.280 N 
ATOM     11  C   UNL     1       4.305  -1.572   0.344  0.00  0.00    +0.160 C 
ATOM     12  H   UNL     1       0.268  -1.289   3.737  0.00  0.00    +0.151 HD
ENDROOT
BRANCH   4  13
ATOM     13  C   UNL     1       2.788  -0.685   4.569  0.00  0.00    -0.020 A 
ATOM     14  C   UNL     1       3.695   0.305   4.242  0.00  0.00    +0.006 A 
ATOM     15  C   UNL     1       4.089   1.224   5.196  0.00  0.00    +0.004 A 
ATOM     16  C   UNL     1       3.575   1.153   6.478  0.00  0.00    -0.050 A 
ATOM     17  C   UNL     1       2.667   0.164   6.804  0.00  0.00    +0.007 A 
ATOM     18  C   UNL     1       2.270  -0.753   5.848  0.00  0.00    -0.045 A 
ATOM     19  C   UNL     1       1.276  -1.828   6.203  0.00  0.00    +0.044 C 
ATOM     20  C   UNL     1       4.006   2.154   7.519  0.00  0.00    +0.044 C 
ENDBRANCH   4  13
BRANCH   1  22
ATOM     21  C   UNL     1       1.614   0.657  -0.775  0.00  0.00    +0.025 C 
ATOM     22  C   UNL     1       1.435  -0.840  -0.514  0.00  0.00    +0.111 C 
ENDBRANCH   1  22
BRANCH  10  23
ATOM     23  C   UNL     1       6.776  -2.183   0.965  0.00  0.00    +0.167 C 
BRANCH  23  24
ATOM     24  C   UNL     1       7.148  -3.593   1.344  0.00  0.00    +0.234 C 
ATOM     25  O   UNL     1       6.318  -4.327   1.837  0.00  0.00    -0.274 OA
ATOM     26  N   UNL     1       8.402  -4.038   1.135  0.00  0.00    -0.314 N 
ATOM     27  H   UNL     1       9.066  -3.451   0.741  0.00  0.00    +0.149 HD
BRANCH  26  28
ATOM     28  C   UNL     1       8.764  -5.410   1.504  0.00  0.00    +0.104 C 
BRANCH  28  29
ATOM     29  C   UNL     1      10.235  -5.658   1.165  0.00  0.00    +0.022 C 
BRANCH  29  30
ATOM     30  C   UNL     1      10.612  -7.090   1.550  0.00  0.00    -0.016 C 
ATOM     31  C   UNL     1      12.045  -7.379   1.098  0.00  0.00    +0.007 C 
ATOM     32  C   UNL     1      10.514  -7.253   3.068  0.00  0.00    +0.007 C 
ENDBRANCH  29  30
ENDBRANCH  28  29
ENDBRANCH  26  28
ENDBRANCH  23  24
BRANCH  23  33
ATOM     33  C   UNL     1       7.652  -1.198   1.742  0.00  0.00    +0.067 C 
BRANCH  33  34
ATOM     34  C   UNL     1       7.366   0.206   1.274  0.00  0.00    -0.045 A 
ATOM     35  C   UNL     1       8.086   0.744   0.224  0.00  0.00    +0.004 A 
ATOM     36  C   UNL     1       7.824   2.032  -0.205  0.00  0.00    +0.000 A 
ATOM     37  C   UNL     1       6.842   2.781   0.416  0.00  0.00    +0.000 A 
ATOM     38  C   UNL     1       6.122   2.242   1.465  0.00  0.00    +0.000 A 
ATOM     39  C   UNL     1       6.381   0.953   1.892  0.00  0.00    +0.004 A 
ENDBRANCH  33  34
ENDBRANCH  23  33
ENDBRANCH  10  23
TORSDOF 9
