REMARK  Name = ZINC14467387
REMARK  8 active torsions:
REMARK  status: ('A' for Active; 'I' for Inactive)
REMARK    1  A    between atoms: C_2  and  C_3
REMARK    2  A    between atoms: C_3  and  N_4
REMARK    3  A    between atoms: N_4  and  C_5
REMARK    4  A    between atoms: N_4  and  S_8
REMARK    5  A    between atoms: C_5  and  C_6
REMARK    6  A    between atoms: S_8  and  C_11
REMARK    7  A    between atoms: C_24  and  C_27
REMARK    8  A    between atoms: C_32  and  O_33
REMARK                            x       y       z     vdW  Elec       q    Type
REMARK                         _______ _______ _______ _____ _____    ______ ____
ROOT
ATOM      1  C   UNL     1       0.002  -0.004   0.002  0.00  0.00    +0.106 A 
ATOM      2  C   UNL     1      -0.017   1.379   0.010  0.00  0.00    +0.030 A 
ATOM      3  C   UNL     1       1.167   2.088   0.002  0.00  0.00    +0.025 A 
ATOM      4  C   UNL     1       2.385   1.420  -0.013  0.00  0.00    +0.031 A 
ATOM      5  C   UNL     1       2.396   0.021  -0.009  0.00  0.00    -0.018 A 
ATOM      6  C   UNL     1       1.209  -0.678  -0.007  0.00  0.00    +0.034 A 
ATOM      7  C   UNL     1       3.714  -0.651   0.016  0.00  0.00    +0.049 C 
ATOM      8  C   UNL     1       3.936  -2.029  -0.519  0.00  0.00    -0.023 C 
ATOM      9  C   UNL     1       5.166  -2.113  -1.012  0.00  0.00    -0.030 C 
ATOM     10  C   UNL     1       5.885  -0.771  -0.855  0.00  0.00    +0.033 C 
ATOM     11  C   UNL     1       4.705   0.209  -0.824  0.00  0.00    +0.029 C 
ATOM     12  C   UNL     1       4.893   1.494  -0.037  0.00  0.00    +0.109 C 
ATOM     13  N   UNL     1       3.572   2.162  -0.043  0.00  0.00    -0.336 N 
ATOM     14  H   UNL     1       3.529   3.130  -0.067  0.00  0.00    +0.147 HD
ENDROOT
BRANCH  12  15
ATOM     15  C   UNL     1       5.313   1.183   1.376  0.00  0.00    +0.017 A 
ATOM     16  C   UNL     1       4.359   1.034   2.364  0.00  0.00    +0.029 A 
ATOM     17  C   UNL     1       4.743   0.743   3.661  0.00  0.00    +0.043 A 
ATOM     18  C   UNL     1       6.085   0.611   3.974  0.00  0.00    +0.043 A 
ATOM     19  C   UNL     1       7.043   0.765   2.989  0.00  0.00    +0.084 A 
ATOM     20  C   UNL     1       6.658   1.052   1.687  0.00  0.00    +0.140 A 
ATOM     21 CL   UNL     1       8.726   0.599   3.382  0.00  0.00    -0.080 Cl
ATOM     22 CL   UNL     1       3.541   0.550   4.898  0.00  0.00    -0.083 Cl
BRANCH  20  23
ATOM     23  O   UNL     1       7.598   1.203   0.717  0.00  0.00    -0.505 OA
ATOM     24  H   UNL     1       7.914   2.111   0.613  0.00  0.00    +0.292 HD
ENDBRANCH  20  23
ENDBRANCH  12  15
BRANCH   1  25
ATOM     25  S   UNL     1      -1.512  -0.906   0.003  0.00  0.00    +0.061 S 
ATOM     26  O   UNL     1      -1.221  -2.187   0.546  0.00  0.00    -0.153 OA
ATOM     27  O   UNL     1      -2.496  -0.047   0.563  0.00  0.00    -0.153 OA
BRANCH  25  28
ATOM     28  N   UNL     1      -1.938  -1.148  -1.578  0.00  0.00    -0.169 NA
BRANCH  28  29
ATOM     29  C   UNL     1      -1.478  -2.345  -2.287  0.00  0.00    +0.136 C 
BRANCH  29  31
ATOM     30  C   UNL     1      -2.999  -3.957  -3.311  0.00  0.00    +0.005 C 
ATOM     31  C   UNL     1      -2.539  -3.412  -2.212  0.00  0.00    -0.018 C 
ENDBRANCH  29  31
ENDBRANCH  28  29
BRANCH  28  32
ATOM     32  C   UNL     1      -2.777  -0.165  -2.269  0.00  0.00    +0.136 C 
BRANCH  32  33
ATOM     33  C   UNL     1      -1.900   0.797  -3.029  0.00  0.00    -0.018 C 
ATOM     34  C   UNL     1      -2.084   0.977  -4.313  0.00  0.00    +0.005 C 
ENDBRANCH  32  33
ENDBRANCH  28  32
ENDBRANCH  25  28
ENDBRANCH   1  25
TORSDOF 8
