REMARK  Name = ZINC13863940
REMARK  6 active torsions:
REMARK  status: ('A' for Active; 'I' for Inactive)
REMARK    1  A    between atoms: C_1  and  C_2
REMARK    2  A    between atoms: N_10  and  C_11
REMARK    3  A    between atoms: C_11  and  C_12
REMARK    4  A    between atoms: C_18  and  C_20
REMARK    5  A    between atoms: C_21  and  C_22
REMARK    6  A    between atoms: C_25  and  N_28
REMARK                            x       y       z     vdW  Elec       q    Type
REMARK                         _______ _______ _______ _____ _____    ______ ____
ROOT
ATOM      1  C   UNL     1      -0.013   1.087   0.003  0.00  0.00    +0.012 C 
ATOM      2  C   UNL     1      -0.726   1.585   1.262  0.00  0.00    +0.024 C 
ATOM      3  C   UNL     1      -2.151   1.025   1.293  0.00  0.00    +0.108 C 
ATOM      4  N   UNL     1      -2.825   1.380   0.037  0.00  0.00    -0.298 N 
ATOM      5  C   UNL     1      -2.181   1.028  -1.236  0.00  0.00    +0.108 C 
ATOM      6  C   UNL     1      -0.755   1.589  -1.237  0.00  0.00    +0.024 C 
ATOM      7  C   UNL     1      -4.013   2.018   0.052  0.00  0.00    +0.239 C 
ATOM      8  O   UNL     1      -4.516   2.392  -0.992  0.00  0.00    -0.271 OA
ENDROOT
BRANCH   7   9
ATOM      9  C   UNL     1      -4.697   2.260   1.321  0.00  0.00    +0.068 C 
ATOM     10  C   UNL     1      -5.931   2.807   1.329  0.00  0.00    +0.013 C 
BRANCH  10  11
ATOM     11  C   UNL     1      -6.619   3.050   2.605  0.00  0.00    -0.025 A 
ATOM     12  C   UNL     1      -5.998   2.709   3.813  0.00  0.00    +0.010 A 
ATOM     13  C   UNL     1      -6.641   2.942   5.001  0.00  0.00    +0.023 A 
ATOM     14  C   UNL     1      -7.914   3.507   5.007  0.00  0.00    +0.025 A 
ATOM     15  C   UNL     1      -8.537   3.842   3.808  0.00  0.00    +0.023 A 
ATOM     16  C   UNL     1      -7.899   3.618   2.615  0.00  0.00    +0.010 A 
BRANCH  14  17
ATOM     17  N   UNL     1      -8.565   3.736   6.215  0.00  0.00    -0.358 N 
ATOM     18  H   UNL     1      -9.452   4.129   6.221  0.00  0.00    +0.142 HD
ATOM     19  H   UNL     1      -8.133   3.503   7.051  0.00  0.00    +0.142 HD
ENDBRANCH  14  17
ENDBRANCH  10  11
ENDBRANCH   7   9
BRANCH   1  20
ATOM     20  C   UNL     1       1.423   1.617  -0.013  0.00  0.00    +0.127 C 
BRANCH  20  30
ATOM     21  C   UNL     1       1.645   2.859   2.812  0.00  0.00    +0.086 C 
ATOM     22  C   UNL     1       2.280   1.569   2.360  0.00  0.00    +0.108 A 
ATOM     23  N   UNL     1       3.012   0.796   3.108  0.00  0.00    -0.231 NA
ATOM     24  C   UNL     1       3.427  -0.275   2.387  0.00  0.00    +0.107 A 
ATOM     25  C   UNL     1       4.216  -1.393   2.660  0.00  0.00    +0.140 A 
ATOM     26  N   UNL     1       4.445  -2.285   1.719  0.00  0.00    -0.261 NA
ATOM     27  C   UNL     1       3.951  -2.169   0.498  0.00  0.00    +0.113 A 
ATOM     28  C   UNL     1       3.167  -1.105   0.143  0.00  0.00    +0.047 A 
ATOM     29  C   UNL     1       2.889  -0.129   1.093  0.00  0.00    +0.072 A 
ATOM     30  N   UNL     1       2.168   1.041   1.109  0.00  0.00    -0.327 N 
ENDBRANCH  20  30
ENDBRANCH   1  20
TORSDOF 5
