REMARK  Name = ZINC35747346
REMARK  13 active torsions:
REMARK  status: ('A' for Active; 'I' for Inactive)
REMARK    1  A    between atoms: C_1  and  C_2
REMARK    2  A    between atoms: C_2  and  C_3
REMARK    3  A    between atoms: C_2  and  C_4
REMARK    4  A    between atoms: C_4  and  N_5
REMARK    5  A    between atoms: N_5  and  C_6
REMARK    6  A    between atoms: N_5  and  C_25
REMARK    7  A    between atoms: C_6  and  C_7
REMARK    8  A    between atoms: C_13  and  C_18
REMARK    9  A    between atoms: C_25  and  C_26
REMARK   10  A    between atoms: C_26  and  C_28
REMARK   11  A    between atoms: C_26  and  O_31
REMARK   12  A    between atoms: C_28  and  O_29
REMARK   13  A    between atoms: O_29  and  C_30
REMARK                            x       y       z     vdW  Elec       q    Type
REMARK                         _______ _______ _______ _____ _____    ______ ____
ROOT
ATOM      1  C   UNL     1      -0.450  -2.468  -1.147  0.00  0.00    +0.094 A 
ATOM      2  N   UNL     1       0.624  -3.259  -0.892  0.00  0.00    -0.312 N 
ATOM      3  H   UNL     1       0.579  -3.903  -0.168  0.00  0.00    +0.170 HD
ATOM      4  C   UNL     1       1.750  -3.167  -1.624  0.00  0.00    +0.260 A 
ATOM      5  O   UNL     1       2.705  -3.884  -1.383  0.00  0.00    -0.267 OA
ATOM      6  C   UNL     1       1.807  -2.213  -2.691  0.00  0.00    +0.080 A 
ATOM      7  C   UNL     1       2.898  -1.928  -3.615  0.00  0.00    +0.004 A 
ATOM      8  C   UNL     1       2.721  -0.969  -4.556  0.00  0.00    +0.056 A 
ATOM      9  S   UNL     1       1.063  -0.392  -4.249  0.00  0.00    -0.076 S 
ATOM     10  C   UNL     1       0.650  -1.440  -2.879  0.00  0.00    +0.116 A 
ATOM     11  N   UNL     1      -0.429  -1.592  -2.115  0.00  0.00    -0.229 NA
ENDROOT
BRANCH   7  12
ATOM     12  C   UNL     1       4.178  -2.671  -3.526  0.00  0.00    -0.016 A 
ATOM     13  C   UNL     1       4.829  -2.799  -2.300  0.00  0.00    +0.010 A 
ATOM     14  C   UNL     1       6.019  -3.493  -2.223  0.00  0.00    +0.020 A 
ATOM     15  C   UNL     1       6.567  -4.062  -3.360  0.00  0.00    +0.041 A 
ATOM     16  C   UNL     1       5.924  -3.938  -4.580  0.00  0.00    +0.020 A 
ATOM     17  C   UNL     1       4.731  -3.251  -4.667  0.00  0.00    +0.010 A 
ATOM     18 CL   UNL     1       8.064  -4.934  -3.256  0.00  0.00    -0.084 Cl
ENDBRANCH   7  12
BRANCH   1  19
ATOM     19  C   UNL     1      -1.689  -2.607  -0.300  0.00  0.00    -0.003 C 
BRANCH  19  20
ATOM     20  N   UNL     1      -2.732  -1.705  -0.808  0.00  0.00    +0.386 N 
ATOM     21  H   UNL     1      -2.886  -1.887  -1.788  0.00  0.00    -0.081 HD
BRANCH  20  22
ATOM     22  C   UNL     1      -2.303  -0.311  -0.630  0.00  0.00    -0.075 C 
BRANCH  22  24
ATOM     23  C   UNL     1      -0.981   1.242   0.812  0.00  0.00    +0.005 C 
ATOM     24  C   UNL     1      -1.542  -0.176   0.690  0.00  0.00    -0.034 C 
ATOM     25  C   UNL     1      -2.492  -0.451   1.857  0.00  0.00    +0.005 C 
ENDBRANCH  22  24
ENDBRANCH  20  22
BRANCH  20  26
ATOM     26  C   UNL     1      -3.979  -1.932  -0.065  0.00  0.00    -0.044 C 
BRANCH  26  27
ATOM     27  C   UNL     1      -5.146  -1.294  -0.821  0.00  0.00    +0.124 C 
BRANCH  27  28
ATOM     28  O   UNL     1      -5.011   0.129  -0.792  0.00  0.00    -0.391 OA
ATOM     29  H   UNL     1      -4.982   0.503   0.099  0.00  0.00    +0.210 HD
ENDBRANCH  27  28
BRANCH  27  30
ATOM     30  C   UNL     1      -6.465  -1.695  -0.157  0.00  0.00    +0.188 C 
BRANCH  30  31
ATOM     31  O   UNL     1      -7.558  -1.196  -0.929  0.00  0.00    -0.381 OA
ATOM     32  C   UNL     1      -8.843  -1.517  -0.392  0.00  0.00    +0.194 C 
ENDBRANCH  30  31
ENDBRANCH  27  30
ENDBRANCH  26  27
ENDBRANCH  20  26
ENDBRANCH  19  20
ENDBRANCH   1  19
TORSDOF 10
