REMARK  Name = ZINC13136006
REMARK  6 active torsions:
REMARK  status: ('A' for Active; 'I' for Inactive)
REMARK    1  A    between atoms: C_1  and  C_2
REMARK    2  A    between atoms: C_2  and  C_3
REMARK    3  A    between atoms: C_3  and  C_5
REMARK    4  A    between atoms: C_3  and  S_6
REMARK    5  A    between atoms: S_6  and  C_7
REMARK    6  A    between atoms: C_14  and  C_24
REMARK                            x       y       z     vdW  Elec       q    Type
REMARK                         _______ _______ _______ _____ _____    ______ ____
ROOT
ATOM      1  C   UNL     1      -3.926  -0.602  -1.300  0.00  0.00    +0.172 A 
ATOM      2  N   UNL     1      -4.837  -0.401  -2.293  0.00  0.00    -0.322 N 
ATOM      3  C   UNL     1      -6.133  -0.817  -2.130  0.00  0.00    +0.112 A 
ATOM      4  C   UNL     1      -6.495  -1.429  -0.972  0.00  0.00    +0.069 A 
ATOM      5  C   UNL     1      -5.519  -1.624   0.030  0.00  0.00    +0.280 A 
ATOM      6  N   UNL     1      -4.262  -1.201  -0.177  0.00  0.00    -0.185 NA
ATOM      7  O   UNL     1      -5.816  -2.178   1.079  0.00  0.00    -0.265 OA
ATOM      8  C   UNL     1      -7.905  -1.890  -0.750  0.00  0.00    +0.099 C 
ATOM      9  C   UNL     1      -8.664  -1.976  -2.050  0.00  0.00    +0.024 C 
ATOM     10  C   UNL     1      -9.847  -2.735  -2.076  0.00  0.00    +0.162 C 
ATOM     11  C   UNL     1     -10.655  -2.878  -3.337  0.00  0.00    +0.080 C 
ATOM     12  C   UNL     1      -9.720  -2.756  -4.544  0.00  0.00    +0.014 C 
ATOM     13  C   UNL     1      -8.985  -1.417  -4.455  0.00  0.00    +0.051 C 
ATOM     14  C   UNL     1      -8.220  -1.343  -3.157  0.00  0.00    +0.017 C 
ATOM     15  N   UNL     1      -7.059  -0.620  -3.128  0.00  0.00    -0.304 N 
ATOM     16  O   UNL     1     -10.224  -3.285  -1.060  0.00  0.00    -0.292 OA
ATOM     17  H   UNL     1      -6.887   0.040  -3.819  0.00  0.00    +0.153 HD
ATOM     18  H   UNL     1      -4.569   0.038  -3.115  0.00  0.00    +0.169 HD
ENDROOT
BRANCH   8  19
ATOM     19  C   UNL     1      -8.604  -0.917   0.164  0.00  0.00    +0.002 A 
ATOM     20  C   UNL     1      -9.163  -1.138   1.379  0.00  0.00    +0.012 A 
ATOM     21  C   UNL     1      -9.757  -0.083   2.046  0.00  0.00    +0.008 A 
ATOM     22  C   UNL     1      -9.763   1.141   1.465  0.00  0.00    +0.045 A 
ATOM     23  S   UNL     1      -8.905   0.827  -0.069  0.00  0.00    -0.101 S 
ENDBRANCH   8  19
BRANCH   1  24
ATOM     24  S   UNL     1      -2.265  -0.057  -1.527  0.00  0.00    -0.085 S 
BRANCH  24  25
ATOM     25  C   UNL     1      -1.433  -0.534   0.013  0.00  0.00    +0.051 C 
ATOM     26  C   UNL     1      -1.413  -2.059   0.130  0.00  0.00    +0.019 C 
BRANCH  25  28
ATOM     27  C   UNL     1      -0.019   1.526   0.010  0.00  0.00    +0.005 C 
ATOM     28  C   UNL     1       0.002  -0.004   0.002  0.00  0.00    +0.011 C 
ENDBRANCH  25  28
ENDBRANCH  24  25
ENDBRANCH   1  24
TORSDOF 4
