REMARK  Name = ZINC44453221
REMARK  7 active torsions:
REMARK  status: ('A' for Active; 'I' for Inactive)
REMARK    1  A    between atoms: C_1  and  C_2
REMARK    2  A    between atoms: N_4  and  N_5
REMARK    3  A    between atoms: C_6  and  C_8
REMARK    4  A    between atoms: C_12  and  N_13
REMARK    5  A    between atoms: C_14  and  C_16
REMARK    6  A    between atoms: C_19  and  S_22
REMARK    7  A    between atoms: S_22  and  N_25
REMARK                            x       y       z     vdW  Elec       q    Type
REMARK                         _______ _______ _______ _____ _____    ______ ____
ROOT
ATOM      1  N   UNL     1       0.017  -4.441  -4.836  0.00  0.00    -0.275 N 
ATOM      2  C   UNL     1       0.018  -5.295  -5.878  0.00  0.00    +0.249 C 
ATOM      3  O   UNL     1       0.037  -6.494  -5.681  0.00  0.00    -0.270 OA
ATOM      4  H   UNL     1       0.002  -3.484  -4.993  0.00  0.00    +0.156 HD
ENDROOT
BRANCH   2   5
ATOM      5  C   UNL     1      -0.002  -4.774  -7.261  0.00  0.00    +0.037 A 
ATOM      6  C   UNL     1      -0.017  -3.397  -7.491  0.00  0.00    +0.015 A 
ATOM      7  C   UNL     1      -0.035  -2.917  -8.784  0.00  0.00    +0.029 A 
ATOM      8  C   UNL     1      -0.039  -3.797  -9.852  0.00  0.00    +0.106 A 
ATOM      9  C   UNL     1      -0.024  -5.163  -9.631  0.00  0.00    +0.029 A 
ATOM     10  C   UNL     1      -0.000  -5.656  -8.343  0.00  0.00    +0.015 A 
BRANCH   8  11
ATOM     11  S   UNL     1      -0.062  -3.176 -11.501  0.00  0.00    +0.061 S 
ATOM     12  O   UNL     1      -0.613  -4.203 -12.314  0.00  0.00    -0.153 OA
ATOM     13  O   UNL     1      -0.624  -1.873 -11.436  0.00  0.00    -0.153 OA
BRANCH  11  14
ATOM     14  N   UNL     1       1.513  -2.989 -11.976  0.00  0.00    -0.177 NA
ATOM     15  C   UNL     1       2.168  -1.725 -11.722  0.00  0.00    +0.109 C 
ATOM     16  C   UNL     1       1.938  -0.771 -12.920  0.00  0.00    +0.017 C 
ATOM     17  C   UNL     1       2.713  -1.220 -14.087  0.00  0.00    +0.001 C 
ATOM     18  C   UNL     1       2.313  -2.594 -14.616  0.00  0.00    +0.001 C 
ATOM     19  C   UNL     1       3.043  -3.661 -13.839  0.00  0.00    +0.017 C 
ATOM     20  C   UNL     1       2.192  -4.121 -12.636  0.00  0.00    +0.109 C 
ENDBRANCH  11  14
ENDBRANCH   8  11
ENDBRANCH   2   5
BRANCH   1  25
ATOM     21  C   UNL     1       0.037  -4.206  -2.355  0.00  0.00    +0.067 A 
ATOM     22  C   UNL     1       0.053  -4.972  -1.131  0.00  0.00    +0.022 A 
ATOM     23  C   UNL     1       0.070  -6.310  -1.276  0.00  0.00    +0.048 A 
ATOM     24  S   UNL     1       0.066  -6.531  -3.041  0.00  0.00    -0.081 S 
ATOM     25  C   UNL     1       0.036  -4.929  -3.540  0.00  0.00    +0.084 A 
BRANCH  21  27
ATOM     26  N   UNL     1       0.019  -2.072  -1.177  0.00  0.00    -0.230 N 
ATOM     27  C   UNL     1       0.017  -2.740  -2.347  0.00  0.00    +0.262 C 
ATOM     28  O   UNL     1      -0.001  -2.126  -3.398  0.00  0.00    -0.269 OA
ATOM     29  H   UNL     1       0.034  -2.562  -0.339  0.00  0.00    +0.173 HD
BRANCH  26  33
ATOM     30  C   UNL     1      -0.018   1.503   0.010  0.00  0.00    +0.110 C 
ATOM     31  C   UNL     1       0.002  -0.004   0.002  0.00  0.00    +0.226 C 
ATOM     32  O   UNL     1       0.020  -0.616   1.049  0.00  0.00    -0.275 OA
ATOM     33  N   UNL     1       0.000  -0.672  -1.169  0.00  0.00    -0.234 N 
ATOM     34  H   UNL     1      -0.015  -0.182  -2.006  0.00  0.00    +0.173 HD
ENDBRANCH  26  33
ENDBRANCH  21  27
ENDBRANCH   1  25
TORSDOF 6
