REMARK  Name = ZINC36186855
REMARK  13 active torsions:
REMARK  status: ('A' for Active; 'I' for Inactive)
REMARK    1  A    between atoms: C_1  and  C_2
REMARK    2  A    between atoms: C_2  and  O_3
REMARK    3  A    between atoms: O_3  and  C_4
REMARK    4  A    between atoms: C_11  and  C_36
REMARK    5  A    between atoms: C_12  and  C_25
REMARK    6  A    between atoms: N_19  and  C_20
REMARK    7  A    between atoms: C_20  and  C_21
REMARK    8  A    between atoms: C_21  and  C_22
REMARK    9  A    between atoms: C_22  and  O_23
REMARK   10  A    between atoms: O_23  and  C_24
REMARK   11  A    between atoms: N_27  and  C_28
REMARK   12  A    between atoms: C_31  and  C_35
REMARK   13  A    between atoms: C_33  and  C_34
REMARK                            x       y       z     vdW  Elec       q    Type
REMARK                         _______ _______ _______ _____ _____    ______ ____
ROOT
ATOM      1  C   UNL     1       0.830  -1.833   1.306  0.00  0.00    +0.162 A 
ATOM      2  C   UNL     1       0.297  -2.681   0.350  0.00  0.00    +0.049 A 
ATOM      3  C   UNL     1       0.410  -4.051   0.501  0.00  0.00    +0.004 A 
ATOM      4  C   UNL     1       1.058  -4.573   1.604  0.00  0.00    +0.009 A 
ATOM      5  C   UNL     1       1.594  -3.729   2.562  0.00  0.00    +0.019 A 
ATOM      6  C   UNL     1       1.486  -2.359   2.420  0.00  0.00    +0.170 A 
ATOM      7  O   UNL     1       1.987  -1.498   3.344  0.00  0.00    -0.464 OA
ATOM      8  C   UNL     1       2.869  -2.003   4.343  0.00  0.00    +0.190 C 
ATOM      9  C   UNL     1       2.288  -3.312   4.896  0.00  0.00    +0.162 C 
ATOM     10  C   UNL     1       2.307  -4.333   3.752  0.00  0.00    +0.123 C 
ATOM     11  N   UNL     1       3.716  -4.523   3.369  0.00  0.00    -0.318 N 
ATOM     12  C   UNL     1       4.558  -3.476   3.385  0.00  0.00    +0.136 C 
ATOM     13  S   UNL     1       6.168  -3.705   2.850  0.00  0.00    -0.019 S 
ATOM     14  N   UNL     1       4.194  -2.259   3.787  0.00  0.00    -0.275 N 
ATOM     15  C   UNL     1       2.982  -0.986   5.481  0.00  0.00    +0.079 C 
ATOM     16  H   UNL     1       4.035  -5.401   3.107  0.00  0.00    +0.148 HD
ENDROOT
BRANCH   9  17
ATOM     17  C   UNL     1       0.870  -3.093   5.356  0.00  0.00    +0.228 C 
ATOM     18  O   UNL     1       0.363  -1.996   5.257  0.00  0.00    -0.275 OA
ATOM     19  N   UNL     1       0.166  -4.117   5.879  0.00  0.00    -0.285 N 
ATOM     20  H   UNL     1       0.541  -5.011   5.886  0.00  0.00    +0.155 HD
BRANCH  19  21
ATOM     21  C   UNL     1      -1.108  -3.889   6.413  0.00  0.00    +0.036 A 
ATOM     22  C   UNL     1      -1.450  -2.627   6.882  0.00  0.00    +0.024 A 
ATOM     23  C   UNL     1      -2.708  -2.406   7.408  0.00  0.00    +0.005 A 
ATOM     24  C   UNL     1      -3.626  -3.439   7.468  0.00  0.00    -0.050 A 
ATOM     25  C   UNL     1      -3.287  -4.696   7.002  0.00  0.00    +0.008 A 
ATOM     26  C   UNL     1      -2.033  -4.922   6.469  0.00  0.00    -0.029 A 
ATOM     27  C   UNL     1      -1.668  -6.291   5.955  0.00  0.00    +0.045 C 
ATOM     28  C   UNL     1      -4.997  -3.194   8.043  0.00  0.00    +0.044 C 
ENDBRANCH  19  21
ENDBRANCH   9  17
BRANCH   1  29
ATOM     29  O   UNL     1       0.719  -0.486   1.156  0.00  0.00    -0.489 OA
BRANCH  29  31
ATOM     30  C   UNL     1       0.011   1.513  -0.003  0.00  0.00    +0.048 C 
ATOM     31  C   UNL     1       0.035  -0.017  -0.008  0.00  0.00    +0.226 C 
ENDBRANCH  29  31
ENDBRANCH   1  29
BRANCH  14  32
ATOM     32  C   UNL     1       5.147  -1.150   3.684  0.00  0.00    +0.113 C 
BRANCH  32  33
ATOM     33  C   UNL     1       5.974  -1.068   4.969  0.00  0.00    +0.047 C 
BRANCH  33  34
ATOM     34  C   UNL     1       6.969   0.089   4.862  0.00  0.00    +0.161 C 
BRANCH  34  35
ATOM     35  O   UNL     1       7.742   0.166   6.061  0.00  0.00    -0.383 OA
ATOM     36  C   UNL     1       8.707   1.220   6.065  0.00  0.00    +0.193 C 
ENDBRANCH  34  35
ENDBRANCH  33  34
ENDBRANCH  32  33
ENDBRANCH  14  32
TORSDOF 8
