REMARK  Name = ZINC09080766
REMARK  11 active torsions:
REMARK  status: ('A' for Active; 'I' for Inactive)
REMARK    1  A    between atoms: C_1  and  C_2
REMARK    2  A    between atoms: C_4  and  S_9
REMARK    3  A    between atoms: S_9  and  N_12
REMARK    4  A    between atoms: N_12  and  C_13
REMARK    5  A    between atoms: C_13  and  C_14
REMARK    6  A    between atoms: C_14  and  C_16
REMARK    7  A    between atoms: C_14  and  S_25
REMARK    8  A    between atoms: C_19  and  N_22
REMARK    9  A    between atoms: N_22  and  C_23
REMARK   10  A    between atoms: N_22  and  C_24
REMARK   11  A    between atoms: S_25  and  C_28
REMARK                            x       y       z     vdW  Elec       q    Type
REMARK                         _______ _______ _______ _____ _____    ______ ____
ROOT
ATOM      1  C   UNL     1      -2.513   0.976   0.019  0.00  0.00    +0.181 C 
ENDROOT
BRANCH   1   2
ATOM      2  C   UNL     1      -1.220   1.750   0.017  0.00  0.00    -0.022 A 
ATOM      3  C   UNL     1      -0.013   1.076   0.008  0.00  0.00    +0.007 A 
ATOM      4  C   UNL     1       1.174   1.782   0.000  0.00  0.00    +0.023 A 
ATOM      5  C   UNL     1       1.155   3.171   0.008  0.00  0.00    +0.029 A 
ATOM      6  C   UNL     1      -0.060   3.845   0.023  0.00  0.00    +0.023 A 
ATOM      7  C   UNL     1      -1.243   3.133   0.031  0.00  0.00    +0.007 A 
BRANCH   5   8
ATOM      8  N   UNL     1       2.353   3.888   0.000  0.00  0.00    -0.336 N 
ATOM      9  C   UNL     1       3.633   3.175  -0.017  0.00  0.00    +0.129 C 
ATOM     10  C   UNL     1       2.330   5.353   0.008  0.00  0.00    +0.129 C 
ENDBRANCH   5   8
ENDBRANCH   1   2
BRANCH   1  11
ATOM     11  S   UNL     1      -3.478   1.408  -1.456  0.00  0.00    +0.005 S 
ATOM     12  O   UNL     1      -2.682   1.257  -2.623  0.00  0.00    -0.169 OA
ATOM     13  O   UNL     1      -4.772   0.827  -1.381  0.00  0.00    -0.169 OA
BRANCH  11  14
ATOM     14  C   UNL     1      -3.756   3.143  -1.322  0.00  0.00    +0.089 A 
ATOM     15  C   UNL     1      -4.882   3.615  -0.673  0.00  0.00    +0.028 A 
ATOM     16  C   UNL     1      -5.098   4.975  -0.563  0.00  0.00    +0.022 A 
ATOM     17  C   UNL     1      -4.192   5.866  -1.113  0.00  0.00    +0.041 A 
ATOM     18  C   UNL     1      -3.069   5.393  -1.768  0.00  0.00    +0.022 A 
ATOM     19  C   UNL     1      -2.851   4.032  -1.872  0.00  0.00    +0.028 A 
ATOM     20 CL   UNL     1      -4.466   7.575  -0.982  0.00  0.00    -0.084 Cl
ENDBRANCH  11  14
ENDBRANCH   1  11
BRANCH   1  21
ATOM     21  C   UNL     1      -3.315   1.326   1.274  0.00  0.00    +0.137 C 
BRANCH  21  22
ATOM     22  N   UNL     1      -4.572   0.574   1.275  0.00  0.00    -0.188 NA
ATOM     23  H   UNL     1      -4.881   0.143   0.463  0.00  0.00    +0.148 HD
BRANCH  22  24
ATOM     24  S   UNL     1      -5.467   0.460   2.664  0.00  0.00    +0.058 S 
ATOM     25  O   UNL     1      -6.625  -0.299   2.340  0.00  0.00    -0.153 OA
ATOM     26  O   UNL     1      -4.569   0.075   3.695  0.00  0.00    -0.153 OA
BRANCH  24  30
ATOM     27  C   UNL     1      -8.984   4.312   2.333  0.00  0.00    +0.047 C 
ATOM     28  C   UNL     1      -7.669   3.814   2.875  0.00  0.00    -0.013 A 
ATOM     29  C   UNL     1      -7.231   2.540   2.564  0.00  0.00    +0.034 A 
ATOM     30  C   UNL     1      -6.024   2.084   3.060  0.00  0.00    +0.106 A 
ATOM     31  C   UNL     1      -5.256   2.898   3.872  0.00  0.00    +0.031 A 
ATOM     32  C   UNL     1      -5.690   4.174   4.180  0.00  0.00    +0.040 A 
ATOM     33  C   UNL     1      -6.898   4.632   3.683  0.00  0.00    +0.126 A 
ATOM     34  F   UNL     1      -7.325   5.877   3.987  0.00  0.00    -0.205 F 
ENDBRANCH  24  30
ENDBRANCH  22  24
ENDBRANCH  21  22
ENDBRANCH   1  21
TORSDOF 8
