REMARK  Name = ZINC04598517
REMARK  5 active torsions:
REMARK  status: ('A' for Active; 'I' for Inactive)
REMARK    1  A    between atoms: C_1  and  C_2
REMARK    2  A    between atoms: C_2  and  O_3
REMARK    3  A    between atoms: O_3  and  C_4
REMARK    4  A    between atoms: C_4  and  C_6
REMARK    5  A    between atoms: C_17  and  C_22
REMARK                            x       y       z     vdW  Elec       q    Type
REMARK                         _______ _______ _______ _____ _____    ______ ____
ROOT
ATOM      1  C   UNL     1      -0.048   4.357  -0.721  0.00  0.00    +0.184 C 
ATOM      2  C   UNL     1       1.153   3.841   0.089  0.00  0.00    +0.125 C 
ATOM      3  C   UNL     1       0.940   4.210   1.540  0.00  0.00    +0.016 A 
ATOM      4  C   UNL     1       2.039   4.314   2.373  0.00  0.00    +0.024 A 
ATOM      5  C   UNL     1       1.872   4.644   3.705  0.00  0.00    +0.018 A 
ATOM      6  C   UNL     1       0.602   4.869   4.206  0.00  0.00    +0.019 A 
ATOM      7  C   UNL     1      -0.496   4.767   3.377  0.00  0.00    +0.047 A 
ATOM      8  C   UNL     1      -0.332   4.439   2.034  0.00  0.00    +0.128 A 
ATOM      9  O   UNL     1      -1.434   4.364   1.246  0.00  0.00    -0.467 OA
ATOM     10  C   UNL     1      -1.310   3.792  -0.054  0.00  0.00    +0.189 C 
ATOM     11  N   UNL     1      -1.206   2.338   0.021  0.00  0.00    -0.289 N 
ATOM     12  C   UNL     1      -0.021   1.708   0.011  0.00  0.00    +0.134 C 
ATOM     13  S   UNL     1       0.002  -0.004   0.002  0.00  0.00    -0.019 S 
ATOM     14  N   UNL     1       1.147   2.371   0.004  0.00  0.00    -0.319 N 
ATOM     15  C   UNL     1      -2.536   4.162  -0.891  0.00  0.00    +0.079 C 
ATOM     16 BR   UNL     1       3.377   4.787   4.841  0.00  0.00    -0.050 Br
ATOM     17  H   UNL     1      -2.018   1.812   0.082  0.00  0.00    +0.151 HD
ATOM     18  H   UNL     1       1.984   1.883  -0.058  0.00  0.00    +0.148 HD
ENDROOT
BRANCH   1  19
ATOM     19  C   UNL     1      -0.079   5.863  -0.692  0.00  0.00    +0.318 C 
ATOM     20  O   UNL     1      -1.037   6.438  -0.231  0.00  0.00    -0.250 OA
BRANCH  19  21
ATOM     21  O   UNL     1       0.956   6.566  -1.177  0.00  0.00    -0.465 OA
BRANCH  21  23
ATOM     22  C   UNL     1       2.121   8.637  -1.712  0.00  0.00    +0.048 C 
ATOM     23  C   UNL     1       0.857   8.013  -1.117  0.00  0.00    +0.229 C 
ENDBRANCH  21  23
ENDBRANCH  19  21
ENDBRANCH   1  19
TORSDOF 3
