REMARK  Name = ZINC39854051
REMARK  7 active torsions:
REMARK  status: ('A' for Active; 'I' for Inactive)
REMARK    1  A    between atoms: C_1  and  C_2
REMARK    2  A    between atoms: N_8  and  C_14
REMARK    3  A    between atoms: N_12  and  O_13
REMARK    4  A    between atoms: C_14  and  C_15
REMARK    5  A    between atoms: C_15  and  C_16
REMARK    6  A    between atoms: C_16  and  O_17
REMARK    7  A    between atoms: O_17  and  C_18
REMARK                            x       y       z     vdW  Elec       q    Type
REMARK                         _______ _______ _______ _____ _____    ______ ____
ROOT
ATOM      1  C   UNL     1      -0.281   1.496   0.048  0.00  0.00    +0.046 C 
ATOM      2  C   UNL     1      -0.224  -0.010   0.034  0.00  0.00    -0.027 A 
ATOM      3  C   UNL     1      -0.412  -0.696  -1.150  0.00  0.00    +0.020 A 
ATOM      4  C   UNL     1      -0.363  -2.079  -1.178  0.00  0.00    +0.019 A 
ATOM      5  C   UNL     1      -0.123  -2.787  -0.016  0.00  0.00    +0.027 A 
ATOM      6  C   UNL     1       0.068  -2.105   1.180  0.00  0.00    +0.031 A 
ATOM      7  C   UNL     1       0.024  -0.705   1.212  0.00  0.00    +0.049 A 
ATOM      8  N   UNL     1       0.249  -0.264   2.513  0.00  0.00    -0.265 N 
ATOM      9  C   UNL     1       0.447  -1.293   3.355  0.00  0.00    +0.273 C 
ATOM     10  O   UNL     1       0.665  -1.211   4.548  0.00  0.00    -0.268 OA
ATOM     11  C   UNL     1       0.337  -2.548   2.568  0.00  0.00    +0.173 C 
ATOM     12  N   UNL     1       0.463  -3.770   3.002  0.00  0.00    -0.082 NA
ATOM     13 BR   UNL     1      -0.624  -3.001  -2.809  0.00  0.00    -0.050 Br
ENDROOT
BRANCH  12  14
ATOM     14  O   UNL     1       0.722  -4.012   4.372  0.00  0.00    -0.409 OA
ATOM     15  H   UNL     1       0.799  -4.949   4.599  0.00  0.00    +0.328 HD
ENDBRANCH  12  14
BRANCH   8  16
ATOM     16  C   UNL     1       0.268   1.145   2.914  0.00  0.00    +0.117 C 
BRANCH  16  17
ATOM     17  C   UNL     1      -1.143   1.581   3.312  0.00  0.00    +0.060 C 
BRANCH  17  18
ATOM     18  C   UNL     1      -1.123   3.053   3.731  0.00  0.00    +0.230 C 
BRANCH  18  19
ATOM     19  O   UNL     1      -2.441   3.460   4.103  0.00  0.00    -0.492 OA
BRANCH  19  20
ATOM     20  C   UNL     1      -2.598   4.749   4.504  0.00  0.00    +0.121 A 
ATOM     21  C   UNL     1      -1.492   5.604   4.529  0.00  0.00    +0.046 A 
ATOM     22  C   UNL     1      -1.617   6.899   4.925  0.00  0.00    +0.012 A 
ATOM     23  C   UNL     1      -2.876   7.389   5.315  0.00  0.00    -0.018 A 
ATOM     24  C   UNL     1      -3.041   8.722   5.729  0.00  0.00    +0.008 A 
ATOM     25  C   UNL     1      -4.274   9.164   6.099  0.00  0.00    +0.001 A 
ATOM     26  C   UNL     1      -5.379   8.315   6.074  0.00  0.00    +0.001 A 
ATOM     27  C   UNL     1      -5.256   7.018   5.679  0.00  0.00    +0.008 A 
ATOM     28  C   UNL     1      -3.999   6.525   5.290  0.00  0.00    -0.014 A 
ATOM     29  C   UNL     1      -3.836   5.195   4.871  0.00  0.00    +0.054 A 
ENDBRANCH  19  20
ENDBRANCH  18  19
ENDBRANCH  17  18
ENDBRANCH  16  17
ENDBRANCH   8  16
TORSDOF 6
