REMARK  Name = ZINC63704610
REMARK  4 active torsions:
REMARK  status: ('A' for Active; 'I' for Inactive)
REMARK    1  A    between atoms: C_1  and  C_2
REMARK    2  A    between atoms: C_4  and  C_26
REMARK    3  A    between atoms: C_6  and  N_8
REMARK    4  A    between atoms: C_9  and  C_11
REMARK                            x       y       z     vdW  Elec       q    Type
REMARK                         _______ _______ _______ _____ _____    ______ ____
ROOT
ATOM      1  C   UNL     1       0.280  -2.900   4.854  0.00  0.00    +0.205 C 
ATOM      2  C   UNL     1      -0.370  -2.139   6.018  0.00  0.00    +0.142 A 
ATOM      3  N   UNL     1      -1.661  -1.858   6.047  0.00  0.00    -0.193 NA
ATOM      4  C   UNL     1      -2.232  -1.192   7.064  0.00  0.00    +0.288 A 
ATOM      5  O   UNL     1      -3.428  -0.947   7.062  0.00  0.00    -0.265 OA
ATOM      6  C   UNL     1      -1.414  -0.789   8.126  0.00  0.00    +0.102 A 
ATOM      7  C   UNL     1      -0.053  -1.072   8.121  0.00  0.00    +0.069 A 
ATOM      8  N   UNL     1       0.468  -1.780   7.006  0.00  0.00    -0.284 N 
ATOM      9  C   UNL     1       1.801  -2.081   6.956  0.00  0.00    +0.128 C 
ATOM     10  S   UNL     1       2.998  -1.701   8.120  0.00  0.00    -0.025 S 
ATOM     11  S   UNL     1       2.024  -2.954   5.421  0.00  0.00    -0.079 S 
ATOM     12  C   UNL     1       0.624  -0.605   9.247  0.00  0.00    +0.034 A 
ATOM     13  C   UNL     1      -0.059   0.054  10.208  0.00  0.00    +0.048 A 
ATOM     14  S   UNL     1      -1.646   0.081   9.651  0.00  0.00    -0.090 S 
ENDROOT
BRANCH   1  16
ATOM     15  N   UNL     1       0.052  -2.797   2.393  0.00  0.00    -0.284 N 
ATOM     16  C   UNL     1       0.150  -2.134   3.562  0.00  0.00    +0.238 C 
ATOM     17  O   UNL     1       0.134  -0.922   3.575  0.00  0.00    -0.274 OA
ATOM     18  H   UNL     1      -0.012  -3.765   2.388  0.00  0.00    +0.155 HD
BRANCH  15  24
ATOM     19  C   UNL     1      -1.512  -2.365  -2.248  0.00  0.00    +0.044 C 
ATOM     20  C   UNL     1      -0.707  -1.857  -1.080  0.00  0.00    -0.048 A 
ATOM     21  C   UNL     1       0.025  -0.690  -1.201  0.00  0.00    +0.006 A 
ATOM     22  C   UNL     1       0.765  -0.220  -0.131  0.00  0.00    -0.048 A 
ATOM     23  C   UNL     1       0.776  -0.917   1.061  0.00  0.00    +0.026 A 
ATOM     24  C   UNL     1       0.043  -2.089   1.186  0.00  0.00    +0.034 A 
ATOM     25  C   UNL     1      -0.704  -2.555   0.112  0.00  0.00    +0.026 A 
ATOM     26  C   UNL     1       1.561   1.052  -0.268  0.00  0.00    +0.044 C 
ENDBRANCH  15  24
ENDBRANCH   1  16
TORSDOF 2
