REMARK  Name = ZINC36800125
REMARK  9 active torsions:
REMARK  status: ('A' for Active; 'I' for Inactive)
REMARK    1  A    between atoms: C_1  and  C_2
REMARK    2  A    between atoms: C_3  and  C_7
REMARK    3  A    between atoms: C_10  and  S_13
REMARK    4  A    between atoms: N_11  and  N_12
REMARK    5  A    between atoms: S_13  and  C_14
REMARK    6  A    between atoms: C_14  and  C_16
REMARK    7  A    between atoms: C_14  and  C_22
REMARK    8  A    between atoms: N_24  and  C_25
REMARK    9  A    between atoms: C_29  and  N_31
REMARK                            x       y       z     vdW  Elec       q    Type
REMARK                         _______ _______ _______ _____ _____    ______ ____
ROOT
ATOM      1  C   UNL     1      -7.306   0.660   0.053  0.00  0.00    +0.170 C 
ENDROOT
BRANCH   1   2
ATOM      2  C   UNL     1      -7.041   1.390   1.345  0.00  0.00    -0.025 A 
ATOM      3  C   UNL     1      -7.361   0.797   2.552  0.00  0.00    +0.005 A 
ATOM      4  C   UNL     1      -7.118   1.467   3.736  0.00  0.00    +0.000 A 
ATOM      5  C   UNL     1      -6.555   2.729   3.714  0.00  0.00    +0.000 A 
ATOM      6  C   UNL     1      -6.234   3.321   2.507  0.00  0.00    +0.000 A 
ATOM      7  C   UNL     1      -6.473   2.650   1.323  0.00  0.00    +0.005 A 
ENDBRANCH   1   2
BRANCH   1   8
ATOM      8  C   UNL     1      -8.780   0.372  -0.068  0.00  0.00    +0.235 C 
ATOM      9  O   UNL     1      -9.220  -0.700   0.291  0.00  0.00    -0.274 OA
ATOM     10  N   UNL     1      -9.609   1.305  -0.576  0.00  0.00    -0.284 N 
ATOM     11  H   UNL     1      -9.270   2.185  -0.801  0.00  0.00    +0.155 HD
BRANCH  10  12
ATOM     12  C   UNL     1     -10.961   1.004  -0.779  0.00  0.00    +0.036 A 
ATOM     13  C   UNL     1     -11.637   1.539  -1.867  0.00  0.00    +0.025 A 
ATOM     14  C   UNL     1     -12.971   1.240  -2.066  0.00  0.00    +0.024 A 
ATOM     15  C   UNL     1     -13.633   0.407  -1.180  0.00  0.00    +0.071 A 
ATOM     16  C   UNL     1     -12.962  -0.127  -0.095  0.00  0.00    +0.146 A 
ATOM     17  C   UNL     1     -11.627   0.165   0.105  0.00  0.00    +0.057 A 
ATOM     18 CL   UNL     1     -15.310   0.034  -1.431  0.00  0.00    -0.081 Cl
BRANCH  16  19
ATOM     19  N   UNL     1     -13.674  -1.016   0.851  0.00  0.00    +0.058 N 
ATOM     20  O   UNL     1     -13.088  -1.483   1.799  0.00  0.00    -0.126 OA
ATOM     21  O   UNL     1     -14.842  -1.275   0.674  0.00  0.00    -0.126 OA
ENDBRANCH  16  19
ENDBRANCH  10  12
ENDBRANCH   1   8
BRANCH   1  22
ATOM     22  S   UNL     1      -6.381  -0.901   0.040  0.00  0.00    -0.067 S 
BRANCH  22  26
ATOM     23  C   UNL     1      -2.508  -0.384   0.033  0.00  0.00    +0.185 A 
ATOM     24  N   UNL     1      -2.964   0.847   0.042  0.00  0.00    -0.127 NA
ATOM     25  N   UNL     1      -4.249   0.839   0.046  0.00  0.00    -0.121 NA
ATOM     26  C   UNL     1      -4.693  -0.397   0.039  0.00  0.00    +0.210 A 
ATOM     27  N   UNL     1      -3.601  -1.219   0.025  0.00  0.00    -0.224 N 
BRANCH  23  30
ATOM     28  C   UNL     1      -0.021   1.525   0.052  0.00  0.00    +0.087 C 
ATOM     29  C   UNL     1       0.003   0.019   0.035  0.00  0.00    +0.112 A 
ATOM     30  C   UNL     1      -1.087  -0.795   0.027  0.00  0.00    +0.061 A 
ATOM     31  C   UNL     1      -0.561  -2.166   0.011  0.00  0.00    +0.053 A 
ATOM     32  C   UNL     1       0.777  -2.049   0.011  0.00  0.00    +0.196 A 
ATOM     33  O   UNL     1       1.103  -0.748   0.021  0.00  0.00    -0.467 OA
ENDBRANCH  23  30
BRANCH  27  34
ATOM     34  N   UNL     1      -3.596  -2.585   0.008  0.00  0.00    -0.295 N 
ATOM     35  H   UNL     1      -3.593  -2.958   0.946  0.00  0.00    +0.163 HD
ATOM     36  H   UNL     1      -4.376  -2.943  -0.521  0.00  0.00    +0.163 HD
ENDBRANCH  27  34
ENDBRANCH  22  26
ENDBRANCH   1  22
TORSDOF 8
