REMARK  Name = ZINC22876182
REMARK  17 active torsions:
REMARK  status: ('A' for Active; 'I' for Inactive)
REMARK    1  A    between atoms: C_1  and  C_2
REMARK    2  A    between atoms: C_5  and  C_30
REMARK    3  A    between atoms: C_6  and  O_9
REMARK    4  A    between atoms: C_7  and  C_8
REMARK    5  A    between atoms: O_9  and  C_10
REMARK    6  A    between atoms: C_10  and  C_11
REMARK    7  A    between atoms: C_11  and  C_13
REMARK    8  A    between atoms: C_11  and  O_29
REMARK    9  A    between atoms: C_13  and  N_14
REMARK   10  A    between atoms: N_14  and  C_15
REMARK   11  A    between atoms: C_15  and  C_16
REMARK   12  A    between atoms: C_16  and  C_18
REMARK   13  A    between atoms: C_16  and  N_26
REMARK   14  A    between atoms: C_21  and  O_24
REMARK   15  A    between atoms: O_24  and  C_25
REMARK   16  A    between atoms: N_26  and  C_27
REMARK   17  A    between atoms: N_26  and  C_28
REMARK                            x       y       z     vdW  Elec       q    Type
REMARK                         _______ _______ _______ _____ _____    ______ ____
ROOT
ATOM      1  N   UNL     1       2.233  -4.842   6.209  0.00  0.00    +0.380 N 
ATOM      2  H   UNL     1       1.566  -4.446   6.854  0.00  0.00    -0.086 HD
ATOM      3  H   UNL     1       1.933  -5.767   5.940  0.00  0.00    -0.086 HD
ENDROOT
BRANCH   1   4
ATOM      4  C   UNL     1       2.324  -3.990   5.015  0.00  0.00    -0.048 C 
BRANCH   4   5
ATOM      5  C   UNL     1       0.952  -3.906   4.343  0.00  0.00    +0.135 C 
BRANCH   5   6
ATOM      6  O   UNL     1       0.527  -5.217   3.963  0.00  0.00    -0.390 OA
ATOM      7  H   UNL     1       1.122  -5.658   3.342  0.00  0.00    +0.210 HD
ENDBRANCH   5   6
BRANCH   5   8
ATOM      8  C   UNL     1       1.046  -3.020   3.100  0.00  0.00    +0.258 C 
BRANCH   8   9
ATOM      9  O   UNL     1      -0.256  -2.846   2.538  0.00  0.00    -0.489 OA
BRANCH   9  15
ATOM     10  C   UNL     1      -0.885   1.550   0.513  0.00  0.00    +0.044 C 
ATOM     11  C   UNL     1      -0.655   0.065   0.394  0.00  0.00    -0.044 A 
ATOM     12  C   UNL     1      -0.538  -0.517  -0.855  0.00  0.00    +0.004 A 
ATOM     13  C   UNL     1      -0.326  -1.879  -0.968  0.00  0.00    +0.007 A 
ATOM     14  C   UNL     1      -0.232  -2.661   0.167  0.00  0.00    -0.009 A 
ATOM     15  C   UNL     1      -0.349  -2.079   1.421  0.00  0.00    +0.127 A 
ATOM     16  C   UNL     1      -0.555  -0.711   1.532  0.00  0.00    -0.006 A 
ATOM     17  C   UNL     1      -0.676  -0.075   2.892  0.00  0.00    +0.048 C 
ATOM     18  C   UNL     1      -0.002  -4.145   0.043  0.00  0.00    +0.047 C 
ENDBRANCH   9  15
ENDBRANCH   8   9
ENDBRANCH   5   8
ENDBRANCH   4   5
ENDBRANCH   1   4
BRANCH   1  19
ATOM     19  C   UNL     1       3.550  -4.923   6.854  0.00  0.00    -0.094 C 
BRANCH  19  20
ATOM     20  C   UNL     1       3.428  -5.697   8.168  0.00  0.00    -0.056 C 
BRANCH  20  21
ATOM     21  C   UNL     1       3.017  -7.118   7.878  0.00  0.00    -0.063 A 
ATOM     22  C   UNL     1       3.963  -8.039   7.468  0.00  0.00    +0.005 A 
ATOM     23  C   UNL     1       3.589  -9.342   7.201  0.00  0.00    +0.046 A 
ATOM     24  C   UNL     1       2.263  -9.725   7.344  0.00  0.00    +0.120 A 
ATOM     25  C   UNL     1       1.317  -8.799   7.755  0.00  0.00    +0.046 A 
ATOM     26  C   UNL     1       1.696  -7.498   8.027  0.00  0.00    +0.005 A 
BRANCH  24  27
ATOM     27  O   UNL     1       1.893 -11.006   7.081  0.00  0.00    -0.495 OA
ATOM     28  C   UNL     1       0.511 -11.329   7.250  0.00  0.00    +0.277 C 
ENDBRANCH  24  27
ENDBRANCH  20  21
BRANCH  20  29
ATOM     29  N   UNL     1       4.723  -5.694   8.861  0.00  0.00    +0.379 N 
ATOM     30  C   UNL     1       5.121  -4.309   9.149  0.00  0.00    -0.096 C 
ATOM     31  C   UNL     1       4.607  -6.442  10.120  0.00  0.00    -0.096 C 
ATOM     32  H   UNL     1       5.420  -6.128   8.274  0.00  0.00    -0.082 HD
ENDBRANCH  20  29
ENDBRANCH  19  20
ENDBRANCH   1  19
TORSDOF 11
