REMARK  Name = ZINC12753997
REMARK  6 active torsions:
REMARK  status: ('A' for Active; 'I' for Inactive)
REMARK    1  A    between atoms: C_4  and  C_7
REMARK    2  A    between atoms: C_16  and  C_17
REMARK    3  A    between atoms: C_16  and  N_50
REMARK    4  A    between atoms: N_19  and  C_20
REMARK    5  A    between atoms: C_24  and  S_26
REMARK    6  A    between atoms: S_26  and  N_29
REMARK                            x       y       z     vdW  Elec       q    Type
REMARK                         _______ _______ _______ _____ _____    ______ ____
ROOT
ATOM      1  C   UNL     1      -4.753   1.087  -0.007  0.00  0.00    +0.020 C 
ENDROOT
BRANCH   1  10
ATOM      2  C   UNL     1      -7.156   1.298  -0.215  0.00  0.00    -0.005 C 
ATOM      3  C   UNL     1      -8.298   2.309  -0.202  0.00  0.00    -0.047 A 
ATOM      4  C   UNL     1      -9.636   1.968  -0.019  0.00  0.00    +0.010 A 
ATOM      5  C   UNL     1     -10.586   2.931  -0.019  0.00  0.00    +0.045 A 
ATOM      6  S   UNL     1      -9.615   4.408  -0.284  0.00  0.00    -0.101 S 
ATOM      7  C   UNL     1      -8.026   3.633  -0.374  0.00  0.00    -0.010 A 
ATOM      8  C   UNL     1      -6.681   4.247  -0.590  0.00  0.00    +0.024 C 
ATOM      9  C   UNL     1      -5.699   3.114  -0.934  0.00  0.00    -0.072 C 
ATOM     10  N   UNL     1      -5.892   2.024   0.052  0.00  0.00    +0.393 N 
ATOM     11  H   UNL     1      -5.938   2.433   0.992  0.00  0.00    -0.080 HD
BRANCH   2  15
ATOM     12  C   UNL     1      -7.760  -1.590   2.873  0.00  0.00    +0.000 A 
ATOM     13  C   UNL     1      -8.078  -1.901   1.565  0.00  0.00    +0.000 A 
ATOM     14  C   UNL     1      -7.883  -0.967   0.565  0.00  0.00    +0.002 A 
ATOM     15  C   UNL     1      -7.369   0.279   0.874  0.00  0.00    -0.057 A 
ATOM     16  C   UNL     1      -7.047   0.588   2.183  0.00  0.00    +0.002 A 
ATOM     17  C   UNL     1      -7.247  -0.345   3.183  0.00  0.00    +0.000 A 
ENDBRANCH   2  15
ENDBRANCH   1  10
BRANCH   1  18
ATOM     18  C   UNL     1      -4.618   0.493  -1.386  0.00  0.00    +0.201 C 
ATOM     19  O   UNL     1      -5.392   0.814  -2.263  0.00  0.00    -0.278 OA
ATOM     20  N   UNL     1      -3.636  -0.393  -1.644  0.00  0.00    -0.287 N 
ATOM     21  H   UNL     1      -3.063  -0.705  -0.926  0.00  0.00    +0.155 HD
BRANCH  20  22
ATOM     22  C   UNL     1      -3.443  -0.863  -2.948  0.00  0.00    +0.035 A 
ATOM     23  C   UNL     1      -3.694  -0.031  -4.032  0.00  0.00    +0.023 A 
ATOM     24  C   UNL     1      -3.509  -0.500  -5.317  0.00  0.00    +0.004 A 
ATOM     25  C   UNL     1      -3.068  -1.794  -5.526  0.00  0.00    +0.028 A 
ATOM     26  C   UNL     1      -2.812  -2.623  -4.450  0.00  0.00    +0.107 A 
ATOM     27  C   UNL     1      -2.996  -2.160  -3.161  0.00  0.00    +0.051 A 
BRANCH  26  28
ATOM     28  S   UNL     1      -2.251  -4.271  -4.721  0.00  0.00    +0.056 S 
ATOM     29  O   UNL     1      -1.637  -4.285  -6.003  0.00  0.00    -0.153 OA
ATOM     30  O   UNL     1      -1.562  -4.665  -3.542  0.00  0.00    -0.153 OA
BRANCH  28  31
ATOM     31  N   UNL     1      -3.594  -5.234  -4.829  0.00  0.00    -0.204 NA
ATOM     32  H   UNL     1      -4.478  -4.845  -4.742  0.00  0.00    +0.144 HD
ATOM     33  H   UNL     1      -3.496  -6.187  -4.979  0.00  0.00    +0.144 HD
ENDBRANCH  28  31
ENDBRANCH  26  28
ENDBRANCH  20  22
ENDBRANCH   1  18
TORSDOF 6
