REMARK  Name = ZINC38666914
REMARK  10 active torsions:
REMARK  status: ('A' for Active; 'I' for Inactive)
REMARK    1  A    between atoms: C_1  and  N_2
REMARK    2  A    between atoms: N_2  and  C_3
REMARK    3  A    between atoms: N_2  and  C_4
REMARK    4  A    between atoms: C_7  and  C_10
REMARK    5  A    between atoms: C_10  and  C_12
REMARK    6  A    between atoms: C_10  and  N_30
REMARK    7  A    between atoms: C_12  and  N_13
REMARK    8  A    between atoms: C_14  and  C_16
REMARK    9  A    between atoms: C_19  and  S_22
REMARK   10  A    between atoms: S_22  and  N_25
REMARK                            x       y       z     vdW  Elec       q    Type
REMARK                         _______ _______ _______ _____ _____    ______ ____
ROOT
ATOM      1  C   UNL     1      -0.006  -2.813  -4.924  0.00  0.00    +0.104 C 
ENDROOT
BRANCH   1   2
ATOM      2  N   UNL     1       0.774  -2.062  -5.917  0.00  0.00    -0.289 NA
ATOM      3  C   UNL     1       2.218  -2.250  -5.705  0.00  0.00    +0.090 C 
ATOM      4  C   UNL     1       2.959  -1.766  -6.951  0.00  0.00    +0.051 C 
ATOM      5  C   UNL     1       2.488  -0.385  -7.326  0.00  0.00    -0.042 A 
ATOM      6  C   UNL     1       3.268   0.368  -8.191  0.00  0.00    +0.004 A 
ATOM      7  C   UNL     1       2.871   1.637  -8.563  0.00  0.00    +0.000 A 
ATOM      8  C   UNL     1       1.689   2.160  -8.071  0.00  0.00    +0.000 A 
ATOM      9  C   UNL     1       0.913   1.412  -7.209  0.00  0.00    +0.005 A 
ATOM     10  C   UNL     1       1.312   0.138  -6.832  0.00  0.00    -0.030 A 
ATOM     11  C   UNL     1       0.436  -0.636  -5.881  0.00  0.00    +0.120 C 
ENDBRANCH   1   2
BRANCH   1  15
ATOM     12  C   UNL     1       0.740  -1.225  -1.027  0.00  0.00    +0.029 A 
ATOM     13  C   UNL     1      -0.084  -0.540  -1.911  0.00  0.00    +0.023 A 
ATOM     14  C   UNL     1      -0.323  -1.056  -3.170  0.00  0.00    +0.007 A 
ATOM     15  C   UNL     1       0.257  -2.253  -3.550  0.00  0.00    -0.029 A 
ATOM     16  C   UNL     1       1.078  -2.937  -2.672  0.00  0.00    +0.007 A 
ATOM     17  C   UNL     1       1.325  -2.424  -1.414  0.00  0.00    +0.023 A 
BRANCH  12  19
ATOM     18  C   UNL     1       1.858  -1.426   1.176  0.00  0.00    +0.129 C 
ATOM     19  N   UNL     1       0.984  -0.706   0.247  0.00  0.00    -0.336 N 
ATOM     20  C   UNL     1       0.366   0.558   0.653  0.00  0.00    +0.129 C 
ENDBRANCH  12  19
ENDBRANCH   1  15
BRANCH   1  21
ATOM     21  C   UNL     1      -1.497  -2.690  -5.248  0.00  0.00    +0.128 C 
BRANCH  21  22
ATOM     22  N   UNL     1      -1.734  -3.123  -6.627  0.00  0.00    -0.310 N 
ATOM     23  C   UNL     1      -2.983  -3.101  -7.135  0.00  0.00    +0.244 C 
ATOM     24  O   UNL     1      -3.911  -2.721  -6.449  0.00  0.00    -0.270 OA
ATOM     25  H   UNL     1      -0.993  -3.426  -7.175  0.00  0.00    +0.149 HD
BRANCH  23  26
ATOM     26  C   UNL     1      -3.222  -3.539  -8.527  0.00  0.00    +0.037 A 
ATOM     27  C   UNL     1      -2.159  -3.981  -9.315  0.00  0.00    +0.015 A 
ATOM     28  C   UNL     1      -2.390  -4.388 -10.613  0.00  0.00    +0.029 A 
ATOM     29  C   UNL     1      -3.672  -4.359 -11.133  0.00  0.00    +0.106 A 
ATOM     30  C   UNL     1      -4.730  -3.921 -10.357  0.00  0.00    +0.029 A 
ATOM     31  C   UNL     1      -4.514  -3.517  -9.055  0.00  0.00    +0.015 A 
BRANCH  29  32
ATOM     32  S   UNL     1      -3.957  -4.880 -12.792  0.00  0.00    +0.061 S 
ATOM     33  O   UNL     1      -5.154  -4.243 -13.217  0.00  0.00    -0.153 OA
ATOM     34  O   UNL     1      -2.725  -4.728 -13.483  0.00  0.00    -0.153 OA
BRANCH  32  35
ATOM     35  N   UNL     1      -4.276  -6.505 -12.746  0.00  0.00    -0.177 NA
ATOM     36  C   UNL     1      -3.276  -7.577 -12.844  0.00  0.00    +0.109 C 
ATOM     37  C   UNL     1      -4.035  -8.919 -12.780  0.00  0.00    +0.018 C 
ATOM     38  C   UNL     1      -5.471  -8.528 -13.219  0.00  0.00    +0.018 C 
ATOM     39  C   UNL     1      -5.610  -7.115 -12.595  0.00  0.00    +0.109 C 
ENDBRANCH  32  35
ENDBRANCH  29  32
ENDBRANCH  23  26
ENDBRANCH  21  22
ENDBRANCH   1  21
TORSDOF 8
