REMARK  Name = ZINC01080086
REMARK  9 active torsions:
REMARK  status: ('A' for Active; 'I' for Inactive)
REMARK    1  A    between atoms: C_1  and  N_2
REMARK    2  A    between atoms: N_2  and  C_3
REMARK    3  A    between atoms: N_2  and  C_4
REMARK    4  A    between atoms: C_7  and  C_10
REMARK    5  A    between atoms: C_12  and  C_26
REMARK    6  A    between atoms: C_13  and  N_25
REMARK    7  A    between atoms: N_14  and  N_22
REMARK    8  A    between atoms: N_22  and  C_23
REMARK    9  A    between atoms: N_22  and  C_24
REMARK                            x       y       z     vdW  Elec       q    Type
REMARK                         _______ _______ _______ _____ _____    ______ ____
ROOT
ATOM      1  C   UNL     1       3.857   1.974  -0.660  0.00  0.00    +0.097 C 
ATOM      2  C   UNL     1       4.916   1.057  -1.197  0.00  0.00    +0.078 C 
ATOM      3  C   UNL     1       4.619  -0.214  -1.572  0.00  0.00    +0.117 C 
ATOM      4  N   UNL     1       3.333  -0.685  -1.456  0.00  0.00    -0.223 N 
ATOM      5  C   UNL     1       2.438  -0.068  -0.624  0.00  0.00    +0.036 C 
ATOM      6  C   UNL     1       2.645   1.200  -0.208  0.00  0.00    +0.026 C 
ATOM      7  C   UNL     1       1.741   1.834   0.661  0.00  0.00    +0.162 C 
ATOM      8  O   UNL     1       1.950   2.980   1.006  0.00  0.00    -0.292 OA
ATOM      9  C   UNL     1       0.518   1.122   1.171  0.00  0.00    +0.080 C 
ATOM     10  C   UNL     1       0.801  -0.383   1.217  0.00  0.00    +0.014 C 
ATOM     11  C   UNL     1       1.220  -0.841  -0.181  0.00  0.00    +0.053 C 
ENDROOT
BRANCH   1  15
ATOM     12  C   UNL     1       2.700   4.724  -3.721  0.00  0.00    +0.029 A 
ATOM     13  C   UNL     1       3.232   5.195  -2.527  0.00  0.00    +0.023 A 
ATOM     14  C   UNL     1       3.605   4.303  -1.540  0.00  0.00    +0.006 A 
ATOM     15  C   UNL     1       3.449   2.944  -1.739  0.00  0.00    -0.035 A 
ATOM     16  C   UNL     1       2.925   2.472  -2.929  0.00  0.00    +0.006 A 
ATOM     17  C   UNL     1       2.545   3.358  -3.918  0.00  0.00    +0.023 A 
BRANCH  12  19
ATOM     18  C   UNL     1       2.487   7.063  -4.512  0.00  0.00    +0.129 C 
ATOM     19  N   UNL     1       2.322   5.623  -4.721  0.00  0.00    -0.336 N 
ATOM     20  C   UNL     1       1.762   5.124  -5.980  0.00  0.00    +0.129 C 
ENDBRANCH  12  19
ENDBRANCH   1  15
BRANCH   4  21
ATOM     21  N   UNL     1       2.944  -1.778  -2.177  0.00  0.00    -0.227 NA
ATOM     22  C   UNL     1       3.221  -1.590  -3.608  0.00  0.00    +0.128 C 
ATOM     23  C   UNL     1       3.587  -2.998  -1.672  0.00  0.00    +0.128 C 
ENDBRANCH   4  21
BRANCH   3  24
ATOM     24  N   UNL     1       5.606  -1.032  -2.067  0.00  0.00    -0.344 N 
ATOM     25  H   UNL     1       5.370  -1.847  -2.537  0.00  0.00    +0.144 HD
ATOM     26  H   UNL     1       6.539  -0.794  -1.946  0.00  0.00    +0.144 HD
ENDBRANCH   3  24
BRANCH   2  27
ATOM     27  C   UNL     1       6.263   1.530  -1.316  0.00  0.00    +0.099 C 
ATOM     28  N   UNL     1       7.331   1.905  -1.411  0.00  0.00    -0.191 NA
ENDBRANCH   2  27
TORSDOF 5
