REMARK  Name = ZINC54252125
REMARK  3 active torsions:
REMARK  status: ('A' for Active; 'I' for Inactive)
REMARK    1  A    between atoms: C_9  and  C_11
REMARK    2  A    between atoms: C_12  and  C_13
REMARK    3  A    between atoms: N_15  and  C_16
REMARK                            x       y       z     vdW  Elec       q    Type
REMARK                         _______ _______ _______ _____ _____    ______ ____
ROOT
ATOM      1  C   UNL     1       0.091  -4.318  -0.026  0.00  0.00    +0.241 C 
ATOM      2  O   UNL     1       1.154  -4.911  -0.049  0.00  0.00    -0.270 OA
ATOM      3  N   UNL     1      -1.066  -5.009  -0.017  0.00  0.00    -0.282 N 
ATOM      4  H   UNL     1      -1.910  -4.540   0.069  0.00  0.00    +0.155 HD
ENDROOT
BRANCH   3   5
ATOM      5  C   UNL     1      -1.049  -6.404  -0.131  0.00  0.00    +0.034 A 
ATOM      6  C   UNL     1      -0.018  -7.136   0.455  0.00  0.00    +0.027 A 
ATOM      7  C   UNL     1       0.013  -8.510   0.352  0.00  0.00    +0.049 A 
ATOM      8  C   UNL     1      -0.988  -9.179  -0.341  0.00  0.00    +0.139 A 
ATOM      9  C   UNL     1      -2.031  -8.445  -0.933  0.00  0.00    +0.019 A 
ATOM     10  C   UNL     1      -2.058  -7.052  -0.819  0.00  0.00    +0.035 A 
ATOM     11  C   UNL     1      -3.082  -9.162  -1.662  0.00  0.00    +0.018 A 
ATOM     12  C   UNL     1      -3.002 -10.515  -1.733  0.00  0.00    +0.092 A 
ATOM     13  C   UNL     1      -1.927 -11.189  -1.115  0.00  0.00    +0.337 A 
ATOM     14  O   UNL     1      -1.867 -12.403  -1.186  0.00  0.00    -0.245 OA
ATOM     15  O   UNL     1      -0.969 -10.525  -0.450  0.00  0.00    -0.422 OA
ENDBRANCH   3   5
BRANCH   1  17
ATOM     16  C   UNL     1       1.230  -2.164  -0.018  0.00  0.00    +0.015 C 
ATOM     17  C   UNL     1       0.070  -2.856  -0.009  0.00  0.00    +0.068 C 
BRANCH  16  26
ATOM     18  C   UNL     1      -0.017   1.383   0.041  0.00  0.00    +0.001 A 
ATOM     19  C   UNL     1       1.131   2.115   0.032  0.00  0.00    +0.010 A 
ATOM     20  C   UNL     1       2.384   1.483   0.007  0.00  0.00    +0.001 A 
ATOM     21  C   UNL     1       3.581   2.224  -0.002  0.00  0.00    +0.011 A 
ATOM     22  C   UNL     1       4.763   1.539  -0.027  0.00  0.00    +0.020 A 
ATOM     23  C   UNL     1       4.760   0.147  -0.043  0.00  0.00    +0.111 A 
ATOM     24  N   UNL     1       3.641  -0.540  -0.035  0.00  0.00    -0.254 NA
ATOM     25  C   UNL     1       2.457   0.069  -0.011  0.00  0.00    +0.078 A 
ATOM     26  C   UNL     1       1.209  -0.697  -0.001  0.00  0.00    +0.001 A 
ATOM     27  C   UNL     1       0.002  -0.004   0.025  0.00  0.00    +0.010 A 
ENDBRANCH  16  26
ENDBRANCH   1  17
TORSDOF 3
