REMARK  Name = ZINC47872097
REMARK  8 active torsions:
REMARK  status: ('A' for Active; 'I' for Inactive)
REMARK    1  A    between atoms: C_1  and  C_2
REMARK    2  A    between atoms: C_7  and  N_12
REMARK    3  A    between atoms: C_9  and  C_11
REMARK    4  A    between atoms: N_12  and  C_13
REMARK    5  A    between atoms: C_13  and  N_15
REMARK    6  A    between atoms: N_15  and  N_16
REMARK    7  A    between atoms: C_17  and  C_19
REMARK    8  A    between atoms: C_23  and  N_25
REMARK                            x       y       z     vdW  Elec       q    Type
REMARK                         _______ _______ _______ _____ _____    ______ ____
ROOT
ATOM      1  N   UNL     1       2.068  -1.440   5.868  0.00  0.00    -0.231 N 
ATOM      2  C   UNL     1       2.720  -1.886   6.960  0.00  0.00    +0.260 C 
ATOM      3  O   UNL     1       2.629  -1.283   8.011  0.00  0.00    -0.269 OA
ATOM      4  H   UNL     1       2.140  -1.921   5.029  0.00  0.00    +0.173 HD
ENDROOT
BRANCH   2   5
ATOM      5  C   UNL     1       3.546  -3.110   6.879  0.00  0.00    +0.040 A 
ATOM      6  C   UNL     1       3.656  -3.802   5.671  0.00  0.00    +0.013 A 
ATOM      7  C   UNL     1       4.428  -4.943   5.599  0.00  0.00    +0.003 A 
ATOM      8  C   UNL     1       5.093  -5.406   6.719  0.00  0.00    +0.028 A 
ATOM      9  C   UNL     1       4.989  -4.725   7.925  0.00  0.00    +0.069 A 
ATOM     10  C   UNL     1       4.221  -3.574   8.008  0.00  0.00    +0.041 A 
BRANCH   9  11
ATOM     11  N   UNL     1       5.666  -5.198   9.059  0.00  0.00    -0.200 N 
ATOM     12  C   UNL     1       6.531  -6.234   9.125  0.00  0.00    +0.250 A 
ATOM     13  N   UNL     1       6.928  -6.330  10.367  0.00  0.00    -0.116 NA
ATOM     14  N   UNL     1       6.373  -5.426  11.091  0.00  0.00    -0.023 NA
ATOM     15  N   UNL     1       5.595  -4.693  10.369  0.00  0.00    -0.039 NA
ENDBRANCH   9  11
ENDBRANCH   2   5
BRANCH   1  16
ATOM     16  N   UNL     1       1.286  -0.280   5.945  0.00  0.00    -0.246 N 
ATOM     17  H   UNL     1       1.213   0.201   6.784  0.00  0.00    +0.172 HD
BRANCH  16  18
ATOM     18  C   UNL     1       0.634   0.166   4.853  0.00  0.00    +0.147 C 
ATOM     19  S   UNL     1      -0.323   1.583   4.946  0.00  0.00    -0.017 S 
BRANCH  18  20
ATOM     20  N   UNL     1       0.735  -0.503   3.687  0.00  0.00    -0.322 N 
ATOM     21  H   UNL     1       1.276  -1.306   3.634  0.00  0.00    +0.148 HD
BRANCH  20  27
ATOM     22  C   UNL     1      -0.019   1.526   0.010  0.00  0.00    +0.008 C 
ATOM     23  C   UNL     1       0.002  -0.004   0.002  0.00  0.00    -0.009 C 
ATOM     24  C   UNL     1      -1.433  -0.534   0.013  0.00  0.00    +0.003 C 
ATOM     25  C   UNL     1      -2.149  -0.040   1.272  0.00  0.00    +0.002 C 
ATOM     26  C   UNL     1      -1.409  -0.547   2.511  0.00  0.00    +0.022 C 
ATOM     27  C   UNL     1       0.026  -0.018   2.500  0.00  0.00    +0.075 C 
ATOM     28  C   UNL     1       0.742  -0.511   1.242  0.00  0.00    +0.009 C 
ATOM     29  C   UNL     1       2.178   0.019   1.231  0.00  0.00    +0.009 C 
ENDBRANCH  20  27
ENDBRANCH  18  20
ENDBRANCH  16  18
ENDBRANCH   1  16
TORSDOF 6
