REMARK  Name = ZINC11664934
REMARK  8 active torsions:
REMARK  status: ('A' for Active; 'I' for Inactive)
REMARK    1  A    between atoms: C_1  and  C_2
REMARK    2  A    between atoms: C_7  and  C_28
REMARK    3  A    between atoms: C_8  and  C_9
REMARK    4  A    between atoms: C_15  and  N_18
REMARK    5  A    between atoms: N_18  and  C_19
REMARK    6  A    between atoms: C_22  and  C_25
REMARK    7  A    between atoms: C_25  and  C_26
REMARK    8  A    between atoms: C_25  and  C_27
REMARK                            x       y       z     vdW  Elec       q    Type
REMARK                         _______ _______ _______ _____ _____    ______ ____
ROOT
ATOM      1  C   UNL     1       3.153   3.914   1.999  0.00  0.00    +0.250 C 
ATOM      2  O   UNL     1       2.224   4.485   2.538  0.00  0.00    -0.270 OA
ATOM      3  N   UNL     1       2.962   2.712   1.422  0.00  0.00    -0.296 N 
ATOM      4  C   UNL     1       4.074   2.010   0.767  0.00  0.00    +0.108 C 
ATOM      5  C   UNL     1       3.658   1.650  -0.662  0.00  0.00    +0.021 C 
ATOM      6  C   UNL     1       2.350   0.856  -0.624  0.00  0.00    +0.025 C 
ATOM      7  C   UNL     1       1.248   1.716  -0.001  0.00  0.00    +0.088 C 
ATOM      8  C   UNL     1       1.637   2.076   1.436  0.00  0.00    +0.130 C 
ENDROOT
BRANCH   1  16
ATOM      9  C   UNL     1       3.903   5.665  -0.226  0.00  0.00    +0.045 C 
ATOM     10  C   UNL     1       4.862   5.389   0.903  0.00  0.00    -0.028 A 
ATOM     11  C   UNL     1       6.099   5.954   0.914  0.00  0.00    +0.096 A 
ATOM     12  C   UNL     1       6.977   5.674   1.979  0.00  0.00    +0.337 A 
ATOM     13  O   UNL     1       8.089   6.172   1.993  0.00  0.00    -0.245 OA
ATOM     14  O   UNL     1       6.597   4.861   2.979  0.00  0.00    -0.427 OA
ATOM     15  C   UNL     1       5.384   4.299   2.993  0.00  0.00    +0.118 A 
ATOM     16  C   UNL     1       4.489   4.540   1.976  0.00  0.00    +0.078 A 
ATOM     17  C   UNL     1       4.994   3.392   4.131  0.00  0.00    +0.087 C 
ENDBRANCH   1  16
BRANCH   7  18
ATOM     18  N   UNL     1      -0.011   0.966   0.007  0.00  0.00    -0.339 N 
ATOM     19  H   UNL     1       0.002  -0.004   0.002  0.00  0.00    +0.146 HD
BRANCH  18  20
ATOM     20  C   UNL     1      -1.230   1.648   0.017  0.00  0.00    +0.027 A 
ATOM     21  C   UNL     1      -1.251   3.037   0.030  0.00  0.00    +0.023 A 
ATOM     22  C   UNL     1      -2.458   3.708   0.035  0.00  0.00    +0.006 A 
ATOM     23  C   UNL     1      -3.645   2.998   0.037  0.00  0.00    -0.045 A 
ATOM     24  C   UNL     1      -3.628   1.616   0.029  0.00  0.00    +0.006 A 
ATOM     25  C   UNL     1      -2.424   0.938   0.019  0.00  0.00    +0.023 A 
BRANCH  23  26
ATOM     26  C   UNL     1      -4.960   3.734   0.047  0.00  0.00    +0.013 C 
ATOM     27  C   UNL     1      -5.047   4.605   1.302  0.00  0.00    +0.012 C 
ATOM     28  C   UNL     1      -5.059   4.620  -1.197  0.00  0.00    +0.012 C 
ENDBRANCH  23  26
ENDBRANCH  18  20
ENDBRANCH   7  18
TORSDOF 4
