REMARK  Name = ZINC09556583
REMARK  12 active torsions:
REMARK  status: ('A' for Active; 'I' for Inactive)
REMARK    1  A    between atoms: C_1  and  C_2
REMARK    2  A    between atoms: C_2  and  O_3
REMARK    3  A    between atoms: O_3  and  C_4
REMARK    4  A    between atoms: C_6  and  C_16
REMARK    5  A    between atoms: C_9  and  O_10
REMARK    6  A    between atoms: O_10  and  C_11
REMARK    7  A    between atoms: C_11  and  C_12
REMARK    8  A    between atoms: C_12  and  C_13
REMARK    9  A    between atoms: C_13  and  C_14
REMARK   10  A    between atoms: C_13  and  C_15
REMARK   11  A    between atoms: C_34  and  C_38
REMARK   12  A    between atoms: C_35  and  C_37
REMARK                            x       y       z     vdW  Elec       q    Type
REMARK                         _______ _______ _______ _____ _____    ______ ____
ROOT
ATOM      1  C   UNL     1       1.405  -0.438  -0.014  0.00  0.00    +0.152 C 
ATOM      2  C   UNL     1       2.229   0.824  -0.015  0.00  0.00    +0.072 A 
ATOM      3  C   UNL     1       3.674   1.066  -0.027  0.00  0.00    +0.199 A 
ATOM      4  O   UNL     1       4.476   0.149  -0.040  0.00  0.00    -0.287 OA
ATOM      5  C   UNL     1       4.109   2.477  -0.023  0.00  0.00    +0.064 A 
ATOM      6  C   UNL     1       5.460   2.821  -0.033  0.00  0.00    +0.015 A 
ATOM      7  C   UNL     1       5.821   4.141  -0.029  0.00  0.00    +0.001 A 
ATOM      8  C   UNL     1       4.851   5.133  -0.014  0.00  0.00    +0.004 A 
ATOM      9  C   UNL     1       3.511   4.811  -0.004  0.00  0.00    +0.047 A 
ATOM     10  C   UNL     1       3.120   3.475  -0.008  0.00  0.00    +0.139 A 
ATOM     11  O   UNL     1       1.816   3.143   0.002  0.00  0.00    -0.450 OA
ATOM     12  C   UNL     1       1.368   1.872  -0.001  0.00  0.00    +0.199 A 
ATOM     13  C   UNL     1      -0.016   1.340   0.009  0.00  0.00    +0.289 C 
ATOM     14  O   UNL     1      -1.022   2.021   0.018  0.00  0.00    -0.266 OA
ATOM     15  N   UNL     1       0.002  -0.004   0.002  0.00  0.00    -0.232 N 
ATOM     16  C   UNL     1      -1.109  -0.836   0.008  0.00  0.00    +0.169 A 
ATOM     17  N   UNL     1      -2.388  -0.510   0.022  0.00  0.00    -0.229 NA
ATOM     18  C   UNL     1      -3.328  -1.435   0.025  0.00  0.00    +0.050 A 
ATOM     19  C   UNL     1      -2.953  -2.738   0.015  0.00  0.00    +0.011 A 
ATOM     20  S   UNL     1      -1.174  -2.571  -0.008  0.00  0.00    -0.057 S 
ATOM     21  C   UNL     1      -3.802  -3.983   0.017  0.00  0.00    +0.053 C 
ATOM     22  C   UNL     1      -4.785  -1.052   0.041  0.00  0.00    +0.066 C 
ENDROOT
BRANCH   1  25
ATOM     23  C   UNL     1       2.817  -3.112   2.250  0.00  0.00    +0.162 A 
ATOM     24  C   UNL     1       2.532  -2.362   1.120  0.00  0.00    +0.055 A 
ATOM     25  C   UNL     1       1.709  -1.255   1.215  0.00  0.00    -0.018 A 
ATOM     26  C   UNL     1       1.160  -0.900   2.433  0.00  0.00    +0.009 A 
ATOM     27  C   UNL     1       1.436  -1.648   3.563  0.00  0.00    +0.050 A 
ATOM     28  C   UNL     1       2.264  -2.756   3.476  0.00  0.00    +0.162 A 
BRANCH  23  29
ATOM     29  O   UNL     1       3.630  -4.199   2.159  0.00  0.00    -0.489 OA
BRANCH  29  31
ATOM     30  C   UNL     1       5.046  -5.750   0.964  0.00  0.00    +0.048 C 
ATOM     31  C   UNL     1       4.161  -4.505   0.869  0.00  0.00    +0.226 C 
ENDBRANCH  29  31
ENDBRANCH  23  29
BRANCH  28  32
ATOM     32  O   UNL     1       2.535  -3.492   4.586  0.00  0.00    -0.488 OA
BRANCH  32  33
ATOM     33  C   UNL     1       1.933  -3.067   5.810  0.00  0.00    +0.229 C 
BRANCH  33  34
ATOM     34  C   UNL     1       2.351  -4.011   6.939  0.00  0.00    +0.044 C 
BRANCH  34  35
ATOM     35  C   UNL     1       1.706  -3.556   8.250  0.00  0.00    -0.014 C 
ATOM     36  C   UNL     1       0.186  -3.697   8.146  0.00  0.00    +0.007 C 
ATOM     37  C   UNL     1       2.222  -4.423   9.400  0.00  0.00    +0.007 C 
ENDBRANCH  34  35
ENDBRANCH  33  34
ENDBRANCH  32  33
ENDBRANCH  28  32
ENDBRANCH   1  25
TORSDOF 7
