REMARK  Name = ZINC40991736
REMARK  6 active torsions:
REMARK  status: ('A' for Active; 'I' for Inactive)
REMARK    1  A    between atoms: C_3  and  O_13
REMARK    2  A    between atoms: C_6  and  C_7
REMARK    3  A    between atoms: C_8  and  C_9
REMARK    4  A    between atoms: C_8  and  C_11
REMARK    5  A    between atoms: O_13  and  C_14
REMARK    6  A    between atoms: C_14  and  C_16
REMARK                            x       y       z     vdW  Elec       q    Type
REMARK                         _______ _______ _______ _____ _____    ______ ____
ROOT
ATOM      1  C   UNL     1      -0.130   1.278  -0.943  0.00  0.00    +0.011 A 
ATOM      2  C   UNL     1       1.032   1.964  -1.185  0.00  0.00    +0.047 A 
ATOM      3  C   UNL     1       2.256   1.420  -0.808  0.00  0.00    +0.132 A 
ATOM      4  C   UNL     1       2.308   0.178  -0.184  0.00  0.00    +0.047 A 
ATOM      5  C   UNL     1       1.153  -0.517   0.063  0.00  0.00    +0.011 A 
ATOM      6  C   UNL     1      -0.083   0.026  -0.314  0.00  0.00    -0.023 A 
ENDROOT
BRANCH   6   7
ATOM      7  C   UNL     1      -1.322  -0.712  -0.053  0.00  0.00    +0.038 C 
ATOM      8  C   UNL     1      -2.483  -0.030   0.233  0.00  0.00    +0.129 C 
BRANCH   8   9
ATOM      9  C   UNL     1      -3.720  -0.741   0.355  0.00  0.00    +0.110 C 
ATOM     10  N   UNL     1      -4.701  -1.305   0.452  0.00  0.00    -0.190 NA
ENDBRANCH   8   9
BRANCH   8  11
ATOM     11  C   UNL     1      -2.453   1.391   0.407  0.00  0.00    +0.110 C 
ATOM     12  N   UNL     1      -2.430   2.519   0.546  0.00  0.00    -0.190 NA
ENDBRANCH   8  11
ENDBRANCH   6   7
BRANCH   3  13
ATOM     13  O   UNL     1       3.403   2.104  -1.050  0.00  0.00    -0.422 OA
BRANCH  13  14
ATOM     14  C   UNL     1       3.700   3.148  -0.249  0.00  0.00    +0.351 C 
ATOM     15  O   UNL     1       2.915   3.495   0.614  0.00  0.00    -0.244 OA
BRANCH  14  16
ATOM     16  C   UNL     1       4.965   3.862  -0.417  0.00  0.00    +0.099 A 
ATOM     17  C   UNL     1       5.460   4.945   0.297  0.00  0.00    +0.039 A 
ATOM     18  C   UNL     1       6.693   5.406  -0.096  0.00  0.00    +0.040 A 
ATOM     19  C   UNL     1       7.329   4.790  -1.126  0.00  0.00    +0.070 A 
ATOM     20  S   UNL     1       6.277   3.564  -1.587  0.00  0.00    -0.074 S 
ATOM     21 BR   UNL     1       9.017   5.211  -1.867  0.00  0.00    -0.041 Br
ATOM     22 BR   UNL     1       7.493   6.875   0.784  0.00  0.00    -0.049 Br
ENDBRANCH  14  16
ENDBRANCH  13  14
ENDBRANCH   3  13
TORSDOF 6
