REMARK  Name = ZINC02655415
REMARK  10 active torsions:
REMARK  status: ('A' for Active; 'I' for Inactive)
REMARK    1  A    between atoms: C_1  and  C_2
REMARK    2  A    between atoms: C_2  and  C_3
REMARK    3  A    between atoms: C_3  and  C_5
REMARK    4  A    between atoms: C_3  and  C_6
REMARK    5  A    between atoms: C_9  and  N_12
REMARK    6  A    between atoms: C_13  and  C_15
REMARK    7  A    between atoms: C_15  and  O_16
REMARK    8  A    between atoms: O_16  and  C_17
REMARK    9  A    between atoms: C_17  and  C_19
REMARK   10  A    between atoms: C_23  and  N_25
REMARK                            x       y       z     vdW  Elec       q    Type
REMARK                         _______ _______ _______ _____ _____    ______ ____
ROOT
ATOM      1  N   UNL     1      -0.011   0.966   0.007  0.00  0.00    -0.283 N 
ATOM      2  C   UNL     1       0.924   1.561  -0.759  0.00  0.00    +0.255 C 
ATOM      3  O   UNL     1       0.631   2.523  -1.436  0.00  0.00    -0.272 OA
ATOM      4  H   UNL     1       0.203   0.151   0.488  0.00  0.00    +0.155 HD
ENDROOT
BRANCH   1   8
ATOM      5  C   UNL     1      -3.826   2.615   0.295  0.00  0.00    -0.044 A 
ATOM      6  C   UNL     1      -3.662   1.243   0.349  0.00  0.00    +0.006 A 
ATOM      7  C   UNL     1      -2.398   0.693   0.255  0.00  0.00    +0.023 A 
ATOM      8  C   UNL     1      -1.292   1.520   0.104  0.00  0.00    +0.034 A 
ATOM      9  C   UNL     1      -1.460   2.897   0.055  0.00  0.00    +0.023 A 
ATOM     10  C   UNL     1      -2.727   3.441   0.145  0.00  0.00    +0.006 A 
BRANCH   5  11
ATOM     11  C   UNL     1      -5.206   3.212   0.399  0.00  0.00    +0.016 C 
ATOM     12  C   UNL     1      -5.513   4.011  -0.870  0.00  0.00    +0.012 C 
BRANCH  11  14
ATOM     13  C   UNL     1      -6.702   4.647   1.792  0.00  0.00    +0.004 C 
ATOM     14  C   UNL     1      -5.270   4.139   1.614  0.00  0.00    +0.004 C 
ENDBRANCH  11  14
ENDBRANCH   5  11
ENDBRANCH   1   8
BRANCH   2  15
ATOM     15  C   UNL     1       2.335   1.031  -0.773  0.00  0.00    +0.328 C 
BRANCH  15  16
ATOM     16  O   UNL     1       3.146   1.837  -1.669  0.00  0.00    -0.452 OA
BRANCH  16  17
ATOM     17  C   UNL     1       4.442   1.494  -1.797  0.00  0.00    +0.340 C 
ATOM     18  O   UNL     1       4.883   0.546  -1.177  0.00  0.00    -0.245 OA
BRANCH  17  19
ATOM     19  C   UNL     1       5.327   2.268  -2.690  0.00  0.00    +0.061 A 
ATOM     20  C   UNL     1       4.820   3.354  -3.408  0.00  0.00    +0.016 A 
ATOM     21  C   UNL     1       5.649   4.080  -4.238  0.00  0.00    +0.022 A 
ATOM     22  C   UNL     1       6.981   3.729  -4.371  0.00  0.00    +0.062 A 
ATOM     23  C   UNL     1       7.494   2.645  -3.664  0.00  0.00    +0.044 A 
ATOM     24  C   UNL     1       6.670   1.914  -2.824  0.00  0.00    +0.039 A 
ATOM     25 CL   UNL     1       8.016   4.644  -5.423  0.00  0.00    -0.082 Cl
BRANCH  23  26
ATOM     26  N   UNL     1       8.840   2.295  -3.802  0.00  0.00    -0.357 N 
ATOM     27  H   UNL     1       9.198   1.540  -3.309  0.00  0.00    +0.142 HD
ATOM     28  H   UNL     1       9.417   2.807  -4.390  0.00  0.00    +0.142 HD
ENDBRANCH  23  26
ENDBRANCH  17  19
ENDBRANCH  16  17
ENDBRANCH  15  16
ENDBRANCH   2  15
TORSDOF 8
