REMARK  Name = ZINC65117970
REMARK  6 active torsions:
REMARK  status: ('A' for Active; 'I' for Inactive)
REMARK    1  A    between atoms: C_1  and  C_2
REMARK    2  A    between atoms: C_2  and  C_3
REMARK    3  A    between atoms: C_2  and  C_4
REMARK    4  A    between atoms: C_8  and  C_11
REMARK    5  A    between atoms: C_16  and  N_17
REMARK    6  A    between atoms: C_23  and  C_25
REMARK                            x       y       z     vdW  Elec       q    Type
REMARK                         _______ _______ _______ _____ _____    ______ ____
ROOT
ATOM      1  N   UNL     1       1.572  -5.049  -2.397  0.00  0.00    -0.313 N 
ATOM      2  C   UNL     1       2.451  -3.944  -1.991  0.00  0.00    +0.125 C 
ATOM      3  C   UNL     1       3.005  -4.246  -0.593  0.00  0.00    +0.127 C 
ATOM      4  N   UNL     1       3.539  -5.616  -0.586  0.00  0.00    -0.295 N 
ATOM      5  C   UNL     1       2.659  -6.721  -0.992  0.00  0.00    +0.127 C 
ATOM      6  C   UNL     1       2.104  -6.419  -2.385  0.00  0.00    +0.125 C 
ATOM      7  C   UNL     1       4.812  -5.854  -0.214  0.00  0.00    +0.247 C 
ATOM      8  O   UNL     1       5.270  -6.977  -0.298  0.00  0.00    -0.270 OA
ENDROOT
BRANCH   7   9
ATOM      9  C   UNL     1       5.650  -4.751   0.296  0.00  0.00    +0.037 C 
ATOM     10  C   UNL     1       5.455  -4.264   1.584  0.00  0.00    +0.019 C 
ATOM     11  C   UNL     1       6.350  -3.253   1.978  0.00  0.00    -0.017 C 
ATOM     12  C   UNL     1       6.232  -2.215   2.822  0.00  0.00    +0.025 C 
ATOM     13  C   UNL     1       7.377  -1.326   2.629  0.00  0.00    +0.106 C 
ATOM     14  N   UNL     1       8.234  -1.836   1.795  0.00  0.00    -0.279 NA
ATOM     15  C   UNL     1       7.752  -3.150   1.404  0.00  0.00    +0.158 C 
ATOM     16  C   UNL     1       7.669  -3.392  -0.072  0.00  0.00    +0.005 C 
ATOM     17  C   UNL     1       6.698  -4.167  -0.552  0.00  0.00    +0.011 C 
ENDBRANCH   7   9
BRANCH   1  23
ATOM     18  C   UNL     1      -0.049  -4.653  -4.130  0.00  0.00    +0.041 A 
ATOM     19  C   UNL     1      -1.361  -4.415  -4.498  0.00  0.00    +0.013 A 
ATOM     20  C   UNL     1      -2.324  -4.329  -3.502  0.00  0.00    +0.018 A 
ATOM     21  C   UNL     1      -1.947  -4.483  -2.182  0.00  0.00    +0.084 A 
ATOM     22  N   UNL     1      -0.688  -4.708  -1.860  0.00  0.00    -0.349 N 
ATOM     23  C   UNL     1       0.259  -4.803  -2.781  0.00  0.00    +0.106 A 
ATOM     24  H   UNL     1      -0.450  -4.812  -0.925  0.00  0.00    +0.167 HD
BRANCH  18  28
ATOM     25  C   UNL     1       2.056  -3.424  -6.668  0.00  0.00    +0.260 C 
ATOM     26  N   UNL     1       1.002  -4.206  -7.328  0.00  0.00    -0.182 NA
ATOM     27  N   UNL     1       0.438  -4.938  -6.506  0.00  0.00    -0.279 N 
ATOM     28  C   UNL     1       1.032  -4.754  -5.175  0.00  0.00    +0.266 C 
ATOM     29  O   UNL     1       1.771  -3.517  -5.257  0.00  0.00    -0.325 OA
ATOM     30  H   UNL     1      -0.290  -5.546  -6.710  0.00  0.00    +0.185 HD
BRANCH  25  32
ATOM     31  C   UNL     1       2.272  -1.893  -8.631  0.00  0.00    +0.012 C 
ATOM     32  C   UNL     1       2.001  -1.965  -7.127  0.00  0.00    +0.036 C 
ATOM     33  C   UNL     1       0.615  -1.390  -6.830  0.00  0.00    +0.012 C 
ENDBRANCH  25  32
ENDBRANCH  18  28
ENDBRANCH   1  23
TORSDOF 4
