REMARK  Name = ZINC39468679
REMARK  7 active torsions:
REMARK  status: ('A' for Active; 'I' for Inactive)
REMARK    1  A    between atoms: C_1  and  O_2
REMARK    2  A    between atoms: O_2  and  C_3
REMARK    3  A    between atoms: C_15  and  S_16
REMARK    4  A    between atoms: S_16  and  O_19
REMARK    5  A    between atoms: O_19  and  C_20
REMARK    6  A    between atoms: P_28  and  S_31
REMARK    7  A    between atoms: S_31  and  C_32
REMARK                            x       y       z     vdW  Elec       q    Type
REMARK                         _______ _______ _______ _____ _____    ______ ____
ROOT
ATOM      1  C   UNL     1       0.367  -0.604  -1.046  0.00  0.00    +0.144 C 
ATOM      2  C   UNL     1       0.985   0.130  -1.980  0.00  0.00    +0.023 C 
ATOM      3  C   UNL     1       1.777  -0.578  -3.046  0.00  0.00    +0.008 C 
ATOM      4  C   UNL     1       2.832   0.333  -3.661  0.00  0.00    -0.046 C 
ATOM      5  N   UNL     1       3.553  -0.387  -4.726  0.00  0.00    +0.398 N 
ATOM      6  C   UNL     1       4.224  -1.578  -4.207  0.00  0.00    -0.020 C 
ATOM      7  C   UNL     1       3.225  -2.525  -3.526  0.00  0.00    -0.003 C 
ATOM      8  C   UNL     1       2.497  -1.776  -2.414  0.00  0.00    +0.018 C 
ATOM      9  C   UNL     1       1.480  -2.651  -1.734  0.00  0.00    +0.011 C 
ATOM     10  C   UNL     1       0.470  -2.076  -1.087  0.00  0.00    +0.166 C 
ATOM     11  C   UNL     1       4.890  -2.382  -5.331  0.00  0.00    +0.157 C 
ATOM     12  O   UNL     1       5.898  -1.572  -5.963  0.00  0.00    -0.312 OA
ATOM     13  P   UNL     1       5.477  -0.074  -6.439  0.00  0.00    +0.314 P 
ATOM     14  O   UNL     1       4.764  -0.129  -7.734  0.00  0.00    -0.262 OA
ATOM     15  N   UNL     1       4.475   0.501  -5.237  0.00  0.00    -0.283 NA
ATOM     16  H   UNL     1       4.522   1.416  -4.920  0.00  0.00    +0.112 HD
ATOM     17  H   UNL     1       2.904  -0.653  -5.451  0.00  0.00    -0.055 HD
ENDROOT
BRANCH  10  18
ATOM     18  S   UNL     1      -0.743  -3.070  -0.285  0.00  0.00    +0.154 S 
ATOM     19  O   UNL     1      -0.338  -4.422  -0.455  0.00  0.00    -0.131 OA
ATOM     20  O   UNL     1      -0.958  -2.495   0.996  0.00  0.00    -0.131 OA
BRANCH  18  21
ATOM     21  O   UNL     1      -2.043  -2.905  -1.060  0.00  0.00    -0.342 OA
BRANCH  21  22
ATOM     22  C   UNL     1      -2.070  -3.574  -2.243  0.00  0.00    +0.157 A 
ATOM     23  C   UNL     1      -1.588  -2.968  -3.394  0.00  0.00    +0.048 A 
ATOM     24  C   UNL     1      -1.616  -3.650  -4.595  0.00  0.00    +0.004 A 
ATOM     25  C   UNL     1      -2.125  -4.934  -4.651  0.00  0.00    +0.000 A 
ATOM     26  C   UNL     1      -2.606  -5.540  -3.505  0.00  0.00    +0.004 A 
ATOM     27  C   UNL     1      -2.575  -4.865  -2.300  0.00  0.00    +0.048 A 
ENDBRANCH  21  22
ENDBRANCH  18  21
ENDBRANCH  10  18
BRANCH   1  29
ATOM     28  C   UNL     1      -0.491   1.423  -0.147  0.00  0.00    +0.277 C 
ATOM     29  O   UNL     1      -0.347   0.004  -0.062  0.00  0.00    -0.493 OA
ENDBRANCH   1  29
BRANCH  13  30
ATOM     30  S   UNL     1       7.197   1.156  -6.600  0.00  0.00    -0.059 S 
ATOM     31  C   UNL     1       8.221   0.318  -7.840  0.00  0.00    +0.096 C 
ENDBRANCH  13  30
TORSDOF 5
