REMARK  Name = ZINC34708005
REMARK  5 active torsions:
REMARK  status: ('A' for Active; 'I' for Inactive)
REMARK    1  A    between atoms: C_1  and  C_2
REMARK    2  A    between atoms: N_8  and  C_9
REMARK    3  A    between atoms: C_9  and  C_10
REMARK    4  A    between atoms: C_15  and  O_16
REMARK    5  A    between atoms: C_27  and  C_30
REMARK                            x       y       z     vdW  Elec       q    Type
REMARK                         _______ _______ _______ _____ _____    ______ ____
ROOT
ATOM      1  C   UNL     1      -2.735   0.833   2.704  0.00  0.00    -0.012 C 
ATOM      2  C   UNL     1      -2.153  -0.451   2.110  0.00  0.00    -0.054 C 
ATOM      3  C   UNL     1      -3.263  -1.498   1.967  0.00  0.00    +0.092 C 
ATOM      4  N   UNL     1      -2.658  -2.761   1.518  0.00  0.00    -0.304 N 
ATOM      5  C   UNL     1      -1.492  -3.272   2.255  0.00  0.00    +0.089 C 
ATOM      6  C   UNL     1      -0.465  -2.142   2.385  0.00  0.00    -0.059 C 
ATOM      7  N   UNL     1      -1.104  -0.970   2.997  0.00  0.00    +0.386 N 
ATOM      8  C   UNL     1      -3.167  -3.444   0.441  0.00  0.00    +0.206 A 
ATOM      9  N   UNL     1      -4.344  -3.106  -0.017  0.00  0.00    -0.215 NA
ATOM     10  C   UNL     1      -4.915  -3.733  -1.076  0.00  0.00    +0.078 A 
ATOM     11  C   UNL     1      -6.173  -3.357  -1.551  0.00  0.00    +0.028 A 
ATOM     12  C   UNL     1      -6.722  -4.016  -2.629  0.00  0.00    +0.002 A 
ATOM     13  C   UNL     1      -6.039  -5.051  -3.253  0.00  0.00    +0.001 A 
ATOM     14  C   UNL     1      -4.796  -5.440  -2.802  0.00  0.00    +0.014 A 
ATOM     15  C   UNL     1      -4.222  -4.787  -1.714  0.00  0.00    +0.045 A 
ATOM     16  C   UNL     1      -2.902  -5.157  -1.191  0.00  0.00    +0.173 A 
ATOM     17  N   UNL     1      -2.419  -4.447  -0.113  0.00  0.00    -0.244 N 
ATOM     18  C   UNL     1      -1.187  -4.987   0.158  0.00  0.00    +0.206 A 
ATOM     19  N   UNL     1      -0.982  -5.947  -0.723  0.00  0.00    -0.125 NA
ATOM     20  N   UNL     1      -1.996  -6.051  -1.509  0.00  0.00    -0.128 NA
ATOM     21  H   UNL     1      -1.512  -1.234   3.880  0.00  0.00    -0.081 HD
ENDROOT
BRANCH  18  22
ATOM     22  C   UNL     1      -0.269  -4.573   1.229  0.00  0.00    +0.172 A 
ATOM     23  C   UNL     1       0.330  -5.398   2.134  0.00  0.00    +0.053 A 
ATOM     24  C   UNL     1       1.119  -4.582   2.967  0.00  0.00    +0.042 A 
ATOM     25  C   UNL     1       0.966  -3.313   2.537  0.00  0.00    +0.196 A 
ATOM     26  O   UNL     1       0.132  -3.311   1.484  0.00  0.00    -0.460 OA
ENDBRANCH  18  22
BRANCH   7  27
ATOM     27  C   UNL     1      -0.094   0.074   3.221  0.00  0.00    -0.039 C 
BRANCH  27  28
ATOM     28  C   UNL     1       0.917  -0.413   4.226  0.00  0.00    -0.022 A 
ATOM     29  C   UNL     1       0.826  -0.016   5.547  0.00  0.00    +0.005 A 
ATOM     30  C   UNL     1       1.754  -0.462   6.470  0.00  0.00    +0.000 A 
ATOM     31  C   UNL     1       2.775  -1.306   6.074  0.00  0.00    +0.004 A 
ATOM     32  C   UNL     1       2.870  -1.706   4.756  0.00  0.00    +0.045 A 
ATOM     33  C   UNL     1       1.937  -1.264   3.829  0.00  0.00    +0.118 A 
BRANCH  33  34
ATOM     34  O   UNL     1       2.025  -1.661   2.532  0.00  0.00    -0.507 OA
ATOM     35  H   UNL     1       2.563  -1.079   1.978  0.00  0.00    +0.292 HD
ENDBRANCH  33  34
ENDBRANCH  27  28
ENDBRANCH   7  27
TORSDOF 4
