REMARK  Name = ZINC12242466
REMARK  11 active torsions:
REMARK  status: ('A' for Active; 'I' for Inactive)
REMARK    1  A    between atoms: C_1  and  C_2
REMARK    2  A    between atoms: C_2  and  C_3
REMARK    3  A    between atoms: C_2  and  C_4
REMARK    4  A    between atoms: C_4  and  C_5
REMARK    5  A    between atoms: C_7  and  C_11
REMARK    6  A    between atoms: C_17  and  C_27
REMARK    7  A    between atoms: C_18  and  O_25
REMARK    8  A    between atoms: O_25  and  C_26
REMARK    9  A    between atoms: N_29  and  C_30
REMARK   10  A    between atoms: N_29  and  C_31
REMARK   11  A    between atoms: C_31  and  C_32
REMARK                            x       y       z     vdW  Elec       q    Type
REMARK                         _______ _______ _______ _____ _____    ______ ____
ROOT
ATOM      1  C   UNL     1      -0.117   1.555   0.059  0.00  0.00    +0.264 C 
ATOM      2  O   UNL     1      -0.127   0.360   0.285  0.00  0.00    -0.268 OA
ATOM      3  N   UNL     1       1.048   2.183  -0.197  0.00  0.00    -0.294 N 
ATOM      4  C   UNL     1       2.338   1.481  -0.078  0.00  0.00    +0.114 C 
ATOM      5  C   UNL     1       3.198   2.251   0.914  0.00  0.00    +0.073 C 
ATOM      6  C   UNL     1       3.940   3.395   0.269  0.00  0.00    +0.039 A 
ATOM      7  C   UNL     1       5.154   3.727   0.863  0.00  0.00    +0.098 A 
ATOM      8  C   UNL     1       5.920   4.868   0.367  0.00  0.00    +0.139 A 
ATOM      9  C   UNL     1       5.390   5.590  -0.684  0.00  0.00    +0.116 A 
ATOM     10  C   UNL     1       4.173   5.184  -1.231  0.00  0.00    +0.255 A 
ATOM     11  O   UNL     1       3.696   5.832  -2.148  0.00  0.00    -0.268 OA
ATOM     12  N   UNL     1       3.499   4.096  -0.781  0.00  0.00    -0.310 N 
ATOM     13  C   UNL     1       2.286   3.755  -1.525  0.00  0.00    +0.144 C 
ATOM     14  C   UNL     1       1.080   3.592  -0.600  0.00  0.00    +0.130 C 
ENDROOT
BRANCH   1  17
ATOM     15  C   UNL     1      -3.508   2.906   0.108  0.00  0.00    +0.064 A 
ATOM     16  C   UNL     1      -2.659   1.797   0.140  0.00  0.00    +0.057 A 
ATOM     17  C   UNL     1      -1.377   2.315   0.060  0.00  0.00    +0.121 A 
ATOM     18  N   UNL     1      -1.517   3.671  -0.023  0.00  0.00    -0.272 N 
ATOM     19  H   UNL     1      -0.764   4.324  -0.097  0.00  0.00    +0.189 HD
ATOM     20  N   UNL     1      -2.764   3.978   0.007  0.00  0.00    -0.178 NA
BRANCH  15  21
ATOM     21  C   UNL     1      -5.013   2.873   0.171  0.00  0.00    +0.060 C 
BRANCH  21  23
ATOM     22  C   UNL     1      -7.023   3.831   1.305  0.00  0.00    +0.007 C 
ATOM     23  C   UNL     1      -5.495   3.765   1.317  0.00  0.00    -0.011 C 
ATOM     24  C   UNL     1      -5.020   3.183   2.651  0.00  0.00    +0.007 C 
ENDBRANCH  21  23
ENDBRANCH  15  21
ENDBRANCH   1  17
BRANCH   7  25
ATOM     25  C   UNL     1       5.665   2.929   1.990  0.00  0.00    +0.252 C 
ATOM     26  O   UNL     1       5.553   3.343   3.129  0.00  0.00    -0.270 OA
ATOM     27  N   UNL     1       6.258   1.741   1.761  0.00  0.00    -0.295 N 
ATOM     28  C   UNL     1       6.477   1.285   0.386  0.00  0.00    +0.132 C 
BRANCH  27  29
ATOM     29  C   UNL     1       6.682   0.904   2.887  0.00  0.00    +0.163 C 
BRANCH  29  30
ATOM     30  C   UNL     1       5.557  -0.017   3.280  0.00  0.00    +0.066 A 
ATOM     31  C   UNL     1       5.488  -1.280   2.788  0.00  0.00    +0.071 A 
ATOM     32  S   UNL     1       3.998  -1.863   3.586  0.00  0.00    -0.084 S 
ATOM     33  C   UNL     1       3.628  -0.407   4.458  0.00  0.00    +0.156 A 
ATOM     34  N   UNL     1       4.614   0.385   4.106  0.00  0.00    -0.251 NA
ENDBRANCH  29  30
ENDBRANCH  27  29
ENDBRANCH   7  25
BRANCH   8  35
ATOM     35  O   UNL     1       7.109   5.206   0.918  0.00  0.00    -0.494 OA
ATOM     36  C   UNL     1       7.728   6.403   0.442  0.00  0.00    +0.277 C 
ENDBRANCH   8  35
TORSDOF 7
