REMARK  Name = ZINC20801627
REMARK  7 active torsions:
REMARK  status: ('A' for Active; 'I' for Inactive)
REMARK    1  A    between atoms: C_1  and  C_2
REMARK    2  A    between atoms: C_2  and  O_3
REMARK    3  A    between atoms: O_3  and  C_4
REMARK    4  A    between atoms: C_4  and  C_6
REMARK    5  A    between atoms: C_8  and  C_31
REMARK    6  A    between atoms: N_18  and  C_21
REMARK    7  A    between atoms: C_21  and  C_22
REMARK                            x       y       z     vdW  Elec       q    Type
REMARK                         _______ _______ _______ _____ _____    ______ ____
ROOT
ATOM      1  C   UNL     1       2.140   1.466   1.117  0.00  0.00    +0.210 C 
ATOM      2  C   UNL     1       1.276   2.068   0.001  0.00  0.00    +0.126 C 
ATOM      3  N   UNL     1      -0.017   1.362   0.009  0.00  0.00    -0.311 N 
ATOM      4  C   UNL     1       0.002  -0.004   0.002  0.00  0.00    +0.175 C 
ATOM      5  N   UNL     1       1.044  -0.658   0.489  0.00  0.00    -0.151 NA
ATOM      6  C   UNL     1       2.091  -0.037   1.015  0.00  0.00    +0.255 C 
ATOM      7  O   UNL     1       3.029  -0.693   1.424  0.00  0.00    -0.273 OA
ATOM      8  N   UNL     1      -1.056  -0.695  -0.508  0.00  0.00    -0.303 N 
ATOM      9  C   UNL     1      -2.228   0.010  -1.049  0.00  0.00    +0.123 C 
ATOM     10  C   UNL     1      -2.518  -0.544  -2.453  0.00  0.00    +0.103 C 
ATOM     11  N   UNL     1      -2.651  -2.005  -2.380  0.00  0.00    -0.295 NA
ATOM     12  C   UNL     1      -1.397  -2.634  -1.946  0.00  0.00    +0.103 C 
ATOM     13  C   UNL     1      -1.058  -2.166  -0.527  0.00  0.00    +0.123 C 
ATOM     14  H   UNL     1      -0.956   1.934   0.021  0.00  0.00    +0.149 HD
ENDROOT
BRANCH   2  15
ATOM     15  C   UNL     1       1.955   1.877  -1.331  0.00  0.00    -0.025 A 
ATOM     16  C   UNL     1       1.911   0.645  -1.958  0.00  0.00    +0.005 A 
ATOM     17  C   UNL     1       2.530   0.470  -3.182  0.00  0.00    +0.002 A 
ATOM     18  C   UNL     1       3.200   1.523  -3.774  0.00  0.00    +0.020 A 
ATOM     19  C   UNL     1       3.249   2.754  -3.145  0.00  0.00    +0.041 A 
ATOM     20  C   UNL     1       2.625   2.930  -1.923  0.00  0.00    +0.025 A 
ATOM     21 CL   UNL     1       4.091   4.077  -3.889  0.00  0.00    -0.084 Cl
ENDBRANCH   2  15
BRANCH   1  22
ATOM     22  C   UNL     1       1.609   1.899   2.460  0.00  0.00    +0.321 C 
ATOM     23  O   UNL     1       0.644   2.623   2.522  0.00  0.00    -0.250 OA
BRANCH  22  24
ATOM     24  O   UNL     1       2.207   1.478   3.586  0.00  0.00    -0.464 OA
BRANCH  24  26
ATOM     25  C   UNL     1       2.450   1.357   6.005  0.00  0.00    +0.048 C 
ATOM     26  C   UNL     1       1.641   1.934   4.843  0.00  0.00    +0.229 C 
ENDBRANCH  24  26
ENDBRANCH  22  24
ENDBRANCH   1  22
BRANCH  11  27
ATOM     27  C   UNL     1      -3.101  -2.557  -3.664  0.00  0.00    +0.119 C 
BRANCH  27  28
ATOM     28  C   UNL     1      -4.242  -1.729  -4.196  0.00  0.00    -0.030 A 
ATOM     29  C   UNL     1      -5.545  -2.058  -3.868  0.00  0.00    +0.009 A 
ATOM     30  C   UNL     1      -6.595  -1.298  -4.349  0.00  0.00    +0.050 A 
ATOM     31  C   UNL     1      -6.344  -0.211  -5.170  0.00  0.00    +0.166 A 
ATOM     32  C   UNL     1      -5.033   0.117  -5.505  0.00  0.00    +0.167 A 
ATOM     33  C   UNL     1      -3.985  -0.645  -5.015  0.00  0.00    +0.054 A 
ATOM     34  O   UNL     1      -5.051   1.215  -6.315  0.00  0.00    -0.453 OA
ATOM     35  C   UNL     1      -6.356   1.799  -6.142  0.00  0.00    +0.466 C 
ATOM     36  O   UNL     1      -7.184   0.682  -5.771  0.00  0.00    -0.453 OA
ENDBRANCH  27  28
ENDBRANCH  11  27
TORSDOF 6
