REMARK  Name = ZINC40898020
REMARK  12 active torsions:
REMARK  status: ('A' for Active; 'I' for Inactive)
REMARK    1  A    between atoms: C_1  and  C_2
REMARK    2  A    between atoms: C_2  and  O_3
REMARK    3  A    between atoms: O_3  and  C_4
REMARK    4  A    between atoms: C_4  and  C_6
REMARK    5  A    between atoms: C_7  and  C_21
REMARK    6  A    between atoms: C_10  and  N_11
REMARK    7  A    between atoms: N_11  and  C_12
REMARK    8  A    between atoms: C_12  and  N_14
REMARK    9  A    between atoms: C_15  and  C_17
REMARK   10  A    between atoms: C_17  and  C_18
REMARK   11  A    between atoms: C_17  and  C_19
REMARK   12  A    between atoms: C_17  and  C_20
REMARK                            x       y       z     vdW  Elec       q    Type
REMARK                         _______ _______ _______ _____ _____    ______ ____
ROOT
ATOM      1  C   UNL     1       1.496  -2.370   2.465  0.00  0.00    +0.095 A 
ATOM      2  C   UNL     1       0.793  -2.684   3.698  0.00  0.00    +0.005 A 
ATOM      3  C   UNL     1       1.563  -3.195   4.693  0.00  0.00    +0.056 A 
ATOM      4  S   UNL     1       3.188  -3.244   3.970  0.00  0.00    -0.080 S 
ATOM      5  C   UNL     1       2.857  -2.631   2.445  0.00  0.00    +0.086 A 
ENDROOT
BRANCH   2   6
ATOM      6  C   UNL     1      -0.663  -2.461   3.858  0.00  0.00    -0.016 A 
ATOM      7  C   UNL     1      -1.225  -1.232   3.514  0.00  0.00    +0.009 A 
ATOM      8  C   UNL     1      -2.582  -1.030   3.665  0.00  0.00    +0.016 A 
ATOM      9  C   UNL     1      -3.385  -2.045   4.156  0.00  0.00    +0.018 A 
ATOM     10  C   UNL     1      -2.832  -3.267   4.499  0.00  0.00    +0.016 A 
ATOM     11  C   UNL     1      -1.478  -3.482   4.347  0.00  0.00    +0.009 A 
ATOM     12 BR   UNL     1      -5.243  -1.761   4.360  0.00  0.00    -0.050 Br
ENDBRANCH   2   6
BRANCH   1  13
ATOM     13  C   UNL     1       0.801  -1.814   1.305  0.00  0.00    +0.342 C 
ATOM     14  O   UNL     1       0.321  -2.558   0.470  0.00  0.00    -0.245 OA
BRANCH  13  15
ATOM     15  O   UNL     1       0.693  -0.477   1.160  0.00  0.00    -0.461 OA
BRANCH  15  17
ATOM     16  C   UNL     1      -0.019   1.526   0.010  0.00  0.00    +0.048 C 
ATOM     17  C   UNL     1       0.002  -0.004   0.002  0.00  0.00    +0.229 C 
ENDBRANCH  15  17
ENDBRANCH  13  15
ENDBRANCH   1  13
BRANCH   5  18
ATOM     18  N   UNL     1       3.744  -2.428   1.401  0.00  0.00    -0.290 N 
ATOM     19  H   UNL     1       3.428  -2.062   0.560  0.00  0.00    +0.154 HD
BRANCH  18  20
ATOM     20  C   UNL     1       5.047  -2.740   1.554  0.00  0.00    +0.141 C 
ATOM     21  S   UNL     1       5.604  -3.386   3.038  0.00  0.00    -0.018 S 
BRANCH  20  22
ATOM     22  N   UNL     1       5.910  -2.542   0.538  0.00  0.00    -0.267 N 
ATOM     23  C   UNL     1       7.212  -2.854   0.690  0.00  0.00    +0.224 C 
ATOM     24  O   UNL     1       7.607  -3.312   1.741  0.00  0.00    -0.275 OA
ATOM     25  H   UNL     1       5.594  -2.176  -0.303  0.00  0.00    +0.157 HD
BRANCH  23  26
ATOM     26  C   UNL     1       8.178  -2.633  -0.446  0.00  0.00    +0.039 C 
ATOM     27  C   UNL     1       9.581  -3.066  -0.014  0.00  0.00    +0.020 C 
ATOM     28  C   UNL     1       7.739  -3.460  -1.656  0.00  0.00    +0.020 C 
ATOM     29  C   UNL     1       8.194  -1.150  -0.820  0.00  0.00    +0.020 C 
ENDBRANCH  23  26
ENDBRANCH  20  22
ENDBRANCH  18  20
ENDBRANCH   5  18
TORSDOF 8
