REMARK  Name = ZINC18130361
REMARK  8 active torsions:
REMARK  status: ('A' for Active; 'I' for Inactive)
REMARK    1  A    between atoms: C_1  and  C_2
REMARK    2  A    between atoms: C_10  and  O_34
REMARK    3  A    between atoms: C_11  and  N_12
REMARK    4  A    between atoms: N_13  and  C_14
REMARK    5  A    between atoms: C_17  and  S_23
REMARK    6  A    between atoms: C_19  and  N_20
REMARK    7  A    between atoms: S_23  and  N_26
REMARK    8  A    between atoms: N_26  and  C_27
REMARK                            x       y       z     vdW  Elec       q    Type
REMARK                         _______ _______ _______ _____ _____    ______ ____
ROOT
ATOM      1  C   UNL     1       0.094  -5.331   4.773  0.00  0.00    +0.116 A 
ATOM      2  C   UNL     1       0.109  -6.400   3.873  0.00  0.00    +0.034 A 
ATOM      3  C   UNL     1       0.128  -7.695   4.345  0.00  0.00    +0.031 A 
ATOM      4  C   UNL     1       0.131  -7.938   5.708  0.00  0.00    +0.113 A 
ATOM      5  C   UNL     1       0.115  -6.885   6.605  0.00  0.00    +0.063 A 
ATOM      6  C   UNL     1       0.103  -5.584   6.147  0.00  0.00    +0.155 A 
ENDROOT
BRANCH   6   7
ATOM      7  N   UNL     1       0.094  -4.458   7.109  0.00  0.00    +0.059 N 
ATOM      8  O   UNL     1       0.102  -4.679   8.297  0.00  0.00    -0.126 OA
ATOM      9  O   UNL     1       0.078  -3.319   6.705  0.00  0.00    -0.126 OA
ENDBRANCH   6   7
BRANCH   4  10
ATOM     10  S   UNL     1       0.154  -9.596   6.303  0.00  0.00    +0.092 S 
ATOM     11  O   UNL     1      -0.397  -9.566   7.612  0.00  0.00    -0.148 OA
ATOM     12  O   UNL     1      -0.385 -10.407   5.267  0.00  0.00    -0.148 OA
BRANCH  10  13
ATOM     13  N   UNL     1       1.743 -10.035   6.468  0.00  0.00    -0.098 NA
BRANCH  13  14
ATOM     14  C   UNL     1       2.071 -11.313   6.928  0.00  0.00    +0.074 A 
ATOM     15  C   UNL     1       1.065 -12.219   7.241  0.00  0.00    +0.028 A 
ATOM     16  C   UNL     1       1.392 -13.482   7.695  0.00  0.00    +0.022 A 
ATOM     17  C   UNL     1       2.720 -13.845   7.838  0.00  0.00    +0.041 A 
ATOM     18  C   UNL     1       3.723 -12.944   7.527  0.00  0.00    +0.022 A 
ATOM     19  C   UNL     1       3.402 -11.682   7.067  0.00  0.00    +0.028 A 
ATOM     20 CL   UNL     1       3.127 -15.432   8.411  0.00  0.00    -0.084 Cl
ENDBRANCH  13  14
ENDBRANCH  10  13
ENDBRANCH   4  10
BRANCH   1  22
ATOM     21  N   UNL     1       0.066  -3.814   3.042  0.00  0.00    -0.143 NA
ATOM     22  N   UNL     1       0.075  -4.044   4.311  0.00  0.00    -0.147 NA
BRANCH  21  33
ATOM     23  C   UNL     1      -0.018   1.503   0.010  0.00  0.00    +0.046 C 
ATOM     24  C   UNL     1       0.002  -0.004   0.002  0.00  0.00    -0.026 A 
ATOM     25  C   UNL     1       0.006  -0.687  -1.196  0.00  0.00    +0.005 A 
ATOM     26  C   UNL     1       0.024  -2.073  -1.218  0.00  0.00    +0.001 A 
ATOM     27  C   UNL     1       0.039  -2.787  -0.039  0.00  0.00    +0.012 A 
ATOM     28  C   UNL     1       0.036  -2.110   1.177  0.00  0.00    +0.031 A 
ATOM     29  C   UNL     1       0.023  -0.706   1.202  0.00  0.00    +0.054 A 
ATOM     30  N   UNL     1       0.030  -0.305   2.526  0.00  0.00    -0.324 N 
ATOM     31  H   UNL     1       0.019   0.618   2.825  0.00  0.00    +0.169 HD
ATOM     32  C   UNL     1       0.052  -1.387   3.350  0.00  0.00    +0.219 A 
ATOM     33  C   UNL     1       0.048  -2.544   2.587  0.00  0.00    +0.154 A 
BRANCH  32  34
ATOM     34  O   UNL     1       0.064  -1.341   4.702  0.00  0.00    -0.492 OA
ATOM     35  H   UNL     1      -0.816  -1.339   5.103  0.00  0.00    +0.294 HD
ENDBRANCH  32  34
ENDBRANCH  21  33
ENDBRANCH   1  22
TORSDOF 7
