REMARK  Name = ZINC16247888
REMARK  7 active torsions:
REMARK  status: ('A' for Active; 'I' for Inactive)
REMARK    1  A    between atoms: C_1  and  C_2
REMARK    2  A    between atoms: C_2  and  N_3
REMARK    3  A    between atoms: C_6  and  C_18
REMARK    4  A    between atoms: N_10  and  C_11
REMARK    5  A    between atoms: C_18  and  C_19
REMARK    6  A    between atoms: N_21  and  C_22
REMARK    7  A    between atoms: C_27  and  C_28
REMARK                            x       y       z     vdW  Elec       q    Type
REMARK                         _______ _______ _______ _____ _____    ______ ____
ROOT
ATOM      1  N   UNL     1       0.014   0.003  -0.028  0.00  0.00    -0.250 N 
ATOM      2  C   UNL     1       0.007  -0.637  -1.185  0.00  0.00    +0.235 C 
ATOM      3  O   UNL     1      -0.011  -0.049  -2.245  0.00  0.00    -0.274 OA
ATOM      4  C   UNL     1       0.029  -2.154  -1.103  0.00  0.00    +0.149 C 
ATOM      5  S   UNL     1       0.043  -2.386   0.719  0.00  0.00    -0.077 S 
ATOM      6  C   UNL     1       0.029  -0.660   1.181  0.00  0.00    +0.164 C 
ATOM      7  N   UNL     1       0.033  -0.145   2.388  0.00  0.00    -0.226 NA
ENDROOT
BRANCH   7   8
ATOM      8  C   UNL     1       0.048  -0.967   3.484  0.00  0.00    +0.067 A 
ATOM      9  C   UNL     1      -0.798  -2.075   3.541  0.00  0.00    +0.029 A 
ATOM     10  C   UNL     1      -0.774  -2.902   4.645  0.00  0.00    +0.017 A 
ATOM     11  C   UNL     1       0.080  -2.628   5.699  0.00  0.00    +0.018 A 
ATOM     12  C   UNL     1       0.918  -1.527   5.652  0.00  0.00    +0.017 A 
ATOM     13  C   UNL     1       0.907  -0.696   4.551  0.00  0.00    +0.029 A 
ATOM     14 BR   UNL     1       0.102  -3.763   7.212  0.00  0.00    -0.050 Br
ENDBRANCH   7   8
BRANCH   1  16
ATOM     15  C   UNL     1       1.436   1.992  -0.041  0.00  0.00    +0.025 C 
ATOM     16  C   UNL     1      -0.001   1.468  -0.030  0.00  0.00    +0.112 C 
ENDBRANCH   1  16
BRANCH   4  17
ATOM     17  C   UNL     1      -1.231  -2.758  -1.728  0.00  0.00    +0.120 C 
BRANCH  17  18
ATOM     18  C   UNL     1      -1.202  -4.256  -1.569  0.00  0.00    +0.219 C 
ATOM     19  O   UNL     1      -0.267  -4.789  -1.010  0.00  0.00    -0.275 OA
ATOM     20  N   UNL     1      -2.216  -5.004  -2.047  0.00  0.00    -0.285 N 
ATOM     21  H   UNL     1      -3.001  -4.574  -2.421  0.00  0.00    +0.155 HD
BRANCH  20  22
ATOM     22  C   UNL     1      -2.137  -6.400  -2.003  0.00  0.00    +0.038 A 
ATOM     23  C   UNL     1      -0.898  -7.026  -1.970  0.00  0.00    +0.043 A 
ATOM     24  C   UNL     1      -0.824  -8.405  -1.923  0.00  0.00    +0.043 A 
ATOM     25  C   UNL     1      -1.982  -9.162  -1.917  0.00  0.00    +0.020 A 
ATOM     26  C   UNL     1      -3.217  -8.541  -1.954  0.00  0.00    +0.006 A 
ATOM     27  C   UNL     1      -3.298  -7.163  -1.997  0.00  0.00    -0.029 A 
ATOM     28  C   UNL     1      -4.644  -6.487  -2.039  0.00  0.00    +0.045 C 
ATOM     29 CL   UNL     1       0.725  -9.189  -1.877  0.00  0.00    -0.083 Cl
ENDBRANCH  20  22
ENDBRANCH  17  18
ENDBRANCH   4  17
TORSDOF 5
