REMARK  Name = ZINC59258209
REMARK  7 active torsions:
REMARK  status: ('A' for Active; 'I' for Inactive)
REMARK    1  A    between atoms: C_1  and  N_2
REMARK    2  A    between atoms: N_2  and  C_3
REMARK    3  A    between atoms: C_4  and  C_6
REMARK    4  A    between atoms: C_11  and  N_12
REMARK    5  A    between atoms: N_12  and  C_13
REMARK    6  A    between atoms: C_13  and  C_14
REMARK    7  A    between atoms: N_16  and  N_17
REMARK                            x       y       z     vdW  Elec       q    Type
REMARK                         _______ _______ _______ _____ _____    ______ ____
ROOT
ATOM      1  C   UNL     1       0.649  -2.186  -5.885  0.00  0.00    +0.247 C 
ATOM      2  O   UNL     1       0.552  -0.985  -5.749  0.00  0.00    -0.273 OA
ATOM      3  N   UNL     1       0.882  -2.710  -7.104  0.00  0.00    -0.222 N 
ATOM      4  H   UNL     1       0.960  -3.671  -7.212  0.00  0.00    +0.174 HD
ENDROOT
BRANCH   3   5
ATOM      5  N   UNL     1       1.011  -1.868  -8.216  0.00  0.00    -0.137 N 
ATOM      6  C   UNL     1       0.059  -1.704  -9.158  0.00  0.00    +0.263 C 
ATOM      7  O   UNL     1      -1.029  -2.237  -9.203  0.00  0.00    -0.271 OA
ATOM      8  C   UNL     1       0.635  -0.715 -10.146  0.00  0.00    +0.114 C 
ATOM      9  C   UNL     1      -0.227   0.541 -10.204  0.00  0.00    +0.035 C 
ATOM     10  C   UNL     1       0.389   1.540 -11.187  0.00  0.00    +0.003 C 
ATOM     11  C   UNL     1       0.482   0.900 -12.573  0.00  0.00    +0.000 C 
ATOM     12  C   UNL     1       1.368  -0.345 -12.503  0.00  0.00    +0.003 C 
ATOM     13  C   UNL     1       0.756  -1.352 -11.526  0.00  0.00    +0.035 C 
ATOM     14  N   UNL     1       1.964  -0.403  -9.605  0.00  0.00    -0.284 N 
ATOM     15  C   UNL     1       2.092  -1.121  -8.472  0.00  0.00    +0.326 C 
ATOM     16  O   UNL     1       3.079  -1.095  -7.764  0.00  0.00    -0.251 OA
ATOM     17  H   UNL     1       2.619   0.203  -9.986  0.00  0.00    +0.151 HD
ENDBRANCH   3   5
BRANCH   1  18
ATOM     18  C   UNL     1       0.510  -3.093  -4.689  0.00  0.00    +0.199 C 
BRANCH  18  19
ATOM     19  N   UNL     1       0.264  -2.286  -3.491  0.00  0.00    -0.335 N 
ATOM     20  H   UNL     1       0.215  -1.320  -3.558  0.00  0.00    +0.147 HD
BRANCH  19  26
ATOM     21  C   UNL     1      -0.026  -2.134  -1.092  0.00  0.00    +0.058 A 
ATOM     22  C   UNL     1      -0.195  -2.769   0.141  0.00  0.00    +0.016 A 
ATOM     23  C   UNL     1      -0.230  -4.144   0.207  0.00  0.00    +0.021 A 
ATOM     24  C   UNL     1      -0.099  -4.905  -0.946  0.00  0.00    +0.043 A 
ATOM     25  C   UNL     1       0.069  -4.292  -2.172  0.00  0.00    +0.043 A 
ATOM     26  C   UNL     1       0.101  -2.906  -2.258  0.00  0.00    +0.041 A 
ATOM     27 CL   UNL     1      -0.145  -6.637  -0.847  0.00  0.00    -0.083 Cl
BRANCH  21  31
ATOM     28  C   UNL     1       0.778   1.498  -0.344  0.00  0.00    +0.132 C 
ATOM     29  N   UNL     1       0.827   0.034  -0.352  0.00  0.00    -0.304 N 
ATOM     30  C   UNL     1       1.761  -0.673   0.528  0.00  0.00    +0.132 C 
ATOM     31  C   UNL     1       0.012  -0.663  -1.169  0.00  0.00    +0.248 C 
ATOM     32  O   UNL     1      -0.691  -0.077  -1.970  0.00  0.00    -0.270 OA
ENDBRANCH  21  31
ENDBRANCH  19  26
ENDBRANCH  18  19
ENDBRANCH   1  18
TORSDOF 5
