REMARK  Name = ZINC04750710
REMARK  5 active torsions:
REMARK  status: ('A' for Active; 'I' for Inactive)
REMARK    1  A    between atoms: C_3  and  C_6
REMARK    2  A    between atoms: N_7  and  N_8
REMARK    3  A    between atoms: C_9  and  C_11
REMARK    4  A    between atoms: C_11  and  C_12
REMARK    5  A    between atoms: C_12  and  N_13
REMARK                            x       y       z     vdW  Elec       q    Type
REMARK                         _______ _______ _______ _____ _____    ______ ____
ROOT
ATOM      1  N   UNL     1      -2.235  -3.034  -0.229  0.00  0.00    -0.339 N 
ATOM      2  C   UNL     1      -2.969  -3.452   0.867  0.00  0.00    +0.050 A 
ATOM      3  C   UNL     1      -2.772  -3.308   2.236  0.00  0.00    +0.028 A 
ATOM      4  C   UNL     1      -3.684  -3.837   3.125  0.00  0.00    +0.022 A 
ATOM      5  C   UNL     1      -4.803  -4.516   2.666  0.00  0.00    +0.042 A 
ATOM      6  C   UNL     1      -5.020  -4.662   1.312  0.00  0.00    +0.030 A 
ATOM      7  C   UNL     1      -4.103  -4.136   0.404  0.00  0.00    +0.009 A 
ATOM      8  C   UNL     1      -4.026  -4.127  -1.068  0.00  0.00    +0.009 A 
ATOM      9  C   UNL     1      -2.853  -3.433  -1.401  0.00  0.00    +0.050 A 
ATOM     10  C   UNL     1      -2.518  -3.265  -2.741  0.00  0.00    +0.028 A 
ATOM     11  C   UNL     1      -3.334  -3.778  -3.727  0.00  0.00    +0.022 A 
ATOM     12  C   UNL     1      -4.494  -4.463  -3.396  0.00  0.00    +0.042 A 
ATOM     13  C   UNL     1      -4.843  -4.640  -2.073  0.00  0.00    +0.030 A 
ATOM     14 CL   UNL     1      -5.510  -5.102  -4.651  0.00  0.00    -0.084 Cl
ATOM     15 CL   UNL     1      -5.941  -5.175   3.800  0.00  0.00    -0.084 Cl
ENDROOT
BRANCH   1  16
ATOM     16  C   UNL     1      -0.980  -2.281  -0.159  0.00  0.00    +0.131 C 
BRANCH  16  17
ATOM     17  C   UNL     1      -1.283  -0.782  -0.166  0.00  0.00    +0.119 C 
BRANCH  17  19
ATOM     18  N   UNL     1      -0.014   1.340  -0.086  0.00  0.00    -0.207 N 
ATOM     19  C   UNL     1       0.008  -0.008  -0.093  0.00  0.00    +0.234 C 
ATOM     20  O   UNL     1       1.067  -0.598  -0.041  0.00  0.00    -0.274 OA
ATOM     21  H   UNL     1      -0.860   1.811  -0.131  0.00  0.00    +0.177 HD
BRANCH  18  23
ATOM     22  C   UNL     1       1.171   3.358  -0.089  0.00  0.00    +0.176 C 
ATOM     23  N   UNL     1       1.187   2.059  -0.018  0.00  0.00    -0.185 NA
BRANCH  22  26
ATOM     24  C   UNL     1      -1.653   5.673  -0.162  0.00  0.00    +0.042 A 
ATOM     25  C   UNL     1      -0.272   5.420  -0.257  0.00  0.00    +0.051 A 
ATOM     26  C   UNL     1      -0.106   4.078  -0.073  0.00  0.00    +0.147 A 
ATOM     27  O   UNL     1      -1.322   3.529   0.119  0.00  0.00    -0.462 OA
ATOM     28  C   UNL     1      -2.258   4.491   0.071  0.00  0.00    +0.196 A 
ENDBRANCH  22  26
ENDBRANCH  18  23
ENDBRANCH  17  19
ENDBRANCH  16  17
ENDBRANCH   1  16
TORSDOF 5
