REMARK  Name = ZINC38704863
REMARK  10 active torsions:
REMARK  status: ('A' for Active; 'I' for Inactive)
REMARK    1  A    between atoms: C_1  and  C_2
REMARK    2  A    between atoms: C_2  and  O_3
REMARK    3  A    between atoms: O_3  and  C_4
REMARK    4  A    between atoms: C_7  and  C_10
REMARK    5  A    between atoms: C_13  and  C_28
REMARK    6  A    between atoms: N_20  and  C_21
REMARK    7  A    between atoms: C_21  and  C_22
REMARK    8  A    between atoms: C_29  and  C_36
REMARK    9  A    between atoms: C_31  and  C_35
REMARK   10  A    between atoms: C_33  and  O_34
REMARK                            x       y       z     vdW  Elec       q    Type
REMARK                         _______ _______ _______ _____ _____    ______ ____
ROOT
ATOM      1  C   UNL     1      -2.134  -5.717   0.086  0.00  0.00    +0.142 C 
ATOM      2  C   UNL     1      -2.264  -6.402   1.419  0.00  0.00    +0.035 A 
ATOM      3  C   UNL     1      -1.688  -6.679   2.664  0.00  0.00    +0.102 A 
ATOM      4  N   UNL     1      -2.539  -7.431   3.334  0.00  0.00    -0.173 NA
ATOM      5  N   UNL     1      -3.595  -7.655   2.636  0.00  0.00    -0.272 N 
ATOM      6  H   UNL     1      -4.354  -8.184   2.928  0.00  0.00    +0.189 HD
ATOM      7  C   UNL     1      -3.490  -7.039   1.421  0.00  0.00    +0.126 A 
ATOM      8  C   UNL     1      -4.150  -6.785   0.136  0.00  0.00    +0.266 C 
ATOM      9  O   UNL     1      -5.246  -7.209  -0.178  0.00  0.00    -0.268 OA
ATOM     10  N   UNL     1      -3.369  -6.018  -0.649  0.00  0.00    -0.281 N 
ENDROOT
BRANCH   3  11
ATOM     11  C   UNL     1      -0.363  -6.213   3.142  0.00  0.00    +0.047 A 
ATOM     12  C   UNL     1      -0.236  -5.641   4.405  0.00  0.00    -0.037 A 
ATOM     13  C   UNL     1       0.998  -5.209   4.845  0.00  0.00    +0.007 A 
ATOM     14  C   UNL     1       2.112  -5.343   4.036  0.00  0.00    -0.047 A 
ATOM     15  C   UNL     1       1.998  -5.909   2.780  0.00  0.00    +0.049 A 
ATOM     16  C   UNL     1       0.765  -6.352   2.329  0.00  0.00    +0.127 A 
ATOM     17  C   UNL     1       3.457  -4.868   4.525  0.00  0.00    +0.044 C 
ATOM     18  C   UNL     1      -1.447  -5.492   5.290  0.00  0.00    +0.044 C 
BRANCH  16  19
ATOM     19  O   UNL     1       0.653  -6.915   1.097  0.00  0.00    -0.506 OA
ATOM     20  H   UNL     1       0.524  -6.276   0.383  0.00  0.00    +0.292 HD
ENDBRANCH  16  19
ENDBRANCH   3  11
BRANCH   1  24
ATOM     21  C   UNL     1      -1.740  -1.497   0.631  0.00  0.00    +0.121 A 
ATOM     22  C   UNL     1      -0.651  -2.248   0.212  0.00  0.00    +0.046 A 
ATOM     23  C   UNL     1      -0.781  -3.612   0.037  0.00  0.00    +0.009 A 
ATOM     24  C   UNL     1      -1.995  -4.229   0.279  0.00  0.00    -0.022 A 
ATOM     25  C   UNL     1      -3.081  -3.482   0.697  0.00  0.00    +0.009 A 
ATOM     26  C   UNL     1      -2.955  -2.119   0.879  0.00  0.00    +0.046 A 
BRANCH  21  27
ATOM     27  O   UNL     1      -1.614  -0.155   0.805  0.00  0.00    -0.492 OA
BRANCH  27  29
ATOM     28  C   UNL     1      -0.386   1.926   0.781  0.00  0.00    +0.048 C 
ATOM     29  C   UNL     1      -0.334   0.418   0.531  0.00  0.00    +0.225 C 
ENDBRANCH  27  29
ENDBRANCH  21  27
ENDBRANCH   1  24
BRANCH  10  30
ATOM     30  C   UNL     1      -3.695  -5.562  -2.002  0.00  0.00    +0.144 C 
BRANCH  30  31
ATOM     31  C   UNL     1      -3.201  -6.572  -3.006  0.00  0.00    -0.030 A 
ATOM     32  C   UNL     1      -1.923  -6.465  -3.522  0.00  0.00    +0.005 A 
ATOM     33  C   UNL     1      -1.470  -7.391  -4.442  0.00  0.00    +0.000 A 
ATOM     34  C   UNL     1      -2.295  -8.424  -4.847  0.00  0.00    +0.000 A 
ATOM     35  C   UNL     1      -3.573  -8.531  -4.331  0.00  0.00    +0.000 A 
ATOM     36  C   UNL     1      -4.024  -7.607  -3.407  0.00  0.00    +0.005 A 
ENDBRANCH  30  31
ENDBRANCH  10  30
TORSDOF 7
