REMARK  Name = ZINC05543762
REMARK  11 active torsions:
REMARK  status: ('A' for Active; 'I' for Inactive)
REMARK    1  A    between atoms: C_1  and  C_2
REMARK    2  A    between atoms: C_2  and  O_3
REMARK    3  A    between atoms: O_3  and  C_4
REMARK    4  A    between atoms: C_4  and  C_6
REMARK    5  A    between atoms: C_8  and  C_21
REMARK    6  A    between atoms: C_15  and  O_16
REMARK    7  A    between atoms: C_18  and  C_19
REMARK    8  A    between atoms: C_18  and  O_20
REMARK    9  A    between atoms: C_24  and  O_29
REMARK   10  A    between atoms: C_25  and  O_27
REMARK   11  A    between atoms: O_27  and  C_28
REMARK                            x       y       z     vdW  Elec       q    Type
REMARK                         _______ _______ _______ _____ _____    ______ ____
ROOT
ATOM      1  C   UNL     1       1.486  -2.348  -2.471  0.00  0.00    +0.141 C 
ATOM      2  C   UNL     1       1.560  -3.880  -2.428  0.00  0.00    +0.073 C 
ATOM      3  C   UNL     1       2.566  -4.278  -1.378  0.00  0.00    +0.044 A 
ATOM      4  C   UNL     1       3.490  -3.436  -0.850  0.00  0.00    +0.046 A 
ATOM      5  N   UNL     1       4.210  -4.125   0.051  0.00  0.00    -0.278 N 
ATOM      6  H   UNL     1       4.941  -3.776   0.585  0.00  0.00    +0.189 HD
ATOM      7  N   UNL     1       3.719  -5.439   0.083  0.00  0.00    -0.136 NA
ATOM      8  C   UNL     1       2.730  -5.529  -0.777  0.00  0.00    +0.235 A 
ATOM      9  C   UNL     1       3.639  -1.988  -1.246  0.00  0.00    +0.090 C 
ATOM     10  C   UNL     1       2.901  -1.772  -2.573  0.00  0.00    +0.082 C 
ATOM     11  C   UNL     1       2.820  -0.273  -2.873  0.00  0.00    +0.042 C 
ENDROOT
BRANCH   2  12
ATOM     12  C   UNL     1       0.207  -4.443  -2.076  0.00  0.00    -0.035 A 
ATOM     13  C   UNL     1      -0.627  -4.910  -3.075  0.00  0.00    +0.008 A 
ATOM     14  C   UNL     1      -1.869  -5.428  -2.757  0.00  0.00    +0.049 A 
ATOM     15  C   UNL     1      -2.280  -5.479  -1.434  0.00  0.00    +0.158 A 
ATOM     16  C   UNL     1      -1.440  -5.010  -0.429  0.00  0.00    +0.162 A 
ATOM     17  C   UNL     1      -0.195  -4.496  -0.754  0.00  0.00    +0.053 A 
BRANCH  16  18
ATOM     18  O   UNL     1      -1.839  -5.058   0.870  0.00  0.00    -0.491 OA
ATOM     19  C   UNL     1      -0.926  -4.558   1.849  0.00  0.00    +0.277 C 
ENDBRANCH  16  18
BRANCH  15  20
ATOM     20  O   UNL     1      -3.501  -5.988  -1.120  0.00  0.00    -0.503 OA
ATOM     21  H   UNL     1      -3.499  -6.940  -0.950  0.00  0.00    +0.292 HD
ENDBRANCH  15  20
ENDBRANCH   2  12
BRANCH   1  22
ATOM     22  C   UNL     1       0.827  -1.841  -1.215  0.00  0.00    +0.314 C 
ATOM     23  O   UNL     1       1.264  -2.157  -0.133  0.00  0.00    -0.250 OA
BRANCH  22  24
ATOM     24  O   UNL     1      -0.247  -1.040  -1.296  0.00  0.00    -0.465 OA
BRANCH  24  26
ATOM     25  C   UNL     1      -2.025   0.301  -0.358  0.00  0.00    +0.048 C 
ATOM     26  C   UNL     1      -0.821  -0.597  -0.065  0.00  0.00    +0.229 C 
ENDBRANCH  24  26
ENDBRANCH  22  24
ENDBRANCH   1  22
BRANCH   8  27
ATOM     27  O   UNL     1       1.996  -6.644  -1.038  0.00  0.00    -0.491 OA
ATOM     28  H   UNL     1       2.356  -7.195  -1.746  0.00  0.00    +0.294 HD
ENDBRANCH   8  27
BRANCH  10  29
ATOM     29  O   UNL     1       3.609  -2.430  -3.625  0.00  0.00    -0.388 OA
ATOM     30  H   UNL     1       4.515  -2.115  -3.747  0.00  0.00    +0.210 HD
ENDBRANCH  10  29
TORSDOF 8
