REMARK  Name = ZINC03024742
REMARK  2 active torsions:
REMARK  status: ('A' for Active; 'I' for Inactive)
REMARK    1  A    between atoms: C_11  and  C_18
REMARK    2  A    between atoms: CA_13  and  C_16
REMARK                            x       y       z     vdW  Elec       q    Type
REMARK                         _______ _______ _______ _____ _____    ______ ____
ROOT
ATOM      1  C   UNL     1      -3.637   3.684   4.091  0.00  0.00    +0.001 A 
ATOM      2  C   UNL     1      -2.553   3.495   4.933  0.00  0.00    +0.002 A 
ATOM      3  C   UNL     1      -1.377   2.907   4.501  0.00  0.00    +0.026 A 
ATOM      4  C   UNL     1      -1.324   2.505   3.168  0.00  0.00    +0.047 A 
ATOM      5  C   UNL     1      -2.438   2.699   2.310  0.00  0.00    +0.003 A 
ATOM      6  C   UNL     1      -3.614   3.298   2.773  0.00  0.00    +0.010 A 
ATOM      7  C   UNL     1      -2.044   2.174   1.022  0.00  0.00    -0.021 A 
ATOM      8  C   UNL     1      -0.779   1.712   1.149  0.00  0.00    +0.010 A 
ATOM      9  N   UNL     1      -0.342   1.906   2.431  0.00  0.00    -0.359 N 
ATOM     10  H   UNL     1       0.533   1.656   2.767  0.00  0.00    +0.166 HD
ATOM     11  C   UNL     1      -0.013   1.086   0.008  0.00  0.00    +0.009 C 
ATOM     12  CA  UNL     1      -2.120   1.121  -1.202  0.00  0.00    +0.049 C 
ATOM     13  C   UNL     1      -2.827   2.111  -0.265  0.00  0.00    +0.033 C 
ATOM     14  N   UNL     1      -0.675   1.441  -1.265  0.00  0.00    +0.396 N 
ATOM     15  H1  UNL     1      -0.244   0.910  -2.031  0.00  0.00    -0.083 HD
ATOM     16  H2  UNL     1      -0.558   2.446  -1.438  0.00  0.00    -0.083 HD
ENDROOT
BRANCH  11  17
ATOM     17  C   UNL     1       1.400   1.611  -0.003  0.00  0.00    -0.048 A 
ATOM     18  C   UNL     1       1.731   2.696  -0.762  0.00  0.00    +0.003 A 
ATOM     19  C   UNL     1       3.027   3.218  -0.794  0.00  0.00    +0.004 A 
ATOM     20  C   UNL     1       4.019   2.639  -0.063  0.00  0.00    -0.039 A 
ATOM     21  C   UNL     1       3.697   1.529   0.711  0.00  0.00    -0.011 A 
ATOM     22  C   UNL     1       2.399   0.990   0.764  0.00  0.00    -0.015 A 
ATOM     23  C   UNL     1       2.188  -0.134   1.579  0.00  0.00    +0.009 A 
ATOM     24  C   UNL     1       3.243  -0.648   2.276  0.00  0.00    +0.001 A 
ATOM     25  C   UNL     1       4.524  -0.096   2.208  0.00  0.00    +0.004 A 
ATOM     26  C   UNL     1       4.763   0.994   1.428  0.00  0.00    -0.039 A 
ATOM     27  C   UNL     1       5.980   1.832   1.120  0.00  0.00    +0.040 C 
ATOM     28  C   UNL     1       5.489   2.917   0.137  0.00  0.00    +0.040 C 
ENDBRANCH  11  17
BRANCH  12  29
ATOM     29  C   UNL     1      -2.708   1.231  -2.585  0.00  0.00    +0.343 C 
ATOM     30  O   UNL     1      -2.135   1.869  -3.437  0.00  0.00    -0.248 OA
ATOM     31  OXT UNL     1      -3.869   0.621  -2.871  0.00  0.00    -0.248 OA
ENDBRANCH  12  29
TORSDOF 2
