REMARK  Name = ZINC66978405
REMARK  7 active torsions:
REMARK  status: ('A' for Active; 'I' for Inactive)
REMARK    1  A    between atoms: C_1  and  C_2
REMARK    2  A    between atoms: C_2  and  C_3
REMARK    3  A    between atoms: C_2  and  C_4
REMARK    4  A    between atoms: C_10  and  N_12
REMARK    5  A    between atoms: C_18  and  N_21
REMARK    6  A    between atoms: C_22  and  C_24
REMARK    7  A    between atoms: C_24  and  C_25
REMARK                            x       y       z     vdW  Elec       q    Type
REMARK                         _______ _______ _______ _____ _____    ______ ____
ROOT
ATOM      1  N   UNL     1       1.448  -2.513  -0.079  0.00  0.00    -0.296 N 
ATOM      2  C   UNL     1       1.183  -3.741   0.409  0.00  0.00    +0.302 C 
ATOM      3  O   UNL     1       0.293  -4.410  -0.079  0.00  0.00    -0.253 OA
ATOM      4  N   UNL     1       1.905  -4.227   1.438  0.00  0.00    -0.286 N 
ATOM      5  C   UNL     1       2.904  -3.389   2.114  0.00  0.00    +0.111 C 
ATOM      6  C   UNL     1       4.245  -4.130   2.123  0.00  0.00    +0.041 C 
ATOM      7  C   UNL     1       4.055  -5.512   2.752  0.00  0.00    +0.076 C 
ATOM      8  C   UNL     1       3.061  -6.322   1.917  0.00  0.00    +0.041 C 
ATOM      9  C   UNL     1       1.702  -5.604   1.910  0.00  0.00    +0.111 C 
ATOM     10  H   UNL     1       2.107  -1.950   0.356  0.00  0.00    +0.151 HD
ENDROOT
BRANCH   1  16
ATOM     11  C   UNL     1       0.720  -0.499  -1.259  0.00  0.00    +0.012 C 
ATOM     12  C   UNL     1       2.156   0.031  -1.269  0.00  0.00    +0.005 C 
ATOM     13  C   UNL     1       2.873  -0.464  -2.527  0.00  0.00    +0.000 C 
ATOM     14  C   UNL     1       2.893  -1.994  -2.535  0.00  0.00    +0.002 C 
ATOM     15  C   UNL     1       1.458  -2.523  -2.525  0.00  0.00    +0.022 C 
ATOM     16  C   UNL     1       0.741  -2.028  -1.267  0.00  0.00    +0.078 C 
BRANCH  11  18
ATOM     17  C   UNL     1      -0.018   1.526   0.006  0.00  0.00    +0.007 C 
ATOM     18  C   UNL     1       0.003  -0.004  -0.002  0.00  0.00    -0.012 C 
ATOM     19  C   UNL     1      -1.432  -0.533   0.008  0.00  0.00    +0.007 C 
ENDBRANCH  11  18
ENDBRANCH   1  16
BRANCH   7  20
ATOM     20  N   UNL     1       5.342  -6.210   2.793  0.00  0.00    -0.312 N 
ATOM     21  C   UNL     1       5.556  -7.176   3.708  0.00  0.00    +0.214 C 
ATOM     22  O   UNL     1       4.683  -7.467   4.499  0.00  0.00    -0.276 OA
ATOM     23  H   UNL     1       6.040  -5.978   2.161  0.00  0.00    +0.149 HD
BRANCH  21  24
ATOM     24  C   UNL     1       6.880  -7.895   3.750  0.00  0.00    +0.099 C 
BRANCH  24  25
ATOM     25  C   UNL     1       6.861  -8.934   4.872  0.00  0.00    -0.002 C 
ATOM     26  C   UNL     1       6.814  -8.230   6.244  0.00  0.00    +0.004 C 
ATOM     27  C   UNL     1       7.705  -9.111   7.154  0.00  0.00    +0.000 C 
ATOM     28  C   UNL     1       8.854  -9.531   6.205  0.00  0.00    +0.000 C 
ATOM     29  C   UNL     1       8.158  -9.761   4.847  0.00  0.00    +0.004 C 
ENDBRANCH  24  25
ENDBRANCH  21  24
ENDBRANCH   7  20
TORSDOF 5
