REMARK  Name = ZINC11861447
REMARK  11 active torsions:
REMARK  status: ('A' for Active; 'I' for Inactive)
REMARK    1  A    between atoms: C_1  and  C_2
REMARK    2  A    between atoms: C_5  and  O_9
REMARK    3  A    between atoms: C_7  and  C_8
REMARK    4  A    between atoms: O_9  and  C_10
REMARK    5  A    between atoms: C_10  and  C_11
REMARK    6  A    between atoms: C_11  and  O_12
REMARK    7  A    between atoms: O_12  and  C_13
REMARK    8  A    between atoms: C_14  and  O_23
REMARK    9  A    between atoms: C_16  and  C_20
REMARK   10  A    between atoms: C_20  and  N_22
REMARK   11  A    between atoms: O_23  and  C_24
REMARK                            x       y       z     vdW  Elec       q    Type
REMARK                         _______ _______ _______ _____ _____    ______ ____
ROOT
ATOM      1  C   UNL     1       1.181   2.091   0.002  0.00  0.00    +0.180 A 
ATOM      2  C   UNL     1      -0.017   1.377   0.010  0.00  0.00    +0.164 A 
ATOM      3  C   UNL     1       0.002  -0.004   0.002  0.00  0.00    +0.059 A 
ATOM      4  C   UNL     1       1.224  -0.684  -0.013  0.00  0.00    +0.008 A 
ATOM      5  C   UNL     1       2.421   0.037  -0.021  0.00  0.00    +0.034 A 
ATOM      6  C   UNL     1       2.395   1.416  -0.013  0.00  0.00    +0.087 A 
ATOM      7 CL   UNL     1       3.882   2.311  -0.023  0.00  0.00    -0.080 Cl
ENDROOT
BRANCH   4   8
ATOM      8  C   UNL     1       1.249  -2.158  -0.021  0.00  0.00    +0.077 C 
ATOM      9  S   UNL     1       0.041  -3.030  -0.864  0.00  0.00    -0.035 S 
BRANCH   8  10
ATOM     10  N   UNL     1       2.223  -2.818   0.636  0.00  0.00    -0.352 N 
ATOM     11  H   UNL     1       2.908  -2.324   1.113  0.00  0.00    +0.143 HD
ATOM     12  H   UNL     1       2.240  -3.788   0.631  0.00  0.00    +0.143 HD
ENDBRANCH   8  10
ENDBRANCH   4   8
BRANCH   2  13
ATOM     13  O   UNL     1      -1.204   2.041   0.019  0.00  0.00    -0.491 OA
ATOM     14  C   UNL     1      -2.391   1.246   0.020  0.00  0.00    +0.277 C 
ENDBRANCH   2  13
BRANCH   1  15
ATOM     15  O   UNL     1       1.160   3.449   0.010  0.00  0.00    -0.483 OA
BRANCH  15  16
ATOM     16  C   UNL     1       1.162   4.091   1.286  0.00  0.00    +0.270 C 
BRANCH  16  17
ATOM     17  C   UNL     1       1.137   5.609   1.094  0.00  0.00    +0.270 C 
BRANCH  17  18
ATOM     18  O   UNL     1      -0.095   5.991   0.481  0.00  0.00    -0.489 OA
BRANCH  18  23
ATOM     19  C   UNL     1      -0.857  11.480  -0.523  0.00  0.00    +0.044 C 
ATOM     20  C   UNL     1      -0.654  10.012  -0.254  0.00  0.00    -0.047 A 
ATOM     21  C   UNL     1       0.518   9.574   0.337  0.00  0.00    +0.007 A 
ATOM     22  C   UNL     1       0.704   8.229   0.590  0.00  0.00    +0.046 A 
ATOM     23  C   UNL     1      -0.279   7.315   0.239  0.00  0.00    +0.121 A 
ATOM     24  C   UNL     1      -1.453   7.757  -0.354  0.00  0.00    +0.049 A 
ATOM     25  C   UNL     1      -1.638   9.104  -0.599  0.00  0.00    -0.044 A 
ATOM     26  C   UNL     1      -2.912   9.584  -1.244  0.00  0.00    +0.044 C 
ENDBRANCH  18  23
ENDBRANCH  17  18
ENDBRANCH  16  17
ENDBRANCH  15  16
ENDBRANCH   1  15
TORSDOF 8
