REMARK  Name = ZINC14819293
REMARK  8 active torsions:
REMARK  status: ('A' for Active; 'I' for Inactive)
REMARK    1  A    between atoms: C_1  and  C_2
REMARK    2  A    between atoms: C_2  and  C_26
REMARK    3  A    between atoms: C_3  and  C_4
REMARK    4  A    between atoms: C_4  and  C_5
REMARK    5  A    between atoms: C_7  and  C_12
REMARK    6  A    between atoms: C_10  and  O_11
REMARK    7  A    between atoms: C_18  and  O_25
REMARK    8  A    between atoms: C_20  and  O_24
REMARK                            x       y       z     vdW  Elec       q    Type
REMARK                         _______ _______ _______ _____ _____    ______ ____
ROOT
ATOM      1  C   UNL     1      -1.855  -4.566   0.207  0.00  0.00    +0.211 C 
ATOM      2  C   UNL     1      -0.668  -5.444   0.630  0.00  0.00    +0.129 C 
ATOM      3  C   UNL     1      -1.153  -6.882   0.633  0.00  0.00    +0.174 C 
ATOM      4  O   UNL     1      -0.458  -7.790   0.223  0.00  0.00    -0.292 OA
ATOM      5  C   UNL     1      -2.502  -7.120   1.156  0.00  0.00    +0.101 A 
ATOM      6  C   UNL     1      -2.944  -8.423   1.434  0.00  0.00    +0.134 A 
ATOM      7  C   UNL     1      -4.226  -8.620   1.916  0.00  0.00    +0.091 A 
ATOM      8  C   UNL     1      -5.066  -7.532   2.123  0.00  0.00    +0.124 A 
ATOM      9  C   UNL     1      -4.633  -6.240   1.855  0.00  0.00    +0.092 A 
ATOM     10  C   UNL     1      -3.354  -6.021   1.374  0.00  0.00    +0.139 A 
ATOM     11  O   UNL     1      -2.935  -4.759   1.120  0.00  0.00    -0.483 OA
ENDROOT
BRANCH   1  14
ATOM     12  C   UNL     1      -0.728  -1.156  -0.957  0.00  0.00    -0.002 A 
ATOM     13  C   UNL     1      -1.104  -2.486  -0.965  0.00  0.00    +0.014 A 
ATOM     14  C   UNL     1      -1.439  -3.117   0.219  0.00  0.00    -0.006 A 
ATOM     15  C   UNL     1      -1.392  -2.422   1.413  0.00  0.00    +0.011 A 
ATOM     16  C   UNL     1      -1.010  -1.095   1.427  0.00  0.00    +0.046 A 
ATOM     17  C   UNL     1      -0.674  -0.459   0.241  0.00  0.00    +0.120 A 
BRANCH  17  18
ATOM     18  O   UNL     1      -0.299   0.847   0.251  0.00  0.00    -0.506 OA
ATOM     19  H   UNL     1       0.652   0.982   0.362  0.00  0.00    +0.292 HD
ENDBRANCH  17  18
BRANCH  12  20
ATOM     20  C   UNL     1      -0.370  -0.467  -2.248  0.00  0.00    +0.066 C 
BRANCH  20  23
ATOM     21  C   UNL     1      -1.300  -0.714  -4.900  0.00  0.00    +0.038 C 
ATOM     22  C   UNL     1      -2.012   0.193  -3.930  0.00  0.00    -0.079 C 
ATOM     23  C   UNL     1      -1.541   0.357  -2.719  0.00  0.00    -0.023 C 
ATOM     24  C   UNL     1      -3.267   0.913  -4.355  0.00  0.00    +0.038 C 
ENDBRANCH  20  23
ENDBRANCH  12  20
ENDBRANCH   1  14
BRANCH   8  25
ATOM     25  O   UNL     1      -6.323  -7.735   2.593  0.00  0.00    -0.507 OA
ATOM     26  H   UNL     1      -6.389  -7.722   3.558  0.00  0.00    +0.292 HD
ENDBRANCH   8  25
BRANCH   6  27
ATOM     27  O   UNL     1      -2.120  -9.481   1.232  0.00  0.00    -0.506 OA
ATOM     28  H   UNL     1      -1.582  -9.713   2.001  0.00  0.00    +0.292 HD
ENDBRANCH   6  27
TORSDOF 6
