REMARK  Name = ZINC01578419
REMARK  4 active torsions:
REMARK  status: ('A' for Active; 'I' for Inactive)
REMARK    1  A    between atoms: C_1  and  C_2
REMARK    2  A    between atoms: C_5  and  C_8
REMARK    3  A    between atoms: C_19  and  C_21
REMARK    4  A    between atoms: C_31  and  C_33
REMARK                            x       y       z     vdW  Elec       q    Type
REMARK                         _______ _______ _______ _____ _____    ______ ____
ROOT
ATOM      1  C   UNL     1       0.239  -3.895  -0.084  0.00  0.00    +0.175 C 
ATOM      2  C   UNL     1      -1.175  -3.957  -0.613  0.00  0.00    +0.067 A 
ATOM      3  C   UNL     1      -1.430  -3.922  -1.964  0.00  0.00    +0.069 A 
ATOM      4  C   UNL     1      -2.870  -3.998  -2.124  0.00  0.00    +0.013 A 
ATOM      5  C   UNL     1      -3.704  -4.004  -3.243  0.00  0.00    +0.011 A 
ATOM      6  C   UNL     1      -5.066  -4.090  -3.009  0.00  0.00    +0.001 A 
ATOM      7  C   UNL     1      -5.584  -4.168  -1.728  0.00  0.00    +0.002 A 
ATOM      8  C   UNL     1      -4.774  -4.163  -0.604  0.00  0.00    +0.027 A 
ATOM      9  C   UNL     1      -3.401  -4.077  -0.812  0.00  0.00    +0.058 A 
ATOM     10  N   UNL     1      -2.344  -4.049   0.068  0.00  0.00    -0.277 N 
ATOM     11  C   UNL     1      -2.455  -4.107   1.410  0.00  0.00    +0.263 C 
ATOM     12  O   UNL     1      -2.656  -3.092   2.047  0.00  0.00    -0.267 OA
ATOM     13  C   UNL     1      -0.343  -3.825  -2.950  0.00  0.00    +0.263 C 
ATOM     14  O   UNL     1      -0.563  -3.586  -4.123  0.00  0.00    -0.269 OA
ATOM     15  N   UNL     1       0.919  -4.015  -2.487  0.00  0.00    -0.227 N 
ATOM     16  N   UNL     1       1.134  -4.373  -1.149  0.00  0.00    -0.203 N 
ATOM     17  C   UNL     1       2.177  -5.166  -0.833  0.00  0.00    +0.264 C 
ATOM     18  O   UNL     1       2.433  -5.398   0.333  0.00  0.00    -0.268 OA
ATOM     19  H   UNL     1       1.675  -3.903  -3.084  0.00  0.00    +0.173 HD
ENDROOT
BRANCH   1  24
ATOM     20  C   UNL     1       1.574   1.554   1.302  0.00  0.00    +0.044 C 
ATOM     21  C   UNL     1       1.226   0.133   0.941  0.00  0.00    -0.050 A 
ATOM     22  C   UNL     1       1.272  -0.276  -0.379  0.00  0.00    +0.004 A 
ATOM     23  C   UNL     1       0.958  -1.581  -0.710  0.00  0.00    +0.006 A 
ATOM     24  C   UNL     1       0.587  -2.474   0.277  0.00  0.00    -0.020 A 
ATOM     25  C   UNL     1       0.536  -2.064   1.597  0.00  0.00    +0.006 A 
ATOM     26  C   UNL     1       0.855  -0.761   1.928  0.00  0.00    +0.004 A 
ENDBRANCH   1  24
BRANCH  11  27
ATOM     27  C   UNL     1      -2.331  -5.403   2.107  0.00  0.00    +0.040 A 
ATOM     28  C   UNL     1      -2.216  -6.586   1.373  0.00  0.00    +0.013 A 
ATOM     29  C   UNL     1      -2.095  -7.793   2.030  0.00  0.00    +0.001 A 
ATOM     30  C   UNL     1      -2.099  -7.834   3.413  0.00  0.00    +0.000 A 
ATOM     31  C   UNL     1      -2.218  -6.667   4.146  0.00  0.00    +0.001 A 
ATOM     32  C   UNL     1      -2.334  -5.453   3.502  0.00  0.00    +0.013 A 
ENDBRANCH  11  27
BRANCH  17  33
ATOM     33  C   UNL     1       3.010  -5.753  -1.903  0.00  0.00    +0.038 A 
ATOM     34  C   UNL     1       2.539  -5.791  -3.217  0.00  0.00    +0.013 A 
ATOM     35  C   UNL     1       3.324  -6.337  -4.212  0.00  0.00    +0.001 A 
ATOM     36  C   UNL     1       4.570  -6.855  -3.909  0.00  0.00    +0.000 A 
ATOM     37  C   UNL     1       5.041  -6.825  -2.608  0.00  0.00    +0.001 A 
ATOM     38  C   UNL     1       4.269  -6.278  -1.604  0.00  0.00    +0.013 A 
ENDBRANCH  17  33
TORSDOF 3
