REMARK  Name = ZINC08794680
REMARK  7 active torsions:
REMARK  status: ('A' for Active; 'I' for Inactive)
REMARK    1  A    between atoms: C_1  and  C_2
REMARK    2  A    between atoms: C_5  and  S_7
REMARK    3  A    between atoms: S_7  and  C_8
REMARK    4  A    between atoms: C_8  and  C_9
REMARK    5  A    between atoms: C_9  and  N_10
REMARK    6  A    between atoms: N_18  and  C_34
REMARK    7  A    between atoms: N_25  and  C_28
REMARK                            x       y       z     vdW  Elec       q    Type
REMARK                         _______ _______ _______ _____ _____    ______ ____
ROOT
ATOM      1  N   UNL     1      -1.734  -4.918   0.005  0.00  0.00    -0.305 N 
ATOM      2  C   UNL     1      -2.541  -5.134  -1.104  0.00  0.00    +0.153 A 
ATOM      3  C   UNL     1      -2.412  -4.878  -2.480  0.00  0.00    +0.280 A 
ATOM      4  O   UNL     1      -1.404  -4.350  -2.916  0.00  0.00    -0.265 OA
ATOM      5  N   UNL     1      -3.415  -5.224  -3.313  0.00  0.00    -0.273 N 
ATOM      6  H   UNL     1      -3.326  -5.044  -4.293  0.00  0.00    +0.173 HD
ATOM      7  C   UNL     1      -4.532  -5.808  -2.847  0.00  0.00    +0.331 A 
ATOM      8  O   UNL     1      -5.416  -6.106  -3.627  0.00  0.00    -0.246 OA
ATOM      9  N   UNL     1      -4.697  -6.070  -1.536  0.00  0.00    -0.280 N 
ATOM     10  C   UNL     1      -3.702  -5.738  -0.632  0.00  0.00    +0.170 A 
ATOM     11  N   UNL     1      -3.578  -5.868   0.690  0.00  0.00    -0.196 NA
ATOM     12  C   UNL     1      -2.414  -5.392   1.083  0.00  0.00    +0.201 A 
ATOM     13  N   UNL     1      -1.960  -5.373   2.381  0.00  0.00    -0.298 N 
ATOM     14  C   UNL     1      -1.811  -6.737   2.907  0.00  0.00    +0.127 C 
ATOM     15  C   UNL     1      -1.229  -6.676   4.321  0.00  0.00    +0.124 C 
ATOM     16  N   UNL     1      -2.117  -5.878   5.179  0.00  0.00    -0.327 N 
ATOM     17  C   UNL     1      -2.266  -4.514   4.653  0.00  0.00    +0.124 C 
ATOM     18  C   UNL     1      -2.847  -4.575   3.239  0.00  0.00    +0.127 C 
ATOM     19  C   UNL     1      -5.930  -6.707  -1.067  0.00  0.00    +0.155 C 
ENDROOT
BRANCH  16  20
ATOM     20  C   UNL     1      -1.655  -5.859   6.497  0.00  0.00    +0.030 A 
ATOM     21  C   UNL     1      -1.397  -4.648   7.127  0.00  0.00    +0.023 A 
ATOM     22  C   UNL     1      -0.946  -4.633   8.432  0.00  0.00    +0.002 A 
ATOM     23  C   UNL     1      -0.740  -5.822   9.108  0.00  0.00    +0.000 A 
ATOM     24  C   UNL     1      -0.991  -7.029   8.482  0.00  0.00    +0.002 A 
ATOM     25  C   UNL     1      -1.447  -7.051   7.179  0.00  0.00    +0.023 A 
ENDBRANCH  16  20
BRANCH   1  26
ATOM     26  C   UNL     1      -0.405  -4.303   0.012  0.00  0.00    +0.136 C 
BRANCH  26  27
ATOM     27  C   UNL     1      -0.545  -2.786   0.151  0.00  0.00    +0.098 C 
BRANCH  27  28
ATOM     28  S   UNL     1       1.098  -2.026   0.159  0.00  0.00    -0.095 S 
BRANCH  28  33
ATOM     29  C   UNL     1       0.372   3.804   0.699  0.00  0.00    +0.075 C 
ATOM     30  C   UNL     1       0.338   2.303   0.568  0.00  0.00    +0.100 A 
ATOM     31  N   UNL     1      -0.690   1.480   0.532  0.00  0.00    -0.146 NA
ATOM     32  N   UNL     1      -0.548   0.232   0.417  0.00  0.00    -0.135 NA
ATOM     33  C   UNL     1       0.650  -0.330   0.324  0.00  0.00    +0.159 A 
ATOM     34  S   UNL     1       1.682   1.130   0.416  0.00  0.00    -0.044 S 
ENDBRANCH  28  33
ENDBRANCH  27  28
ENDBRANCH  26  27
ENDBRANCH   1  26
TORSDOF 5
