REMARK  Name = ZINC01871080
REMARK  10 active torsions:
REMARK  status: ('A' for Active; 'I' for Inactive)
REMARK    1  A    between atoms: C_2  and  C_3
REMARK    2  A    between atoms: C_3  and  N_51
REMARK    3  A    between atoms: C_4  and  C_5
REMARK    4  A    between atoms: C_4  and  N_51
REMARK    5  A    between atoms: C_7  and  C_8
REMARK    6  A    between atoms: C_7  and  N_51
REMARK    7  A    between atoms: C_9  and  O_31
REMARK    8  A    between atoms: C_15  and  C_27
REMARK    9  A    between atoms: C_16  and  O_19
REMARK   10  A    between atoms: O_19  and  C_20
REMARK                            x       y       z     vdW  Elec       q    Type
REMARK                         _______ _______ _______ _____ _____    ______ ____
ROOT
ATOM      1  C   UNL     1      -0.549   1.573   0.189  0.00  0.00    +0.020 A 
ATOM      2  C   UNL     1       0.409   2.554  -0.003  0.00  0.00    +0.122 A 
ATOM      3  C   UNL     1       0.078   3.902   0.121  0.00  0.00    +0.046 A 
ATOM      4  C   UNL     1      -1.198   4.274   0.433  0.00  0.00    +0.019 A 
ATOM      5  C   UNL     1      -2.175   3.297   0.629  0.00  0.00    +0.068 A 
ATOM      6  C   UNL     1      -1.852   1.935   0.501  0.00  0.00    +0.144 A 
ATOM      7  O   UNL     1      -2.803   0.999   0.698  0.00  0.00    -0.447 OA
ATOM      8  C   UNL     1      -4.067   1.315   1.006  0.00  0.00    +0.254 A 
ATOM      9  C   UNL     1      -4.487   2.588   1.148  0.00  0.00    +0.222 A 
ATOM     10  C   UNL     1      -3.563   3.656   0.967  0.00  0.00    +0.235 A 
ATOM     11  O   UNL     1      -3.907   4.821   1.088  0.00  0.00    -0.283 OA
ENDROOT
BRANCH   8  12
ATOM     12  C   UNL     1      -5.063   0.201   1.202  0.00  0.00    +0.454 C 
ATOM     13  F   UNL     1      -5.673  -0.101  -0.020  0.00  0.00    -0.163 F 
ATOM     14  F   UNL     1      -4.403  -0.934   1.686  0.00  0.00    -0.163 F 
ATOM     15  F   UNL     1      -6.037   0.602   2.123  0.00  0.00    -0.163 F 
ENDBRANCH   8  12
BRANCH   2  16
ATOM     16  O   UNL     1       1.683   2.200  -0.313  0.00  0.00    -0.506 OA
ATOM     17  H   UNL     1       1.850   2.126  -1.262  0.00  0.00    +0.292 HD
ENDBRANCH   2  16
BRANCH   1  18
ATOM     18  C   UNL     1      -0.180   0.118   0.052  0.00  0.00    -0.035 C 
BRANCH  18  19
ATOM     19  N   UNL     1       0.046  -0.445   1.400  0.00  0.00    +0.387 N 
ATOM     20  H   UNL     1      -0.755  -0.211   1.998  0.00  0.00    -0.080 HD
BRANCH  19  21
ATOM     21  C   UNL     1       0.172  -1.915   1.319  0.00  0.00    -0.051 C 
BRANCH  21  23
ATOM     22  C   UNL     1      -0.935  -3.386   2.922  0.00  0.00    +0.002 C 
ATOM     23  C   UNL     1      -0.004  -2.492   2.700  0.00  0.00    -0.053 C 
ENDBRANCH  21  23
ENDBRANCH  19  21
BRANCH  19  24
ATOM     24  C   UNL     1       1.271   0.135   1.990  0.00  0.00    -0.051 C 
BRANCH  24  25
ATOM     25  C   UNL     1       1.273  -0.144   3.471  0.00  0.00    -0.053 C 
ATOM     26  C   UNL     1       2.307  -0.726   4.026  0.00  0.00    +0.002 C 
ENDBRANCH  24  25
ENDBRANCH  19  24
ENDBRANCH  18  19
ENDBRANCH   1  18
BRANCH   9  27
ATOM     27  O   UNL     1      -5.785   2.850   1.462  0.00  0.00    -0.447 OA
BRANCH  27  28
ATOM     28  C   UNL     1      -6.668   3.013   0.442  0.00  0.00    +0.147 A 
ATOM     29  C   UNL     1      -6.237   2.917  -0.873  0.00  0.00    +0.048 A 
ATOM     30  C   UNL     1      -7.137   3.077  -1.908  0.00  0.00    +0.004 A 
ATOM     31  C   UNL     1      -8.466   3.345  -1.635  0.00  0.00    +0.002 A 
ATOM     32  C   UNL     1      -8.899   3.448  -0.326  0.00  0.00    +0.024 A 
ATOM     33  C   UNL     1      -8.003   3.283   0.714  0.00  0.00    +0.083 A 
ATOM     34 CL   UNL     1      -8.546   3.411   2.358  0.00  0.00    -0.080 Cl
ENDBRANCH  27  28
ENDBRANCH   9  27
TORSDOF 10
