REMARK  Name = ZINC09783356
REMARK  8 active torsions:
REMARK  status: ('A' for Active; 'I' for Inactive)
REMARK    1  A    between atoms: C_1  and  C_2
REMARK    2  A    between atoms: C_2  and  C_4
REMARK    3  A    between atoms: C_2  and  S_19
REMARK    4  A    between atoms: C_16  and  C_17
REMARK    5  A    between atoms: C_16  and  C_18
REMARK    6  A    between atoms: S_19  and  C_20
REMARK    7  A    between atoms: C_23  and  C_31
REMARK    8  A    between atoms: N_24  and  C_25
REMARK                            x       y       z     vdW  Elec       q    Type
REMARK                         _______ _______ _______ _____ _____    ______ ____
ROOT
ATOM      1  C   UNL     1       0.276  -1.807   4.098  0.00  0.00    +0.029 C 
ATOM      2  C   UNL     1       1.251  -0.736   3.604  0.00  0.00    +0.137 C 
ENDROOT
BRANCH   2   3
ATOM      3  C   UNL     1       0.619   0.038   2.477  0.00  0.00    +0.234 C 
ATOM      4  O   UNL     1       0.612  -0.421   1.355  0.00  0.00    -0.274 OA
ATOM      5  N   UNL     1       0.060   1.242   2.716  0.00  0.00    -0.255 N 
ATOM      6  C   UNL     1       0.061   1.798   4.005  0.00  0.00    +0.059 A 
ATOM      7  C   UNL     1       0.051   0.993   5.130  0.00  0.00    +0.025 A 
ATOM      8  C   UNL     1       0.049   1.571   6.387  0.00  0.00    +0.002 A 
ATOM      9  C   UNL     1       0.056   2.948   6.519  0.00  0.00    +0.002 A 
ATOM     10  C   UNL     1       0.067   3.757   5.399  0.00  0.00    +0.025 A 
ATOM     11  C   UNL     1       0.072   3.187   4.136  0.00  0.00    +0.055 A 
ATOM     12  N   UNL     1       0.090   3.988   2.989  0.00  0.00    -0.282 N 
ATOM     13  C   UNL     1      -0.184   3.465   1.779  0.00  0.00    +0.241 C 
ATOM     14  O   UNL     1      -0.120   4.168   0.793  0.00  0.00    -0.273 OA
ATOM     15  C   UNL     1      -0.569   2.014   1.635  0.00  0.00    +0.113 C 
ATOM     16  C   UNL     1      -0.086   1.489   0.281  0.00  0.00    +0.042 C 
ATOM     17  C   UNL     1      -2.090   1.875   1.724  0.00  0.00    +0.042 C 
ATOM     18  H   UNL     1       0.301   4.932   3.066  0.00  0.00    +0.155 HD
ENDBRANCH   2   3
BRANCH   2  19
ATOM     19  S   UNL     1       2.769  -1.527   3.016  0.00  0.00    -0.073 S 
BRANCH  19  20
ATOM     20  C   UNL     1       3.362  -2.213   4.527  0.00  0.00    +0.193 A 
ATOM     21  N   UNL     1       2.786  -2.120   5.704  0.00  0.00    -0.122 NA
ATOM     22  N   UNL     1       3.485  -2.735   6.589  0.00  0.00    -0.125 NA
ATOM     23  C   UNL     1       4.554  -3.260   6.031  0.00  0.00    +0.201 A 
ATOM     24  N   UNL     1       4.504  -2.946   4.690  0.00  0.00    -0.297 N 
BRANCH  24  25
ATOM     25  C   UNL     1       5.474  -3.318   3.657  0.00  0.00    +0.091 C 
ATOM     26  C   UNL     1       6.059  -2.052   3.028  0.00  0.00    +0.025 C 
ATOM     27  C   UNL     1       7.072  -2.439   1.949  0.00  0.00    +0.002 C 
ATOM     28  C   UNL     1       6.374  -3.270   0.870  0.00  0.00    +0.000 C 
ATOM     29  C   UNL     1       5.789  -4.536   1.499  0.00  0.00    +0.002 C 
ATOM     30  C   UNL     1       4.776  -4.148   2.578  0.00  0.00    +0.025 C 
ENDBRANCH  24  25
BRANCH  23  31
ATOM     31  C   UNL     1       5.601  -4.041   6.708  0.00  0.00    +0.172 A 
ATOM     32  C   UNL     1       5.510  -4.594   7.950  0.00  0.00    +0.053 A 
ATOM     33  C   UNL     1       6.734  -5.245   8.195  0.00  0.00    +0.042 A 
ATOM     34  C   UNL     1       7.505  -5.062   7.104  0.00  0.00    +0.196 A 
ATOM     35  O   UNL     1       6.816  -4.338   6.206  0.00  0.00    -0.460 OA
ENDBRANCH  23  31
ENDBRANCH  19  20
ENDBRANCH   2  19
TORSDOF 5
