REMARK  Name = ZINC01017334
REMARK  2 active torsions:
REMARK  status: ('A' for Active; 'I' for Inactive)
REMARK    1  A    between atoms: C_3  and  C_6
REMARK    2  A    between atoms: C_8  and  C_24
REMARK                            x       y       z     vdW  Elec       q    Type
REMARK                         _______ _______ _______ _____ _____    ______ ____
ROOT
ATOM      1  C   UNL     1       0.913   5.129   0.021  0.00  0.00    +0.079 A 
ATOM      2  C   UNL     1       2.291   5.365   0.015  0.00  0.00    +0.042 A 
ATOM      3  C   UNL     1       2.813   6.630   0.013  0.00  0.00    +0.068 A 
ATOM      4  C   UNL     1       1.872   7.696   0.027  0.00  0.00    +0.041 A 
ATOM      5  C   UNL     1       2.178   9.112   0.030  0.00  0.00    +0.058 A 
ATOM      6  C   UNL     1       1.084   9.975   0.055  0.00  0.00    +0.097 A 
ATOM      7  S   UNL     1      -0.335   8.922   0.052  0.00  0.00    -0.062 S 
ATOM      8  C   UNL     1       0.490   7.358   0.037  0.00  0.00    +0.112 A 
ATOM      9  N   UNL     1       0.025   6.129   0.034  0.00  0.00    -0.239 NA
ATOM     10  C   UNL     1       1.191  11.376   0.066  0.00  0.00    +0.254 C 
ATOM     11  O   UNL     1       0.229  12.105  -0.100  0.00  0.00    -0.270 OA
ATOM     12  N   UNL     1       2.445  11.861   0.274  0.00  0.00    -0.290 N 
ATOM     13  C   UNL     1       3.512  10.954   0.694  0.00  0.00    +0.099 C 
ATOM     14  N   UNL     1       3.471   9.662   0.006  0.00  0.00    -0.322 N 
ATOM     15  C   UNL     1       3.409  10.723   2.216  0.00  0.00    +0.045 C 
ATOM     16  C   UNL     1       4.881  10.688   2.696  0.00  0.00    +0.004 C 
ATOM     17  C   UNL     1       5.551  11.777   1.822  0.00  0.00    +0.004 C 
ATOM     18  C   UNL     1       4.876  11.624   0.444  0.00  0.00    +0.045 C 
ATOM     19  H   UNL     1       2.630  12.804   0.143  0.00  0.00    +0.151 HD
ATOM     20  H   UNL     1       3.811   9.745  -0.940  0.00  0.00    +0.148 HD
ENDROOT
BRANCH   1  23
ATOM     21  C   UNL     1      -1.081   1.916   0.017  0.00  0.00    +0.008 A 
ATOM     22  C   UNL     1      -0.866   3.275   0.028  0.00  0.00    +0.017 A 
ATOM     23  C   UNL     1       0.425   3.737   0.018  0.00  0.00    +0.038 A 
ATOM     24  S   UNL     1       1.360   2.217   0.001  0.00  0.00    -0.095 S 
ATOM     25  C   UNL     1      -0.013   1.076   0.008  0.00  0.00    +0.046 A 
ENDBRANCH   1  23
BRANCH   3  26
ATOM     26  C   UNL     1       4.299   6.878   0.001  0.00  0.00    +0.418 C 
ATOM     27  F   UNL     1       4.977   5.654  -0.011  0.00  0.00    -0.166 F 
ATOM     28  F   UNL     1       4.641   7.612  -1.140  0.00  0.00    -0.166 F 
ATOM     29  F   UNL     1       4.660   7.599   1.144  0.00  0.00    -0.166 F 
ENDBRANCH   3  26
TORSDOF 2
