REMARK  Name = ZINC27024399
REMARK  7 active torsions:
REMARK  status: ('A' for Active; 'I' for Inactive)
REMARK    1  A    between atoms: C_1  and  C_2
REMARK    2  A    between atoms: C_2  and  C_29
REMARK    3  A    between atoms: C_3  and  C_25
REMARK    4  A    between atoms: C_5  and  C_7
REMARK    5  A    between atoms: C_15  and  C_16
REMARK    6  A    between atoms: C_21  and  O_22
REMARK    7  A    between atoms: O_22  and  C_23
REMARK                            x       y       z     vdW  Elec       q    Type
REMARK                         _______ _______ _______ _____ _____    ______ ____
ROOT
ATOM      1  C   UNL     1      -2.477   1.933   1.913  0.00  0.00    +0.157 A 
ATOM      2  N   UNL     1      -2.158   1.111   2.913  0.00  0.00    -0.205 NA
ATOM      3  C   UNL     1      -3.162   0.315   3.155  0.00  0.00    +0.200 A 
ATOM      4  N   UNL     1      -4.184   0.596   2.294  0.00  0.00    -0.169 N 
ATOM      5  N   UNL     1      -3.683   1.665   1.501  0.00  0.00    -0.146 NA
ATOM      6  C   UNL     1      -5.314  -0.118   2.374  0.00  0.00    +0.288 A 
ATOM      7  O   UNL     1      -6.250   0.098   1.627  0.00  0.00    -0.265 OA
ATOM      8  C   UNL     1      -5.386  -1.173   3.395  0.00  0.00    +0.082 A 
ATOM      9  C   UNL     1      -6.400  -2.030   3.685  0.00  0.00    +0.032 C 
ATOM     10  S   UNL     1      -3.775  -1.022   4.154  0.00  0.00    -0.044 S 
ENDROOT
BRANCH   9  11
ATOM     11  C   UNL     1      -7.582  -2.087   2.816  0.00  0.00    +0.018 A 
ATOM     12  C   UNL     1      -7.435  -2.051   1.424  0.00  0.00    +0.011 A 
ATOM     13  C   UNL     1      -8.549  -2.110   0.616  0.00  0.00    +0.001 A 
ATOM     14  C   UNL     1      -9.815  -2.195   1.173  0.00  0.00    +0.004 A 
ATOM     15  C   UNL     1      -9.975  -2.226   2.545  0.00  0.00    +0.046 A 
ATOM     16  C   UNL     1      -8.867  -2.173   3.376  0.00  0.00    +0.127 A 
BRANCH  16  17
ATOM     17  O   UNL     1      -9.024  -2.203   4.724  0.00  0.00    -0.495 OA
ATOM     18  C   UNL     1     -10.361  -2.291   5.220  0.00  0.00    +0.277 C 
ENDBRANCH  16  17
ENDBRANCH   9  11
BRANCH   1  22
ATOM     19  C   UNL     1      -0.557   1.110  -0.144  0.00  0.00    +0.012 C 
ATOM     20  C   UNL     1      -0.575   2.583   0.270  0.00  0.00    -0.018 C 
ATOM     21  C   UNL     1      -1.804   3.410  -0.115  0.00  0.00    +0.031 C 
ATOM     22  C   UNL     1      -1.581   3.002   1.344  0.00  0.00    +0.072 C 
ATOM     23  C   UNL     1       0.783   3.287   0.259  0.00  0.00    +0.012 C 
BRANCH  21  24
ATOM     24  C   UNL     1      -2.904   2.711  -0.872  0.00  0.00    +0.010 C 
ATOM     25  C   UNL     1      -3.251   3.135  -2.066  0.00  0.00    +0.103 C 
ATOM     26 CL   UNL     1      -2.442   4.500  -2.771  0.00  0.00    -0.071 Cl
ATOM     27 CL   UNL     1      -4.518   2.331  -2.938  0.00  0.00    -0.071 Cl
ENDBRANCH  21  24
ENDBRANCH   1  22
TORSDOF 4
