REMARK  Name = ZINC07814683
REMARK  4 active torsions:
REMARK  status: ('A' for Active; 'I' for Inactive)
REMARK    1  A    between atoms: C_1  and  C_2
REMARK    2  A    between atoms: N_8  and  N_9
REMARK    3  A    between atoms: C_13  and  S_16
REMARK    4  A    between atoms: S_16  and  N_19
REMARK                            x       y       z     vdW  Elec       q    Type
REMARK                         _______ _______ _______ _____ _____    ______ ____
ROOT
ATOM      1  N   UNL     1       1.263  -2.051   0.011  0.00  0.00    -0.221 N 
ATOM      2  C   UNL     1       1.215  -0.678  -0.198  0.00  0.00    +0.138 A 
ATOM      3  C   UNL     1      -0.008  -0.016  -0.149  0.00  0.00    +0.047 A 
ATOM      4  C   UNL     1      -0.042   1.351  -0.359  0.00  0.00    +0.033 A 
ATOM      5  C   UNL     1       1.153   2.012  -0.611  0.00  0.00    +0.124 A 
ATOM      6  C   UNL     1       2.331   1.292  -0.646  0.00  0.00    +0.141 A 
ATOM      7  N   UNL     1       2.333  -0.012  -0.442  0.00  0.00    -0.237 NA
ATOM      8  H   UNL     1       0.447  -2.544   0.190  0.00  0.00    +0.176 HD
ENDROOT
BRANCH   1  15
ATOM      9  C   UNL     1       5.129  -6.686  -0.743  0.00  0.00    +0.008 C 
ATOM     10  C   UNL     1       3.864  -5.842  -0.910  0.00  0.00    -0.009 C 
ATOM     11  C   UNL     1       2.631  -6.732  -0.742  0.00  0.00    +0.004 C 
ATOM     12  C   UNL     1       1.363  -5.915  -0.995  0.00  0.00    +0.006 C 
ATOM     13  C   UNL     1       1.248  -4.812   0.063  0.00  0.00    +0.052 C 
ATOM     14  C   UNL     1       2.525  -4.001   0.053  0.00  0.00    +0.037 C 
ATOM     15  N   UNL     1       2.491  -2.725  -0.036  0.00  0.00    -0.190 NA
ATOM     16  C   UNL     1       3.843  -4.737   0.145  0.00  0.00    +0.055 C 
ENDBRANCH   1  15
BRANCH   5  17
ATOM     17  S   UNL     1       1.167   3.753  -0.886  0.00  0.00    +0.062 S 
ATOM     18  O   UNL     1       2.338   4.036  -1.638  0.00  0.00    -0.153 OA
ATOM     19  O   UNL     1      -0.134   4.102  -1.341  0.00  0.00    -0.153 OA
BRANCH  17  20
ATOM     20  N   UNL     1       1.363   4.480   0.589  0.00  0.00    -0.177 NA
ATOM     21  C   UNL     1       0.198   4.847   1.404  0.00  0.00    +0.109 C 
ATOM     22  C   UNL     1       0.363   4.229   2.800  0.00  0.00    +0.017 C 
ATOM     23  C   UNL     1       1.705   4.668   3.390  0.00  0.00    +0.003 C 
ATOM     24  C   UNL     1       2.845   4.163   2.502  0.00  0.00    +0.017 C 
ATOM     25  C   UNL     1       2.707   4.775   1.105  0.00  0.00    +0.109 C 
ENDBRANCH  17  20
ENDBRANCH   5  17
TORSDOF 3
