REMARK  Name = ZINC55231424
REMARK  3 active torsions:
REMARK  status: ('A' for Active; 'I' for Inactive)
REMARK    1  A    between atoms: C_1  and  O_2
REMARK    2  A    between atoms: O_2  and  C_3
REMARK    3  A    between atoms: C_6  and  C_9
REMARK                            x       y       z     vdW  Elec       q    Type
REMARK                         _______ _______ _______ _____ _____    ______ ____
ROOT
ATOM      1  C   UNL     1       2.505  -2.503  -4.381  0.00  0.00    +0.132 C 
ATOM      2  C   UNL     1       3.890  -2.929  -3.986  0.00  0.00    +0.045 A 
ATOM      3  C   UNL     1       4.417  -3.018  -2.753  0.00  0.00    +0.025 A 
ATOM      4  C   UNL     1       5.752  -3.456  -2.896  0.00  0.00    +0.020 A 
ATOM      5  C   UNL     1       5.988  -3.619  -4.218  0.00  0.00    +0.091 A 
ATOM      6  N   UNL     1       4.853  -3.303  -4.883  0.00  0.00    -0.318 N 
ATOM      7  C   UNL     1       4.570  -3.318  -6.260  0.00  0.00    +0.054 A 
ATOM      8  C   UNL     1       5.441  -2.797  -7.197  0.00  0.00    +0.076 A 
ATOM      9  C   UNL     1       5.078  -2.784  -8.535  0.00  0.00    +0.168 A 
ATOM     10  C   UNL     1       3.840  -3.293  -8.924  0.00  0.00    +0.167 A 
ATOM     11  C   UNL     1       2.981  -3.834  -7.979  0.00  0.00    +0.056 A 
ATOM     12  C   UNL     1       3.354  -3.872  -6.651  0.00  0.00    -0.006 A 
ATOM     13  C   UNL     1       2.518  -4.579  -5.628  0.00  0.00    +0.119 C 
ATOM     14  N   UNL     1       1.709  -3.673  -4.795  0.00  0.00    -0.300 NA
ATOM     15  O   UNL     1       3.715  -3.146 -10.276  0.00  0.00    -0.453 OA
ATOM     16  C   UNL     1       4.718  -2.185 -10.655  0.00  0.00    +0.466 C 
ATOM     17  O   UNL     1       5.733  -2.335  -9.644  0.00  0.00    -0.453 OA
ATOM     18  H   UNL     1       1.333  -4.157  -3.993  0.00  0.00    +0.123 HD
ENDROOT
BRANCH   1  22
ATOM     19  C   UNL     1       0.606  -0.607  -1.056  0.00  0.00    +0.120 A 
ATOM     20  C   UNL     1       1.173   0.161  -2.062  0.00  0.00    +0.046 A 
ATOM     21  C   UNL     1       1.786  -0.455  -3.136  0.00  0.00    +0.009 A 
ATOM     22  C   UNL     1       1.835  -1.835  -3.209  0.00  0.00    -0.024 A 
ATOM     23  C   UNL     1       1.270  -2.602  -2.207  0.00  0.00    +0.009 A 
ATOM     24  C   UNL     1       0.661  -1.992  -1.128  0.00  0.00    +0.046 A 
BRANCH  19  26
ATOM     25  C   UNL     1      -0.017   1.425   0.010  0.00  0.00    +0.277 C 
ATOM     26  O   UNL     1       0.002  -0.004   0.002  0.00  0.00    -0.495 OA
ENDBRANCH  19  26
ENDBRANCH   1  22
TORSDOF 2
