REMARK  Name = ZINC36579089
REMARK  14 active torsions:
REMARK  status: ('A' for Active; 'I' for Inactive)
REMARK    1  A    between atoms: C_1  and  C_2
REMARK    2  A    between atoms: C_2  and  C_3
REMARK    3  A    between atoms: C_2  and  C_4
REMARK    4  A    between atoms: C_2  and  N_5
REMARK    5  A    between atoms: C_6  and  C_8
REMARK    6  A    between atoms: C_8  and  C_10
REMARK    7  A    between atoms: C_8  and  N_16
REMARK    8  A    between atoms: N_16  and  C_33
REMARK    9  A    between atoms: C_17  and  C_19
REMARK   10  A    between atoms: C_19  and  C_27
REMARK   11  A    between atoms: C_20  and  C_21
REMARK   12  A    between atoms: C_33  and  C_34
REMARK   13  A    between atoms: C_33  and  C_35
REMARK   14  A    between atoms: C_33  and  C_36
REMARK                            x       y       z     vdW  Elec       q    Type
REMARK                         _______ _______ _______ _____ _____    ______ ____
ROOT
ATOM      1  N   UNL     1       4.081  -0.551  -1.615  0.00  0.00    -0.281 N 
ATOM      2  C   UNL     1       4.699  -1.089  -2.685  0.00  0.00    +0.248 C 
ATOM      3  O   UNL     1       4.270  -2.112  -3.183  0.00  0.00    -0.270 OA
ENDROOT
BRANCH   1   4
ATOM      4  C   UNL     1       4.523   0.743  -1.088  0.00  0.00    +0.030 C 
ATOM      5  C   UNL     1       3.892   0.977   0.286  0.00  0.00    +0.031 C 
ATOM      6  C   UNL     1       6.047   0.747  -0.957  0.00  0.00    +0.031 C 
ATOM      7  C   UNL     1       4.091   1.857  -2.045  0.00  0.00    +0.031 C 
ENDBRANCH   1   4
BRANCH   2   8
ATOM      8  C   UNL     1       5.892  -0.439  -3.250  0.00  0.00    +0.045 C 
ATOM      9  C   UNL     1       5.754   0.618  -4.095  0.00  0.00    +0.021 C 
BRANCH   9  10
ATOM     10  C   UNL     1       4.452   0.898  -4.714  0.00  0.00    -0.024 A 
ATOM     11  C   UNL     1       4.087   2.215  -5.018  0.00  0.00    +0.008 A 
ATOM     12  C   UNL     1       2.863   2.470  -5.599  0.00  0.00    +0.001 A 
ATOM     13  C   UNL     1       1.996   1.428  -5.882  0.00  0.00    +0.000 A 
ATOM     14  C   UNL     1       2.349   0.124  -5.584  0.00  0.00    +0.001 A 
ATOM     15  C   UNL     1       3.572  -0.149  -5.008  0.00  0.00    +0.008 A 
ENDBRANCH   9  10
BRANCH   8  16
ATOM     16  C   UNL     1       7.242  -0.935  -2.899  0.00  0.00    -0.013 A 
ATOM     17  C   UNL     1       7.519  -2.302  -2.941  0.00  0.00    +0.008 A 
ATOM     18  C   UNL     1       8.779  -2.758  -2.613  0.00  0.00    +0.001 A 
ATOM     19  C   UNL     1       9.767  -1.864  -2.243  0.00  0.00    +0.000 A 
ATOM     20  C   UNL     1       9.499  -0.507  -2.199  0.00  0.00    +0.001 A 
ATOM     21  C   UNL     1       8.244  -0.038  -2.531  0.00  0.00    +0.008 A 
ENDBRANCH   8  16
ENDBRANCH   2   8
BRANCH   1  22
ATOM     22  C   UNL     1       2.969  -1.260  -0.977  0.00  0.00    +0.166 C 
BRANCH  22  23
ATOM     23  C   UNL     1       3.499  -2.506  -0.265  0.00  0.00    +0.019 C 
ATOM     24  C   UNL     1       4.440  -2.086   0.866  0.00  0.00    +0.006 C 
ATOM     25  C   UNL     1       4.970  -3.332   1.577  0.00  0.00    +0.000 C 
ATOM     26  C   UNL     1       5.732  -4.205   0.578  0.00  0.00    +0.000 C 
ATOM     27  C   UNL     1       4.791  -4.625  -0.553  0.00  0.00    +0.000 C 
ATOM     28  C   UNL     1       4.261  -3.379  -1.265  0.00  0.00    +0.006 C 
ENDBRANCH  22  23
BRANCH  22  30
ATOM     29  N   UNL     1       0.923  -2.453  -1.692  0.00  0.00    -0.309 N 
ATOM     30  C   UNL     1       1.967  -1.669  -2.026  0.00  0.00    +0.234 C 
ATOM     31  O   UNL     1       2.100  -1.292  -3.171  0.00  0.00    -0.274 OA
ATOM     32  H   UNL     1       0.775  -2.693  -0.764  0.00  0.00    +0.149 HD
BRANCH  29  34
ATOM     33  C   UNL     1       0.790  -3.808  -3.724  0.00  0.00    +0.031 C 
ATOM     34  C   UNL     1       0.012  -2.942  -2.730  0.00  0.00    +0.026 C 
ATOM     35  C   UNL     1      -0.608  -1.753  -3.465  0.00  0.00    +0.031 C 
ATOM     36  C   UNL     1      -1.095  -3.777  -2.084  0.00  0.00    +0.031 C 
ENDBRANCH  29  34
ENDBRANCH  22  30
ENDBRANCH   1  22
TORSDOF 8
