REMARK  Name = ZINC00459880
REMARK  4 active torsions:
REMARK  status: ('A' for Active; 'I' for Inactive)
REMARK    1  A    between atoms: C_1  and  C_2
REMARK    2  A    between atoms: C_2  and  C_25
REMARK    3  A    between atoms: C_11  and  C_16
REMARK    4  A    between atoms: C_21  and  N_22
REMARK                            x       y       z     vdW  Elec       q    Type
REMARK                         _______ _______ _______ _____ _____    ______ ____
ROOT
ATOM      1  C   UNL     1      -1.525   6.399   3.093  0.00  0.00    +0.031 C 
ATOM      2  C   UNL     1      -0.492   6.108   2.003  0.00  0.00    +0.121 C 
ATOM      3  C   UNL     1      -0.115   4.638   2.026  0.00  0.00    +0.159 C 
ATOM      4  O   UNL     1      -0.366   3.941   2.979  0.00  0.00    -0.296 OA
ATOM      5  C   UNL     1       0.589   4.081   0.808  0.00  0.00    +0.071 C 
ATOM      6  C   UNL     1       1.992   4.678   0.714  0.00  0.00    +0.018 C 
ATOM      7  C   UNL     1       2.790   4.308   1.966  0.00  0.00    +0.001 C 
ATOM      8  C   UNL     1       2.885   2.785   2.078  0.00  0.00    +0.000 C 
ATOM      9  C   UNL     1       1.478   2.191   2.176  0.00  0.00    +0.001 C 
ATOM     10  C   UNL     1       0.680   2.560   0.924  0.00  0.00    +0.018 C 
ATOM     11  C   UNL     1      -0.217   4.457  -0.439  0.00  0.00    +0.222 C 
ATOM     12  O   UNL     1      -0.456   5.892  -0.444  0.00  0.00    -0.455 OA
ATOM     13  C   UNL     1      -1.087   6.395   0.638  0.00  0.00    +0.321 C 
ATOM     14  O   UNL     1      -2.093   7.053   0.523  0.00  0.00    -0.250 OA
ATOM     15  C   UNL     1       0.754   6.970   2.220  0.00  0.00    +0.031 C 
ENDROOT
BRANCH  11  16
ATOM     16  C   UNL     1      -1.535   3.727  -0.425  0.00  0.00    +0.024 A 
ATOM     17  C   UNL     1      -2.016   3.191   0.755  0.00  0.00    +0.009 A 
ATOM     18  C   UNL     1      -3.222   2.517   0.767  0.00  0.00    +0.001 A 
ATOM     19  C   UNL     1      -3.951   2.383  -0.400  0.00  0.00    +0.002 A 
ATOM     20  C   UNL     1      -3.474   2.924  -1.579  0.00  0.00    +0.033 A 
ATOM     21  C   UNL     1      -2.267   3.599  -1.591  0.00  0.00    +0.133 A 
BRANCH  21  22
ATOM     22  N   UNL     1      -1.755   4.178  -2.853  0.00  0.00    +0.057 N 
ATOM     23  O   UNL     1      -2.340   3.969  -3.901  0.00  0.00    -0.126 OA
ATOM     24  O   UNL     1      -0.751   4.868  -2.844  0.00  0.00    -0.126 OA
ENDBRANCH  21  22
ENDBRANCH  11  16
TORSDOF 2
