REMARK  Name = ZINC38039592
REMARK  3 active torsions:
REMARK  status: ('A' for Active; 'I' for Inactive)
REMARK    1  A    between atoms: C_3  and  N_18
REMARK    2  A    between atoms: C_4  and  S_8
REMARK    3  A    between atoms: S_8  and  N_11
REMARK                            x       y       z     vdW  Elec       q    Type
REMARK                         _______ _______ _______ _____ _____    ______ ____
ROOT
ATOM      1  C   UNL     1      -0.458   1.397   0.414  0.00  0.00    +0.017 A 
ATOM      2  C   UNL     1       0.129   0.733   1.475  0.00  0.00    +0.036 A 
ATOM      3  C   UNL     1       1.374   0.153   1.323  0.00  0.00    +0.152 A 
ATOM      4  C   UNL     1       2.034   0.237   0.111  0.00  0.00    +0.137 A 
ATOM      5  C   UNL     1       1.448   0.901  -0.950  0.00  0.00    +0.046 A 
ATOM      6  C   UNL     1       0.201   1.481  -0.799  0.00  0.00    +0.020 A 
ATOM      7 BR   UNL     1      -0.601   2.389  -2.251  0.00  0.00    -0.050 Br
ENDROOT
BRANCH   4   8
ATOM      8  S   UNL     1       3.622  -0.502  -0.081  0.00  0.00    +0.063 S 
ATOM      9  O   UNL     1       4.436   0.008   0.966  0.00  0.00    -0.153 OA
ATOM     10  O   UNL     1       3.403  -1.893  -0.267  0.00  0.00    -0.153 OA
BRANCH   8  11
ATOM     11  N   UNL     1       4.260   0.070  -1.498  0.00  0.00    -0.177 NA
ATOM     12  C   UNL     1       3.915  -0.597  -2.733  0.00  0.00    +0.109 C 
ATOM     13  C   UNL     1       4.927  -1.736  -3.009  0.00  0.00    +0.017 C 
ATOM     14  C   UNL     1       6.234  -1.177  -3.388  0.00  0.00    +0.001 C 
ATOM     15  C   UNL     1       6.897  -0.337  -2.302  0.00  0.00    +0.001 C 
ATOM     16  C   UNL     1       6.376   1.077  -2.375  0.00  0.00    +0.017 C 
ATOM     17  C   UNL     1       5.153   1.244  -1.448  0.00  0.00    +0.109 C 
ENDBRANCH   8  11
ENDBRANCH   4   8
BRANCH   3  18
ATOM     18  N   UNL     1       2.002  -0.558   2.460  0.00  0.00    +0.058 N 
ATOM     19  O   UNL     1       1.488  -0.523   3.553  0.00  0.00    -0.126 OA
ATOM     20  O   UNL     1       3.030  -1.173   2.294  0.00  0.00    -0.126 OA
ENDBRANCH   3  18
TORSDOF 3
