REMARK  Name = ZINC09581681
REMARK  11 active torsions:
REMARK  status: ('A' for Active; 'I' for Inactive)
REMARK    1  A    between atoms: C_1  and  C_2
REMARK    2  A    between atoms: C_2  and  O_3
REMARK    3  A    between atoms: O_3  and  C_4
REMARK    4  A    between atoms: C_4  and  C_6
REMARK    5  A    between atoms: C_6  and  C_7
REMARK    6  A    between atoms: C_7  and  N_8
REMARK    7  A    between atoms: C_12  and  S_31
REMARK    8  A    between atoms: N_17  and  C_18
REMARK    9  A    between atoms: C_18  and  C_20
REMARK   10  A    between atoms: C_20  and  C_21
REMARK   11  A    between atoms: S_31  and  N_34
REMARK                            x       y       z     vdW  Elec       q    Type
REMARK                         _______ _______ _______ _____ _____    ______ ____
ROOT
ATOM      1  N   UNL     1       5.836  -4.325   3.271  0.00  0.00    -0.321 N 
ATOM      2  C   UNL     1       6.141  -4.362   4.619  0.00  0.00    +0.058 A 
ATOM      3  C   UNL     1       7.263  -4.930   5.242  0.00  0.00    +0.029 A 
ATOM      4  C   UNL     1       7.411  -4.876   6.608  0.00  0.00    +0.030 A 
ATOM      5  C   UNL     1       6.462  -4.263   7.409  0.00  0.00    +0.106 A 
ATOM      6  C   UNL     1       5.346  -3.695   6.820  0.00  0.00    +0.045 A 
ATOM      7  C   UNL     1       5.198  -3.748   5.455  0.00  0.00    +0.041 A 
ATOM      8  S   UNL     1       3.967  -3.161   4.317  0.00  0.00    -0.052 S 
ATOM      9  C   UNL     1       4.693  -3.725   2.847  0.00  0.00    +0.166 A 
ATOM     10  N   UNL     1       4.241  -3.596   1.601  0.00  0.00    -0.156 NA
ENDROOT
BRANCH   5  11
ATOM     11  S   UNL     1       6.674  -4.206   9.157  0.00  0.00    +0.056 S 
ATOM     12  O   UNL     1       8.068  -4.331   9.402  0.00  0.00    -0.153 OA
ATOM     13  O   UNL     1       5.915  -3.098   9.622  0.00  0.00    -0.153 OA
BRANCH  11  14
ATOM     14  N   UNL     1       5.960  -5.564   9.781  0.00  0.00    -0.204 NA
ATOM     15  H   UNL     1       6.303  -5.960  10.598  0.00  0.00    +0.144 HD
ATOM     16  H   UNL     1       5.200  -5.963   9.330  0.00  0.00    +0.144 HD
ENDBRANCH  11  14
ENDBRANCH   5  11
BRANCH  10  17
ATOM     17  C   UNL     1       3.090  -2.972   1.373  0.00  0.00    +0.243 C 
ATOM     18  O   UNL     1       2.450  -2.519   2.302  0.00  0.00    -0.273 OA
BRANCH  17  19
ATOM     19  C   UNL     1       2.579  -2.826  -0.037  0.00  0.00    +0.133 C 
BRANCH  19  20
ATOM     20  C   UNL     1       1.266  -2.087  -0.021  0.00  0.00    -0.031 A 
ATOM     21  C   UNL     1       0.092  -2.776  -0.015  0.00  0.00    +0.005 A 
ATOM     22  C   UNL     1      -1.131  -2.110   0.001  0.00  0.00    +0.001 A 
ATOM     23  C   UNL     1      -1.188  -0.750   0.009  0.00  0.00    +0.008 A 
ATOM     24  C   UNL     1       0.002  -0.004   0.002  0.00  0.00    -0.018 A 
ATOM     25  C   UNL     1       1.247  -0.682  -0.013  0.00  0.00    -0.014 A 
ATOM     26  C   UNL     1       2.438   0.064  -0.021  0.00  0.00    +0.009 A 
ATOM     27  C   UNL     1       2.380   1.424  -0.013  0.00  0.00    +0.001 A 
ATOM     28  C   UNL     1       1.156   2.091   0.002  0.00  0.00    +0.001 A 
ATOM     29  C   UNL     1      -0.017   1.401   0.010  0.00  0.00    +0.008 A 
ENDBRANCH  19  20
ENDBRANCH  17  19
ENDBRANCH  10  17
BRANCH   1  30
ATOM     30  C   UNL     1       6.747  -4.934   2.298  0.00  0.00    +0.135 C 
BRANCH  30  31
ATOM     31  C   UNL     1       7.768  -3.894   1.834  0.00  0.00    +0.142 C 
BRANCH  31  32
ATOM     32  C   UNL     1       8.705  -4.520   0.833  0.00  0.00    +0.309 C 
ATOM     33  O   UNL     1       8.569  -5.680   0.523  0.00  0.00    -0.251 OA
BRANCH  32  34
ATOM     34  O   UNL     1       9.689  -3.790   0.287  0.00  0.00    -0.465 OA
BRANCH  34  36
ATOM     35  C   UNL     1      11.607  -3.474  -1.180  0.00  0.00    +0.048 C 
ATOM     36  C   UNL     1      10.553  -4.459  -0.669  0.00  0.00    +0.229 C 
ENDBRANCH  34  36
ENDBRANCH  32  34
ENDBRANCH  31  32
ENDBRANCH  30  31
ENDBRANCH   1  30
TORSDOF 10
