REMARK  Name = ZINC06951076
REMARK  8 active torsions:
REMARK  status: ('A' for Active; 'I' for Inactive)
REMARK    1  A    between atoms: C_1  and  C_2
REMARK    2  A    between atoms: C_2  and  C_3
REMARK    3  A    between atoms: C_2  and  C_4
REMARK    4  A    between atoms: C_2  and  C_10
REMARK    5  A    between atoms: C_13  and  O_16
REMARK    6  A    between atoms: O_16  and  C_17
REMARK    7  A    between atoms: C_17  and  C_18
REMARK    8  A    between atoms: N_20  and  N_21
REMARK                            x       y       z     vdW  Elec       q    Type
REMARK                         _______ _______ _______ _____ _____    ______ ____
ROOT
ATOM      1  C   UNL     1       4.087  -1.502  -4.704  0.00  0.00    +0.326 C 
ENDROOT
BRANCH   1   2
ATOM      2  C   UNL     1       4.634  -2.065  -5.990  0.00  0.00    +0.270 C 
ATOM      3  O   UNL     1       3.906  -2.675  -6.744  0.00  0.00    -0.270 OA
ATOM      4  N   UNL     1       5.933  -1.890  -6.304  0.00  0.00    -0.203 N 
ATOM      5  H   UNL     1       6.516  -1.401  -5.701  0.00  0.00    +0.177 HD
BRANCH   4   6
ATOM      6  N   UNL     1       6.442  -2.413  -7.500  0.00  0.00    -0.174 NA
ATOM      7  C   UNL     1       7.705  -2.242  -7.804  0.00  0.00    +0.152 C 
ATOM      8  C   UNL     1       8.413  -2.715  -9.017  0.00  0.00    +0.028 A 
ATOM      9  C   UNL     1       8.007  -3.433 -10.137  0.00  0.00    +0.012 A 
ATOM     10  C   UNL     1       8.921  -3.729 -11.128  0.00  0.00    +0.001 A 
ATOM     11  C   UNL     1      10.236  -3.312 -11.006  0.00  0.00    +0.002 A 
ATOM     12  C   UNL     1      10.648  -2.599  -9.899  0.00  0.00    +0.024 A 
ATOM     13  C   UNL     1       9.742  -2.291  -8.890  0.00  0.00    +0.043 A 
ATOM     14  N   UNL     1       9.892  -1.599  -7.693  0.00  0.00    -0.280 N 
ATOM     15  C   UNL     1       8.733  -1.532  -7.016  0.00  0.00    +0.269 C 
ATOM     16  O   UNL     1       8.561  -0.985  -5.943  0.00  0.00    -0.268 OA
ATOM     17  H   UNL     1      10.726  -1.211  -7.388  0.00  0.00    +0.155 HD
ENDBRANCH   4   6
ENDBRANCH   1   2
BRANCH   1  18
ATOM     18  O   UNL     1       2.697  -1.817  -4.600  0.00  0.00    -0.483 OA
BRANCH  18  22
ATOM     19  C   UNL     1       0.723  -0.489  -1.229  0.00  0.00    -0.037 A 
ATOM     20  C   UNL     1       0.037  -1.204  -2.194  0.00  0.00    +0.008 A 
ATOM     21  C   UNL     1       0.696  -1.649  -3.324  0.00  0.00    +0.046 A 
ATOM     22  C   UNL     1       2.046  -1.379  -3.490  0.00  0.00    +0.121 A 
ATOM     23  C   UNL     1       2.732  -0.661  -2.521  0.00  0.00    +0.046 A 
ATOM     24  C   UNL     1       2.068  -0.213  -1.395  0.00  0.00    +0.008 A 
BRANCH  19  26
ATOM     25  C   UNL     1      -1.120   0.953  -0.407  0.00  0.00    +0.021 C 
ATOM     26  C   UNL     1       0.002  -0.004   0.002  0.00  0.00    +0.015 C 
ATOM     27  C   UNL     1       0.988   0.727   0.915  0.00  0.00    +0.021 C 
BRANCH  26  28
ATOM     28  C   UNL     1      -0.585  -1.182   0.737  0.00  0.00    -0.037 A 
ATOM     29  C   UNL     1       0.225  -2.238   1.108  0.00  0.00    +0.004 A 
ATOM     30  C   UNL     1      -0.313  -3.318   1.782  0.00  0.00    +0.000 A 
ATOM     31  C   UNL     1      -1.662  -3.342   2.085  0.00  0.00    +0.000 A 
ATOM     32  C   UNL     1      -2.472  -2.285   1.714  0.00  0.00    +0.000 A 
ATOM     33  C   UNL     1      -1.933  -1.202   1.044  0.00  0.00    +0.004 A 
ENDBRANCH  26  28
ENDBRANCH  19  26
ENDBRANCH  18  22
ENDBRANCH   1  18
TORSDOF 6
