REMARK  Name = ZINC02703199
REMARK  9 active torsions:
REMARK  status: ('A' for Active; 'I' for Inactive)
REMARK    1  A    between atoms: C_1  and  C_2
REMARK    2  A    between atoms: C_2  and  C_3
REMARK    3  A    between atoms: C_2  and  C_4
REMARK    4  A    between atoms: C_4  and  N_36
REMARK    5  A    between atoms: CA_5  and  C_7
REMARK    6  A    between atoms: CA_5  and  C_19
REMARK    7  A    between atoms: CA_5  and  N_36
REMARK    8  A    between atoms: C_7  and  C_8
REMARK    9  A    between atoms: N_10  and  C_11
REMARK                            x       y       z     vdW  Elec       q    Type
REMARK                         _______ _______ _______ _____ _____    ______ ____
ROOT
ATOM      1  C   UNL     1      -1.917   0.548  -1.476  0.00  0.00    +0.091 C 
ENDROOT
BRANCH   1   2
ATOM      2  C   UNL     1      -1.317  -0.747  -1.960  0.00  0.00    +0.216 C 
ATOM      3  O   UNL     1      -0.112  -0.870  -2.026  0.00  0.00    -0.276 OA
ATOM      4  N   UNL     1      -2.119  -1.769  -2.318  0.00  0.00    -0.284 N 
ATOM      5  H   UNL     1      -3.078  -1.701  -2.190  0.00  0.00    +0.155 HD
BRANCH   4   6
ATOM      6  C   UNL     1      -1.568  -2.929  -2.876  0.00  0.00    +0.052 A 
ATOM      7  C   UNL     1      -0.345  -2.873  -3.530  0.00  0.00    +0.026 A 
ATOM      8  C   UNL     1       0.197  -4.019  -4.080  0.00  0.00    +0.022 A 
ATOM      9  C   UNL     1      -0.479  -5.222  -3.979  0.00  0.00    +0.042 A 
ATOM     10  C   UNL     1      -1.699  -5.282  -3.329  0.00  0.00    +0.041 A 
ATOM     11  C   UNL     1      -2.243  -4.140  -2.772  0.00  0.00    +0.064 A 
ATOM     12 CL   UNL     1      -3.769  -4.216  -1.949  0.00  0.00    -0.082 Cl
ATOM     13 CL   UNL     1       0.204  -6.660  -4.672  0.00  0.00    -0.083 Cl
ENDBRANCH   4   6
ENDBRANCH   1   2
BRANCH   1  14
ATOM     14  CA  UNL     1      -0.797   1.533  -1.136  0.00  0.00    +0.052 C 
BRANCH  14  15
ATOM     15  C   UNL     1      -1.395   2.867  -0.770  0.00  0.00    +0.343 C 
ATOM     16  O   UNL     1      -1.194   3.340   0.324  0.00  0.00    -0.248 OA
ATOM     17  OXT UNL     1      -2.151   3.530  -1.659  0.00  0.00    -0.248 OA
ENDBRANCH  14  15
BRANCH  14  18
ATOM     18  N   UNL     1      -0.022   1.011   0.006  0.00  0.00    +0.389 N 
ATOM     19  H1  UNL     1      -0.486   1.280   0.881  0.00  0.00    -0.085 HD
ATOM     20  H2  UNL     1       0.024  -0.013  -0.056  0.00  0.00    -0.085 HD
BRANCH  18  21
ATOM     21  C   UNL     1       1.346   1.561  -0.009  0.00  0.00    -0.079 C 
BRANCH  21  23
ATOM     22  C   UNL     1       3.580   1.469   1.107  0.00  0.00    +0.005 C 
ATOM     23  C   UNL     1       2.124   1.003   1.184  0.00  0.00    -0.034 C 
ATOM     24  C   UNL     1       1.495   1.507   2.484  0.00  0.00    +0.005 C 
ENDBRANCH  21  23
ENDBRANCH  18  21
ENDBRANCH  14  18
ENDBRANCH   1  14
TORSDOF 7
