REMARK  Name = ZINC14879198
REMARK  4 active torsions:
REMARK  status: ('A' for Active; 'I' for Inactive)
REMARK    1  A    between atoms: C_1  and  C_2
REMARK    2  A    between atoms: C_16  and  C_18
REMARK    3  A    between atoms: N_20  and  C_21
REMARK    4  A    between atoms: C_21  and  C_24
REMARK                            x       y       z     vdW  Elec       q    Type
REMARK                         _______ _______ _______ _____ _____    ______ ____
ROOT
ATOM      1  C   UNL     1      -4.046   2.590   5.099  0.00  0.00    +0.066 C 
ATOM      2  C   UNL     1      -3.936   2.857   3.620  0.00  0.00    +0.051 A 
ATOM      3  C   UNL     1      -4.650   3.915   3.025  0.00  0.00    +0.022 A 
ATOM      4  C   UNL     1      -5.486   4.759   3.768  0.00  0.00    +0.012 A 
ATOM      5  C   UNL     1      -6.153   5.767   3.139  0.00  0.00    +0.001 A 
ATOM      6  C   UNL     1      -6.015   5.971   1.768  0.00  0.00    +0.002 A 
ATOM      7  C   UNL     1      -5.211   5.169   1.015  0.00  0.00    +0.028 A 
ATOM      8  C   UNL     1      -4.509   4.121   1.628  0.00  0.00    +0.076 A 
ATOM      9  N   UNL     1      -3.701   3.308   0.935  0.00  0.00    -0.214 NA
ATOM     10  C   UNL     1      -3.061   2.330   1.547  0.00  0.00    +0.219 A 
ATOM     11  N   UNL     1      -3.170   2.108   2.855  0.00  0.00    -0.219 NA
ATOM     12  N   UNL     1      -2.239   1.506   0.800  0.00  0.00    -0.288 N 
ATOM     13  C   UNL     1      -0.823   1.617   1.249  0.00  0.00    +0.109 C 
ATOM     14  C   UNL     1      -0.028   1.088   0.029  0.00  0.00    +0.021 C 
ATOM     15  C   UNL     1      -0.832   1.630  -1.175  0.00  0.00    +0.033 C 
ATOM     16  C   UNL     1      -2.244   1.903  -0.625  0.00  0.00    +0.162 C 
ENDROOT
BRANCH  16  17
ATOM     17  C   UNL     1      -3.258   1.088  -1.386  0.00  0.00    +0.234 C 
ATOM     18  O   UNL     1      -3.931   0.263  -0.805  0.00  0.00    -0.274 OA
ATOM     19  N   UNL     1      -3.416   1.275  -2.711  0.00  0.00    -0.304 N 
ATOM     20  H   UNL     1      -2.929   1.982  -3.162  0.00  0.00    +0.150 HD
BRANCH  19  21
ATOM     21  C   UNL     1      -4.325   0.412  -3.470  0.00  0.00    +0.060 C 
ATOM     22  C   UNL     1      -5.296   1.088  -4.440  0.00  0.00    +0.033 C 
ATOM     23  C   UNL     1      -5.815   0.486  -3.132  0.00  0.00    +0.033 C 
BRANCH  21  24
ATOM     24  C   UNL     1      -3.767  -0.931  -3.865  0.00  0.00    -0.024 A 
ATOM     25  C   UNL     1      -2.511  -1.312  -3.431  0.00  0.00    +0.006 A 
ATOM     26  C   UNL     1      -2.001  -2.546  -3.791  0.00  0.00    +0.000 A 
ATOM     27  C   UNL     1      -2.742  -3.394  -4.592  0.00  0.00    +0.000 A 
ATOM     28  C   UNL     1      -3.996  -3.010  -5.031  0.00  0.00    +0.000 A 
ATOM     29  C   UNL     1      -4.508  -1.778  -4.667  0.00  0.00    +0.006 A 
ENDBRANCH  21  24
ENDBRANCH  19  21
ENDBRANCH  16  17
TORSDOF 3
