REMARK  Name = ZINC01423135
REMARK  7 active torsions:
REMARK  status: ('A' for Active; 'I' for Inactive)
REMARK    1  A    between atoms: C_1  and  C_2
REMARK    2  A    between atoms: C_2  and  O_3
REMARK    3  A    between atoms: O_3  and  C_4
REMARK    4  A    between atoms: C_4  and  C_6
REMARK    5  A    between atoms: C_7  and  C_21
REMARK    6  A    between atoms: C_12  and  C_14
REMARK    7  A    between atoms: C_21  and  N_22
REMARK                            x       y       z     vdW  Elec       q    Type
REMARK                         _______ _______ _______ _____ _____    ______ ____
ROOT
ATOM      1  C   UNL     1      -2.795  -2.408   0.110  0.00  0.00    +0.080 C 
ATOM      2  C   UNL     1      -2.985  -3.731  -0.085  0.00  0.00    +0.044 C 
ATOM      3  N   UNL     1      -4.241  -4.258  -0.170  0.00  0.00    -0.271 N 
ATOM      4  C   UNL     1      -5.360  -3.529  -0.072  0.00  0.00    +0.304 C 
ATOM      5  O   UNL     1      -6.436  -4.088  -0.161  0.00  0.00    -0.252 OA
ATOM      6  N   UNL     1      -5.333  -2.196   0.123  0.00  0.00    -0.288 N 
ATOM      7  C   UNL     1      -4.024  -1.530   0.236  0.00  0.00    +0.144 C 
ATOM      8  H   UNL     1      -4.329  -5.213  -0.311  0.00  0.00    +0.156 HD
ATOM      9  H   UNL     1      -6.156  -1.687   0.191  0.00  0.00    +0.151 HD
ENDROOT
BRANCH   7  10
ATOM     10  C   UNL     1      -3.952  -0.473  -0.836  0.00  0.00    -0.022 A 
ATOM     11  C   UNL     1      -4.326  -0.776  -2.131  0.00  0.00    +0.007 A 
ATOM     12  C   UNL     1      -4.260   0.193  -3.115  0.00  0.00    +0.020 A 
ATOM     13  C   UNL     1      -3.819   1.466  -2.802  0.00  0.00    +0.041 A 
ATOM     14  C   UNL     1      -3.445   1.769  -1.505  0.00  0.00    +0.020 A 
ATOM     15  C   UNL     1      -3.517   0.801  -0.521  0.00  0.00    +0.007 A 
ATOM     16 CL   UNL     1      -3.736   2.684  -4.036  0.00  0.00    -0.084 Cl
ENDBRANCH   7  10
BRANCH   1  17
ATOM     17  C   UNL     1      -1.494  -1.861   0.200  0.00  0.00    +0.339 C 
ATOM     18  O   UNL     1      -1.032  -1.563   1.285  0.00  0.00    -0.245 OA
BRANCH  17  19
ATOM     19  O   UNL     1      -0.764  -1.669  -0.919  0.00  0.00    -0.462 OA
BRANCH  19  21
ATOM     20  C   UNL     1       1.212  -0.970  -2.123  0.00  0.00    +0.048 C 
ATOM     21  C   UNL     1       0.542  -1.113  -0.755  0.00  0.00    +0.229 C 
ENDBRANCH  19  21
ENDBRANCH  17  19
ENDBRANCH   1  17
BRANCH   2  22
ATOM     22  C   UNL     1      -1.789  -4.640  -0.210  0.00  0.00    +0.174 C 
BRANCH  22  23
ATOM     23  N   UNL     1      -1.490  -5.235   1.095  0.00  0.00    -0.324 N 
ATOM     24  C   UNL     1      -0.594  -4.769   2.007  0.00  0.00    +0.200 A 
ATOM     25  N   UNL     1      -0.582  -5.540   3.055  0.00  0.00    -0.236 NA
ATOM     26  C   UNL     1      -1.469  -6.554   2.887  0.00  0.00    +0.089 A 
ATOM     27  C   UNL     1      -2.068  -6.369   1.629  0.00  0.00    +0.069 A 
ATOM     28  C   UNL     1      -3.032  -7.264   1.185  0.00  0.00    +0.028 A 
ATOM     29  C   UNL     1      -3.397  -8.327   1.984  0.00  0.00    +0.002 A 
ATOM     30  C   UNL     1      -2.808  -8.506   3.228  0.00  0.00    +0.002 A 
ATOM     31  C   UNL     1      -1.853  -7.640   3.678  0.00  0.00    +0.030 A 
ENDBRANCH  22  23
ENDBRANCH   2  22
TORSDOF 6
