REMARK  Name = ZINC64704489
REMARK  14 active torsions:
REMARK  status: ('A' for Active; 'I' for Inactive)
REMARK    1  A    between atoms: C_1  and  C_2
REMARK    2  A    between atoms: C_2  and  C_4
REMARK    3  A    between atoms: C_2  and  N_31
REMARK    4  A    between atoms: C_4  and  C_5
REMARK    5  A    between atoms: C_5  and  N_6
REMARK    6  A    between atoms: C_7  and  C_9
REMARK    7  A    between atoms: C_9  and  N_10
REMARK    8  A    between atoms: N_10  and  C_11
REMARK    9  A    between atoms: C_15  and  N_26
REMARK   10  A    between atoms: C_16  and  C_20
REMARK   11  A    between atoms: N_26  and  C_27
REMARK   12  A    between atoms: C_27  and  C_28
REMARK   13  A    between atoms: C_27  and  C_29
REMARK   14  A    between atoms: C_27  and  C_30
REMARK                            x       y       z     vdW  Elec       q    Type
REMARK                         _______ _______ _______ _____ _____    ______ ____
ROOT
ATOM      1  N   UNL     1       0.162  -5.345  -4.765  0.00  0.00    -0.302 N 
ATOM      2  C   UNL     1      -0.665  -6.469  -5.212  0.00  0.00    +0.132 C 
ATOM      3  C   UNL     1       1.418  -5.580  -4.229  0.00  0.00    +0.184 A 
ATOM      4  N   UNL     1       2.032  -6.717  -4.047  0.00  0.00    -0.140 NA
ATOM      5  N   UNL     1       3.306  -6.769  -3.490  0.00  0.00    -0.190 N 
ATOM      6  C   UNL     1       4.249  -7.728  -3.149  0.00  0.00    +0.150 A 
ATOM      7  C   UNL     1       5.325  -7.078  -2.623  0.00  0.00    +0.114 A 
ATOM      8  N   UNL     1       5.054  -5.746  -2.638  0.00  0.00    -0.218 NA
ATOM      9  C   UNL     1       3.872  -5.567  -3.145  0.00  0.00    +0.199 A 
ATOM     10  S   UNL     1       2.613  -4.403  -3.616  0.00  0.00    -0.013 S 
ENDROOT
BRANCH   7  11
ATOM     11  C   UNL     1       6.568  -7.710  -2.124  0.00  0.00    +0.004 A 
ATOM     12  C   UNL     1       6.517  -8.952  -1.492  0.00  0.00    +0.010 A 
ATOM     13  C   UNL     1       7.679  -9.536  -1.030  0.00  0.00    +0.001 A 
ATOM     14  C   UNL     1       8.892  -8.892  -1.193  0.00  0.00    +0.000 A 
ATOM     15  C   UNL     1       8.949  -7.660  -1.819  0.00  0.00    +0.001 A 
ATOM     16  C   UNL     1       7.796  -7.068  -2.291  0.00  0.00    +0.010 A 
ENDBRANCH   7  11
BRANCH   6  17
ATOM     17  N   UNL     1       4.119  -9.109  -3.316  0.00  0.00    -0.323 N 
ATOM     18  H   UNL     1       4.856  -9.697  -3.086  0.00  0.00    +0.148 HD
BRANCH  17  19
ATOM     19  C   UNL     1       2.870  -9.670  -3.837  0.00  0.00    +0.025 C 
ATOM     20  C   UNL     1       2.613  -9.123  -5.243  0.00  0.00    +0.031 C 
ATOM     21  C   UNL     1       2.981 -11.195  -3.895  0.00  0.00    +0.031 C 
ATOM     22  C   UNL     1       1.712  -9.278  -2.917  0.00  0.00    +0.031 C 
ENDBRANCH  17  19
ENDBRANCH   6  17
BRANCH   1  23
ATOM     23  C   UNL     1      -0.339  -3.974  -4.885  0.00  0.00    +0.202 C 
BRANCH  23  25
ATOM     24  N   UNL     1      -1.635  -2.375  -3.512  0.00  0.00    -0.314 N 
ATOM     25  C   UNL     1      -1.083  -3.599  -3.629  0.00  0.00    +0.230 C 
ATOM     26  O   UNL     1      -1.184  -4.399  -2.723  0.00  0.00    -0.274 OA
ATOM     27  H   UNL     1      -1.553  -1.735  -4.237  0.00  0.00    +0.149 HD
BRANCH  24  28
ATOM     28  C   UNL     1      -2.357  -2.010  -2.291  0.00  0.00    +0.102 C 
BRANCH  28  29
ATOM     29  C   UNL     1      -2.880  -0.578  -2.417  0.00  0.00    +0.003 C 
BRANCH  29  31
ATOM     30  C   UNL     1      -4.787  -1.018  -0.863  0.00  0.00    -0.013 C 
ATOM     31  C   UNL     1      -3.543  -0.160  -1.102  0.00  0.00    -0.070 C 
BRANCH  31  32
ATOM     32  N   UNL     1      -3.930   1.255  -1.177  0.00  0.00    +0.381 N 
ATOM     33  C   UNL     1      -4.592   1.672   0.085  0.00  0.00    -0.079 C 
ATOM     34  C   UNL     1      -4.419   3.212   0.084  0.00  0.00    -0.020 C 
ATOM     35  C   UNL     1      -3.006   3.400  -0.515  0.00  0.00    -0.020 C 
ATOM     36  C   UNL     1      -2.728   2.107  -1.303  0.00  0.00    -0.079 C 
ATOM     37  H   UNL     1      -4.547   1.406  -1.961  0.00  0.00    -0.081 HD
ENDBRANCH  31  32
ENDBRANCH  29  31
ENDBRANCH  28  29
ENDBRANCH  24  28
ENDBRANCH  23  25
ENDBRANCH   1  23
TORSDOF 9
