REMARK  Name = ZINC09328735
REMARK  11 active torsions:
REMARK  status: ('A' for Active; 'I' for Inactive)
REMARK    1  A    between atoms: C_1  and  C_2
REMARK    2  A    between atoms: C_5  and  N_9
REMARK    3  A    between atoms: C_6  and  C_8
REMARK    4  A    between atoms: C_10  and  C_12
REMARK    5  A    between atoms: C_12  and  C_13
REMARK    6  A    between atoms: C_16  and  S_19
REMARK    7  A    between atoms: N_17  and  C_18
REMARK    8  A    between atoms: S_19  and  C_20
REMARK    9  A    between atoms: C_20  and  C_21
REMARK   10  A    between atoms: C_29  and  O_33
REMARK   11  A    between atoms: O_33  and  C_34
REMARK                            x       y       z     vdW  Elec       q    Type
REMARK                         _______ _______ _______ _____ _____    ______ ____
ROOT
ATOM      1  C   UNL     1      11.462   6.629  -0.077  0.00  0.00    +0.143 A 
ATOM      2  N   UNL     1      11.591   5.332  -0.093  0.00  0.00    -0.133 NA
ATOM      3  N   UNL     1      10.433   4.774  -0.077  0.00  0.00    -0.122 NA
ATOM      4  C   UNL     1       9.495   5.692  -0.058  0.00  0.00    +0.192 A 
ATOM      5  N   UNL     1      10.123   6.905  -0.054  0.00  0.00    -0.309 N 
ATOM      6  C   UNL     1       9.493   8.227  -0.029  0.00  0.00    +0.152 C 
ENDROOT
BRANCH   1   7
ATOM      7  C   UNL     1      12.582   7.637  -0.082  0.00  0.00    +0.172 C 
BRANCH   7   9
ATOM      8  N   UNL     1      13.965   8.841   1.578  0.00  0.00    -0.285 N 
ATOM      9  C   UNL     1      12.977   7.957   1.337  0.00  0.00    +0.225 C 
ATOM     10  O   UNL     1      12.405   7.419   2.261  0.00  0.00    -0.275 OA
ATOM     11  H   UNL     1      14.476   9.210   0.841  0.00  0.00    +0.155 HD
BRANCH   8  16
ATOM     12  C   UNL     1      15.137  10.400   6.906  0.00  0.00    +0.044 C 
ATOM     13  C   UNL     1      14.825   9.986   5.490  0.00  0.00    -0.050 A 
ATOM     14  C   UNL     1      13.562   9.524   5.169  0.00  0.00    +0.005 A 
ATOM     15  C   UNL     1      13.274   9.144   3.873  0.00  0.00    +0.024 A 
ATOM     16  C   UNL     1      14.254   9.225   2.892  0.00  0.00    +0.036 A 
ATOM     17  C   UNL     1      15.523   9.684   3.220  0.00  0.00    -0.029 A 
ATOM     18  C   UNL     1      15.803  10.068   4.517  0.00  0.00    +0.008 A 
ATOM     19  C   UNL     1      16.591   9.768   2.160  0.00  0.00    +0.045 C 
ENDBRANCH   8  16
ENDBRANCH   7   9
ENDBRANCH   1   7
BRANCH   4  20
ATOM     20  S   UNL     1       7.755   5.413  -0.034  0.00  0.00    -0.077 S 
BRANCH  20  21
ATOM     21  C   UNL     1       7.727   3.604  -0.055  0.00  0.00    +0.173 C 
BRANCH  21  22
ATOM     22  C   UNL     1       6.299   3.123  -0.038  0.00  0.00    +0.229 C 
ATOM     23  O   UNL     1       5.390   3.926  -0.015  0.00  0.00    -0.275 OA
ATOM     24  N   UNL     1       6.032   1.802  -0.050  0.00  0.00    -0.264 N 
ATOM     25  C   UNL     1       4.718   1.361  -0.034  0.00  0.00    +0.165 A 
ATOM     26  N   UNL     1       3.613   2.067  -0.010  0.00  0.00    -0.225 NA
ATOM     27  C   UNL     1       2.387   1.498   0.003  0.00  0.00    +0.081 A 
ATOM     28  C   UNL     1       1.127   2.140   0.029  0.00  0.00    +0.032 A 
ATOM     29  C   UNL     1      -0.032   1.411   0.037  0.00  0.00    +0.048 A 
ATOM     30  C   UNL     1      -0.015   0.019   0.021  0.00  0.00    +0.121 A 
ATOM     31  C   UNL     1       1.204  -0.642  -0.005  0.00  0.00    +0.063 A 
ATOM     32  C   UNL     1       2.369   0.085  -0.013  0.00  0.00    +0.044 A 
ATOM     33  S   UNL     1       4.099  -0.316  -0.044  0.00  0.00    -0.052 S 
ATOM     34  H   UNL     1       6.759   1.161  -0.068  0.00  0.00    +0.157 HD
BRANCH  30  35
ATOM     35  O   UNL     1      -1.179  -0.684   0.031  0.00  0.00    -0.495 OA
ATOM     36  C   UNL     1      -2.392   0.071   0.058  0.00  0.00    +0.277 C 
ENDBRANCH  30  35
ENDBRANCH  21  22
ENDBRANCH  20  21
ENDBRANCH   4  20
TORSDOF 7
