REMARK  Name = ZINC00705927
REMARK  8 active torsions:
REMARK  status: ('A' for Active; 'I' for Inactive)
REMARK    1  A    between atoms: C_1  and  C_2
REMARK    2  A    between atoms: C_3  and  C_19
REMARK    3  A    between atoms: C_4  and  C_12
REMARK    4  A    between atoms: C_6  and  C_10
REMARK    5  A    between atoms: C_7  and  N_9
REMARK    6  A    between atoms: C_19  and  O_21
REMARK    7  A    between atoms: O_21  and  C_22
REMARK    8  A    between atoms: C_22  and  C_23
REMARK                            x       y       z     vdW  Elec       q    Type
REMARK                         _______ _______ _______ _____ _____    ______ ____
ROOT
ATOM      1  C   UNL     1      -5.103   2.447   2.474  0.00  0.00    +0.087 C 
ATOM      2  C   UNL     1      -4.353   2.142   1.203  0.00  0.00    +0.115 C 
ATOM      3  C   UNL     1      -3.298   1.319   1.257  0.00  0.00    +0.087 C 
ATOM      4  C   UNL     1      -2.514   0.979   0.019  0.00  0.00    +0.105 C 
ATOM      5  C   UNL     1      -3.312   1.339  -1.205  0.00  0.00    +0.098 C 
ATOM      6  C   UNL     1      -4.380   2.169  -1.115  0.00  0.00    +0.198 C 
ATOM      7  O   UNL     1      -4.766   2.703   0.057  0.00  0.00    -0.445 OA
ENDROOT
BRANCH   4   8
ATOM      8  C   UNL     1      -1.219   1.750   0.017  0.00  0.00    -0.034 A 
ATOM      9  C   UNL     1      -0.013   1.076   0.008  0.00  0.00    +0.006 A 
ATOM     10  C   UNL     1       1.175   1.783   0.000  0.00  0.00    +0.020 A 
ATOM     11  C   UNL     1       1.156   3.166   0.008  0.00  0.00    +0.041 A 
ATOM     12  C   UNL     1      -0.052   3.841   0.023  0.00  0.00    +0.020 A 
ATOM     13  C   UNL     1      -1.239   3.133   0.031  0.00  0.00    +0.006 A 
ATOM     14 CL   UNL     1       2.647   4.055  -0.002  0.00  0.00    -0.084 Cl
ENDBRANCH   4   8
BRANCH   6  15
ATOM     15  N   UNL     1      -5.085   2.475  -2.252  0.00  0.00    -0.328 N 
ATOM     16  H   UNL     1      -4.817   2.098  -3.105  0.00  0.00    +0.145 HD
ATOM     17  H   UNL     1      -5.851   3.068  -2.203  0.00  0.00    +0.145 HD
ENDBRANCH   6  15
BRANCH   5  18
ATOM     18  C   UNL     1      -2.940   0.799  -2.478  0.00  0.00    +0.101 C 
ATOM     19  N   UNL     1      -2.645   0.371  -3.488  0.00  0.00    -0.191 NA
ENDBRANCH   5  18
BRANCH   3  20
ATOM     20  C   UNL     1      -2.913   0.761   2.501  0.00  0.00    +0.340 C 
ATOM     21  O   UNL     1      -3.539   1.030   3.508  0.00  0.00    -0.245 OA
BRANCH  20  22
ATOM     22  O   UNL     1      -1.851  -0.068   2.568  0.00  0.00    -0.457 OA
BRANCH  22  23
ATOM     23  C   UNL     1      -1.519  -0.595   3.854  0.00  0.00    +0.268 C 
BRANCH  23  24
ATOM     24  C   UNL     1      -0.315  -1.494   3.734  0.00  0.00    -0.010 A 
ATOM     25  C   UNL     1      -0.482  -2.843   3.487  0.00  0.00    +0.007 A 
ATOM     26  C   UNL     1       0.622  -3.667   3.371  0.00  0.00    +0.000 A 
ATOM     27  C   UNL     1       1.893  -3.143   3.514  0.00  0.00    +0.000 A 
ATOM     28  C   UNL     1       2.060  -1.794   3.767  0.00  0.00    +0.000 A 
ATOM     29  C   UNL     1       0.956  -0.969   3.877  0.00  0.00    +0.007 A 
ENDBRANCH  23  24
ENDBRANCH  22  23
ENDBRANCH  20  22
ENDBRANCH   3  20
TORSDOF 7
