REMARK  Name = ZINC20752693
REMARK  4 active torsions:
REMARK  status: ('A' for Active; 'I' for Inactive)
REMARK    1  A    between atoms: C_1  and  C_2
REMARK    2  A    between atoms: N_5  and  S_8
REMARK    3  A    between atoms: S_8  and  C_11
REMARK    4  A    between atoms: C_24  and  C_27
REMARK                            x       y       z     vdW  Elec       q    Type
REMARK                         _______ _______ _______ _____ _____    ______ ____
ROOT
ATOM      1  C   UNL     1      -0.017   1.379   0.010  0.00  0.00    +0.106 A 
ATOM      2  C   UNL     1       0.002  -0.004   0.002  0.00  0.00    +0.030 A 
ATOM      3  C   UNL     1       1.210  -0.672  -0.012  0.00  0.00    +0.025 A 
ATOM      4  C   UNL     1       2.401   0.045  -0.019  0.00  0.00    +0.031 A 
ATOM      5  C   UNL     1       2.387   1.431  -0.013  0.00  0.00    -0.018 A 
ATOM      6  C   UNL     1       1.165   2.091   0.002  0.00  0.00    +0.034 A 
ATOM      7  C   UNL     1       3.632   2.236  -0.041  0.00  0.00    +0.049 C 
ATOM      8  C   UNL     1       3.921   2.845   1.334  0.00  0.00    -0.023 C 
ATOM      9  C   UNL     1       5.211   2.860   1.567  0.00  0.00    -0.030 C 
ATOM     10  C   UNL     1       5.970   2.274   0.392  0.00  0.00    +0.033 C 
ATOM     11  C   UNL     1       4.898   1.408  -0.334  0.00  0.00    +0.029 C 
ATOM     12  C   UNL     1       4.826   0.065   0.399  0.00  0.00    +0.111 C 
ATOM     13  N   UNL     1       3.617  -0.646  -0.031  0.00  0.00    -0.336 N 
ATOM     14  H   UNL     1       3.682  -1.696  -0.352  0.00  0.00    +0.147 HD
ENDROOT
BRANCH  12  15
ATOM     15  C   UNL     1       4.771   0.301   1.886  0.00  0.00    +0.010 A 
ATOM     16  C   UNL     1       5.765   0.207   2.803  0.00  0.00    +0.013 A 
ATOM     17  C   UNL     1       5.482   0.475   4.129  0.00  0.00    +0.008 A 
ATOM     18  C   UNL     1       4.216   0.814   4.475  0.00  0.00    +0.045 A 
ATOM     19  S   UNL     1       3.377   0.768   2.900  0.00  0.00    -0.100 S 
ENDBRANCH  12  15
BRANCH   1  20
ATOM     20  S   UNL     1      -1.556   2.235   0.021  0.00  0.00    +0.061 S 
ATOM     21  O   UNL     1      -1.309   3.524  -0.523  0.00  0.00    -0.153 OA
ATOM     22  O   UNL     1      -2.519   1.347  -0.530  0.00  0.00    -0.153 OA
BRANCH  20  27
ATOM     23  C   UNL     1      -1.047   1.935   5.725  0.00  0.00    +0.007 C 
ATOM     24  C   UNL     1      -1.747   2.329   4.423  0.00  0.00    -0.012 C 
ATOM     25  C   UNL     1      -0.835   3.254   3.614  0.00  0.00    +0.020 C 
ATOM     26  C   UNL     1      -1.552   3.673   2.326  0.00  0.00    +0.110 C 
ATOM     27  N   UNL     1      -1.977   2.465   1.607  0.00  0.00    -0.177 NA
ATOM     28  C   UNL     1      -2.787   1.466   2.318  0.00  0.00    +0.110 C 
ATOM     29  C   UNL     1      -2.051   1.069   3.607  0.00  0.00    +0.020 C 
ENDBRANCH  20  27
ENDBRANCH   1  20
TORSDOF 3
