REMARK  Name = ZINC06329361
REMARK  6 active torsions:
REMARK  status: ('A' for Active; 'I' for Inactive)
REMARK    1  A    between atoms: C_3  and  O_21
REMARK    2  A    between atoms: C_4  and  C_8
REMARK    3  A    between atoms: N_9  and  N_10
REMARK    4  A    between atoms: C_11  and  C_13
REMARK    5  A    between atoms: C_13  and  S_14
REMARK    6  A    between atoms: S_14  and  C_15
REMARK                            x       y       z     vdW  Elec       q    Type
REMARK                         _______ _______ _______ _____ _____    ______ ____
ROOT
ATOM      1  N   UNL     1       6.030  -0.708  -0.061  0.00  0.00    -0.206 N 
ATOM      2  C   UNL     1       7.187  -0.017  -0.069  0.00  0.00    +0.242 C 
ATOM      3  O   UNL     1       7.170   1.196  -0.062  0.00  0.00    -0.273 OA
ATOM      4  H   UNL     1       6.043  -1.678  -0.066  0.00  0.00    +0.177 HD
ENDROOT
BRANCH   1   6
ATOM      5  C   UNL     1       3.692  -0.690  -0.037  0.00  0.00    +0.142 C 
ATOM      6  N   UNL     1       4.806  -0.025  -0.045  0.00  0.00    -0.188 NA
BRANCH   5  10
ATOM      7  C   UNL     1      -0.017   1.381   0.010  0.00  0.00    +0.023 A 
ATOM      8  C   UNL     1       1.166   2.096   0.002  0.00  0.00    +0.047 A 
ATOM      9  C   UNL     1       2.381   1.430  -0.013  0.00  0.00    +0.126 A 
ATOM     10  C   UNL     1       2.405   0.029  -0.021  0.00  0.00    +0.037 A 
ATOM     11  C   UNL     1       1.204  -0.683  -0.013  0.00  0.00    +0.033 A 
ATOM     12  C   UNL     1       0.002  -0.004   0.002  0.00  0.00    +0.042 A 
ATOM     13 CL   UNL     1      -1.491  -0.889   0.012  0.00  0.00    -0.084 Cl
BRANCH   9  14
ATOM     14  O   UNL     1       3.543   2.132  -0.021  0.00  0.00    -0.506 OA
ATOM     15  H   UNL     1       3.888   2.331   0.860  0.00  0.00    +0.292 HD
ENDBRANCH   9  14
ENDBRANCH   5  10
ENDBRANCH   1   6
BRANCH   2  16
ATOM     16  C   UNL     1       8.503  -0.752  -0.086  0.00  0.00    +0.173 C 
BRANCH  16  17
ATOM     17  S   UNL     1       9.864   0.447  -0.093  0.00  0.00    -0.088 S 
BRANCH  17  18
ATOM     18  C   UNL     1      11.314  -0.555  -0.113  0.00  0.00    +0.160 A 
ATOM     19  N   UNL     1      11.421  -1.869  -0.127  0.00  0.00    -0.133 NA
ATOM     20  N   UNL     1      12.666  -2.454  -0.141  0.00  0.00    -0.125 NA
ATOM     21  C   UNL     1      13.747  -1.698  -0.141  0.00  0.00    +0.180 A 
ATOM     22  S   UNL     1      13.030  -0.062  -0.127  0.00  0.00    -0.025 S 
ATOM     23  N   UNL     1      15.085  -2.074  -0.154  0.00  0.00    -0.336 N 
ATOM     24  H   UNL     1      15.325  -3.014  -0.166  0.00  0.00    +0.144 HD
ATOM     25  H   UNL     1      15.779  -1.396  -0.152  0.00  0.00    +0.144 HD
ENDBRANCH  17  18
ENDBRANCH  16  17
ENDBRANCH   2  16
TORSDOF 6
