REMARK  Name = ZINC25460214
REMARK  7 active torsions:
REMARK  status: ('A' for Active; 'I' for Inactive)
REMARK    1  A    between atoms: C_16  and  C_18
REMARK    2  A    between atoms: C_18  and  S_19
REMARK    3  A    between atoms: S_19  and  C_20
REMARK    4  A    between atoms: C_23  and  C_26
REMARK    5  A    between atoms: N_24  and  N_25
REMARK    6  A    between atoms: C_29  and  O_32
REMARK    7  A    between atoms: O_32  and  C_33
REMARK                            x       y       z     vdW  Elec       q    Type
REMARK                         _______ _______ _______ _____ _____    ______ ____
ROOT
ATOM      1  S   UNL     1      -4.127   3.200  -3.205  0.00  0.00    -0.075 S 
ENDROOT
BRANCH   1   2
ATOM      2  C   UNL     1      -3.528   2.552  -4.730  0.00  0.00    +0.209 A 
ATOM      3  N   UNL     1      -2.447   1.825  -4.897  0.00  0.00    -0.121 NA
ATOM      4  N   UNL     1      -2.307   1.520  -6.138  0.00  0.00    -0.127 NA
ATOM      5  C   UNL     1      -3.285   2.041  -6.841  0.00  0.00    +0.182 A 
ATOM      6  N   UNL     1      -4.098   2.718  -5.961  0.00  0.00    -0.224 N 
BRANCH   5   7
ATOM      7  C   UNL     1      -3.478   1.922  -8.301  0.00  0.00    +0.021 A 
ATOM      8  C   UNL     1      -2.797   0.937  -9.019  0.00  0.00    +0.015 A 
ATOM      9  C   UNL     1      -2.983   0.827 -10.381  0.00  0.00    +0.046 A 
ATOM     10  C   UNL     1      -3.837   1.701 -11.040  0.00  0.00    +0.127 A 
ATOM     11  C   UNL     1      -4.512   2.686 -10.330  0.00  0.00    +0.046 A 
ATOM     12  C   UNL     1      -4.335   2.800  -8.968  0.00  0.00    +0.015 A 
BRANCH  10  13
ATOM     13  O   UNL     1      -4.013   1.593 -12.383  0.00  0.00    -0.434 OA
BRANCH  13  14
ATOM     14  C   UNL     1      -3.289   0.558 -13.051  0.00  0.00    +0.541 C 
ATOM     15  F   UNL     1      -1.917   0.755 -12.866  0.00  0.00    -0.166 F 
ATOM     16  F   UNL     1      -3.657  -0.684 -12.522  0.00  0.00    -0.166 F 
ENDBRANCH  13  14
ENDBRANCH  10  13
ENDBRANCH   5   7
BRANCH   6  17
ATOM     17  N   UNL     1      -5.237   3.412  -6.256  0.00  0.00    -0.295 N 
ATOM     18  H   UNL     1      -5.592   3.470  -7.296  0.00  0.00    +0.163 HD
ATOM     19  H   UNL     1      -5.799   3.913  -5.455  0.00  0.00    +0.163 HD
ENDBRANCH   6  17
ENDBRANCH   1   2
BRANCH   1  20
ATOM     20  C   UNL     1      -2.864   2.563  -2.076  0.00  0.00    +0.174 C 
BRANCH  20  36
ATOM     21  C   UNL     1       1.113   0.458  -0.188  0.00  0.00    +0.000 A 
ATOM     22  C   UNL     1      -0.103  -0.188  -0.326  0.00  0.00    +0.002 A 
ATOM     23  C   UNL     1      -1.289   0.513  -0.181  0.00  0.00    +0.024 A 
ATOM     24  C   UNL     1      -1.228   1.863   0.121  0.00  0.00    +0.044 A 
ATOM     25  C   UNL     1      -0.023   2.503   0.236  0.00  0.00    -0.025 A 
ATOM     26  C   UNL     1       1.160   1.816   0.089  0.00  0.00    +0.005 A 
ATOM     27  C   UNL     1      -0.080   3.986   0.495  0.00  0.00    +0.042 C 
ATOM     28  C   UNL     1      -0.373   4.282   1.956  0.00  0.00    +0.042 C 
ATOM     29  C   UNL     1      -1.714   3.752   2.411  0.00  0.00    -0.025 A 
ATOM     30  C   UNL     1      -2.029   4.030   3.744  0.00  0.00    +0.005 A 
ATOM     31  C   UNL     1      -3.227   3.639   4.295  0.00  0.00    +0.000 A 
ATOM     32  C   UNL     1      -4.158   2.959   3.529  0.00  0.00    +0.002 A 
ATOM     33  C   UNL     1      -3.861   2.666   2.215  0.00  0.00    +0.024 A 
ATOM     34  C   UNL     1      -2.642   3.045   1.664  0.00  0.00    +0.044 A 
ATOM     35  N   UNL     1      -2.369   2.647   0.346  0.00  0.00    -0.239 N 
ATOM     36  C   UNL     1      -3.179   3.005  -0.670  0.00  0.00    +0.234 C 
ATOM     37  O   UNL     1      -4.161   3.683  -0.453  0.00  0.00    -0.274 OA
ENDBRANCH  20  36
ENDBRANCH   1  20
TORSDOF 7
