REMARK  Name = ZINC38739486
REMARK  6 active torsions:
REMARK  status: ('A' for Active; 'I' for Inactive)
REMARK    1  A    between atoms: C_4  and  C_7
REMARK    2  A    between atoms: C_8  and  C_9
REMARK    3  A    between atoms: C_14  and  C_17
REMARK    4  A    between atoms: C_17  and  C_18
REMARK    5  A    between atoms: N_20  and  C_21
REMARK    6  A    between atoms: C_21  and  C_22
REMARK                            x       y       z     vdW  Elec       q    Type
REMARK                         _______ _______ _______ _____ _____    ______ ____
ROOT
ATOM      1  C   UNL     1       4.993  -2.739  -0.061  0.00  0.00    +0.243 C 
ATOM      2  O   UNL     1       6.037  -2.113  -0.068  0.00  0.00    -0.270 OA
ATOM      3  N   UNL     1       5.016  -4.086  -0.069  0.00  0.00    -0.261 N 
ATOM      4  C   UNL     1       6.229  -4.760  -0.085  0.00  0.00    +0.165 A 
ATOM      5  N   UNL     1       6.444  -6.059  -0.099  0.00  0.00    -0.229 NA
ATOM      6  C   UNL     1       7.670  -6.547  -0.113  0.00  0.00    +0.059 A 
ATOM      7  C   UNL     1       8.689  -5.654  -0.112  0.00  0.00    +0.072 A 
ATOM      8  S   UNL     1       7.784  -4.115  -0.097  0.00  0.00    -0.060 S 
ATOM      9  H   UNL     1       4.184  -4.585  -0.063  0.00  0.00    +0.157 HD
ENDROOT
BRANCH   1  11
ATOM     10  C   UNL     1       3.692  -0.680  -0.037  0.00  0.00    +0.013 C 
ATOM     11  C   UNL     1       3.714  -2.028  -0.045  0.00  0.00    +0.068 C 
BRANCH  10  15
ATOM     12  C   UNL     1      -0.017   1.380   0.010  0.00  0.00    +0.000 A 
ATOM     13  C   UNL     1       1.168   2.095   0.002  0.00  0.00    +0.001 A 
ATOM     14  C   UNL     1       2.377   1.433  -0.013  0.00  0.00    +0.008 A 
ATOM     15  C   UNL     1       2.405   0.035  -0.021  0.00  0.00    -0.025 A 
ATOM     16  C   UNL     1       1.203  -0.681  -0.013  0.00  0.00    +0.008 A 
ATOM     17  C   UNL     1       0.002  -0.004   0.002  0.00  0.00    +0.001 A 
ENDBRANCH  10  15
ENDBRANCH   1  11
BRANCH   6  18
ATOM     18  C   UNL     1       7.925  -8.033  -0.129  0.00  0.00    +0.151 C 
BRANCH  18  19
ATOM     19  C   UNL     1       7.215  -8.677   1.034  0.00  0.00    +0.219 C 
ATOM     20  O   UNL     1       6.566  -7.997   1.800  0.00  0.00    -0.275 OA
ATOM     21  N   UNL     1       7.301 -10.009   1.222  0.00  0.00    -0.309 N 
ATOM     22  H   UNL     1       7.820 -10.552   0.609  0.00  0.00    +0.149 HD
BRANCH  21  23
ATOM     23  C   UNL     1       6.611 -10.635   2.352  0.00  0.00    +0.161 C 
BRANCH  23  24
ATOM     24  C   UNL     1       6.866 -12.120   2.336  0.00  0.00    +0.077 A 
ATOM     25  C   UNL     1       7.829 -12.762   3.033  0.00  0.00    +0.117 A 
ATOM     26  N   UNL     1       7.720 -14.094   2.740  0.00  0.00    -0.306 N 
ATOM     27  C   UNL     1       8.421 -15.191   3.152  0.00  0.00    +0.092 A 
ATOM     28  C   UNL     1       8.099 -16.421   2.701  0.00  0.00    +0.018 A 
ATOM     29  C   UNL     1       7.036 -16.590   1.799  0.00  0.00    +0.005 A 
ATOM     30  C   UNL     1       6.329 -15.505   1.380  0.00  0.00    +0.047 A 
ATOM     31  C   UNL     1       6.677 -14.227   1.861  0.00  0.00    +0.138 A 
ATOM     32  N   UNL     1       6.174 -13.021   1.636  0.00  0.00    -0.231 NA
ENDBRANCH  23  24
ENDBRANCH  21  23
ENDBRANCH  18  19
ENDBRANCH   6  18
TORSDOF 6
