REMARK  Name = ZINC35760405
REMARK  12 active torsions:
REMARK  status: ('A' for Active; 'I' for Inactive)
REMARK    1  A    between atoms: C_1  and  C_2
REMARK    2  A    between atoms: C_2  and  C_3
REMARK    3  A    between atoms: C_3  and  C_4
REMARK    4  A    between atoms: C_4  and  C_5
REMARK    5  A    between atoms: C_5  and  C_7
REMARK    6  A    between atoms: C_5  and  C_9
REMARK    7  A    between atoms: C_7  and  C_8
REMARK    8  A    between atoms: N_11  and  C_12
REMARK    9  A    between atoms: C_15  and  C_18
REMARK   10  A    between atoms: C_20  and  C_30
REMARK   11  A    between atoms: C_21  and  C_29
REMARK   12  A    between atoms: N_32  and  C_33
REMARK                            x       y       z     vdW  Elec       q    Type
REMARK                         _______ _______ _______ _____ _____    ______ ____
ROOT
ATOM      1  C   UNL     1       1.150  -9.818   4.344  0.00  0.00    +0.142 C 
ATOM      2  C   UNL     1       2.082 -10.981   4.094  0.00  0.00    +0.058 C 
ATOM      3  C   UNL     1       2.251 -11.925   5.061  0.00  0.00    +0.025 C 
ATOM      4  N   UNL     1       1.571 -11.858   6.207  0.00  0.00    -0.341 N 
ATOM      5  C   UNL     1       0.533 -11.056   6.342  0.00  0.00    +0.135 C 
ATOM      6  N   UNL     1       0.125 -10.252   5.312  0.00  0.00    -0.300 N 
ATOM      7  C   UNL     1      -1.254  -9.855   5.104  0.00  0.00    +0.109 C 
ATOM      8  C   UNL     1      -2.046  -9.540   6.352  0.00  0.00    +0.030 C 
ATOM      9  C   UNL     1      -2.050 -10.709   7.338  0.00  0.00    +0.078 C 
ATOM     10  S   UNL     1      -0.330 -10.977   7.884  0.00  0.00    -0.092 S 
ATOM     11  C   UNL     1       3.217 -13.059   4.834  0.00  0.00    +0.064 C 
ATOM     12  H   UNL     1       1.847 -12.410   6.956  0.00  0.00    +0.167 HD
ENDROOT
BRANCH   1  16
ATOM     13  C   UNL     1       3.350  -6.524   5.948  0.00  0.00    +0.033 A 
ATOM     14  C   UNL     1       3.008  -6.543   4.602  0.00  0.00    +0.023 A 
ATOM     15  C   UNL     1       2.297  -7.609   4.087  0.00  0.00    +0.007 A 
ATOM     16  C   UNL     1       1.926  -8.657   4.910  0.00  0.00    -0.022 A 
ATOM     17  C   UNL     1       2.265  -8.641   6.250  0.00  0.00    +0.007 A 
ATOM     18  C   UNL     1       2.981  -7.581   6.770  0.00  0.00    +0.023 A 
BRANCH  13  21
ATOM     19  C   UNL     1       3.936  -4.218   5.933  0.00  0.00    +0.220 C 
ATOM     20  O   UNL     1       3.224  -4.057   4.965  0.00  0.00    -0.275 OA
ATOM     21  N   UNL     1       4.070  -5.446   6.473  0.00  0.00    -0.285 N 
ATOM     22  H   UNL     1       4.666  -5.581   7.227  0.00  0.00    +0.155 HD
BRANCH  19  23
ATOM     23  C   UNL     1       4.671  -3.047   6.531  0.00  0.00    +0.075 C 
BRANCH  23  24
ATOM     24  C   UNL     1       4.226  -2.852   7.982  0.00  0.00    +0.009 C 
ATOM     25  C   UNL     1       2.723  -2.569   8.020  0.00  0.00    +0.004 C 
ENDBRANCH  23  24
BRANCH  23  26
ATOM     26  C   UNL     1       4.357  -1.783   5.727  0.00  0.00    +0.013 C 
BRANCH  26  27
ATOM     27  C   UNL     1       5.199  -0.620   6.257  0.00  0.00    +0.000 C 
BRANCH  27  29
ATOM     28  C   UNL     1       5.726   1.806   5.982  0.00  0.00    +0.004 C 
ATOM     29  C   UNL     1       4.885   0.643   5.453  0.00  0.00    -0.003 C 
ENDBRANCH  27  29
ENDBRANCH  26  27
ENDBRANCH  23  26
ENDBRANCH  19  23
ENDBRANCH  13  21
ENDBRANCH   1  16
BRANCH   2  30
ATOM     30  C   UNL     1       2.769 -11.088   2.871  0.00  0.00    +0.248 C 
ATOM     31  O   UNL     1       3.600 -11.966   2.714  0.00  0.00    -0.270 OA
ATOM     32  N   UNL     1       2.510 -10.220   1.873  0.00  0.00    -0.282 N 
ATOM     33  H   UNL     1       1.923  -9.463   2.030  0.00  0.00    +0.155 HD
BRANCH  32  34
ATOM     34  C   UNL     1       3.086 -10.410   0.614  0.00  0.00    +0.034 A 
ATOM     35  C   UNL     1       2.322 -10.239  -0.534  0.00  0.00    +0.023 A 
ATOM     36  C   UNL     1       2.894 -10.427  -1.777  0.00  0.00    +0.002 A 
ATOM     37  C   UNL     1       4.226 -10.785  -1.879  0.00  0.00    +0.000 A 
ATOM     38  C   UNL     1       4.989 -10.956  -0.739  0.00  0.00    +0.002 A 
ATOM     39  C   UNL     1       4.425 -10.764   0.507  0.00  0.00    +0.023 A 
ENDBRANCH  32  34
ENDBRANCH   2  30
TORSDOF 9
