REMARK  Name = ZINC39970765
REMARK  8 active torsions:
REMARK  status: ('A' for Active; 'I' for Inactive)
REMARK    1  A    between atoms: C_1  and  C_2
REMARK    2  A    between atoms: C_7  and  C_34
REMARK    3  A    between atoms: N_9  and  S_10
REMARK    4  A    between atoms: S_10  and  C_13
REMARK    5  A    between atoms: C_16  and  N_19
REMARK    6  A    between atoms: N_19  and  C_20
REMARK    7  A    between atoms: C_20  and  N_22
REMARK    8  A    between atoms: N_25  and  C_28
REMARK                            x       y       z     vdW  Elec       q    Type
REMARK                         _______ _______ _______ _____ _____    ______ ____
ROOT
ATOM      1  C   UNL     1       0.381   1.277   3.716  0.00  0.00    +0.106 A 
ATOM      2  C   UNL     1      -0.352   0.432   4.528  0.00  0.00    +0.030 A 
ATOM      3  C   UNL     1      -1.113   0.950   5.558  0.00  0.00    +0.025 A 
ATOM      4  C   UNL     1      -1.141   2.321   5.777  0.00  0.00    +0.033 A 
ATOM      5  C   UNL     1      -0.404   3.167   4.959  0.00  0.00    +0.025 A 
ATOM      6  C   UNL     1       0.360   2.642   3.935  0.00  0.00    +0.030 A 
ENDROOT
BRANCH   1   7
ATOM      7  S   UNL     1       1.351   0.612   2.404  0.00  0.00    +0.061 S 
ATOM      8  O   UNL     1       1.674   1.699   1.547  0.00  0.00    -0.153 OA
ATOM      9  O   UNL     1       0.669  -0.546   1.941  0.00  0.00    -0.153 OA
BRANCH   7  16
ATOM     10  C   UNL     1       3.496   2.418   2.796  0.00  0.00    +0.026 C 
ATOM     11  C   UNL     1       3.862   1.039   3.348  0.00  0.00    +0.077 C 
ATOM     12  C   UNL     1       5.145   0.541   2.676  0.00  0.00    +0.020 C 
ATOM     13  C   UNL     1       5.430  -0.893   3.129  0.00  0.00    +0.003 C 
ATOM     14  C   UNL     1       4.276  -1.803   2.702  0.00  0.00    +0.020 C 
ATOM     15  C   UNL     1       2.983  -1.331   3.374  0.00  0.00    +0.077 C 
ATOM     16  N   UNL     1       2.777   0.090   3.064  0.00  0.00    -0.171 NA
ATOM     17  C   UNL     1       3.096  -1.515   4.889  0.00  0.00    +0.026 C 
ENDBRANCH   7  16
ENDBRANCH   1   7
BRANCH   4  18
ATOM     18  N   UNL     1      -1.912   2.849   6.819  0.00  0.00    -0.297 N 
ATOM     19  H   UNL     1      -2.428   3.658   6.678  0.00  0.00    +0.154 HD
BRANCH  18  20
ATOM     20  C   UNL     1      -1.936   2.233   8.017  0.00  0.00    +0.137 C 
ATOM     21  S   UNL     1      -0.920   0.887   8.309  0.00  0.00    -0.018 S 
BRANCH  20  22
ATOM     22  N   UNL     1      -2.761   2.677   8.986  0.00  0.00    -0.316 N 
ATOM     23  C   UNL     1      -3.733   3.749   8.720  0.00  0.00    +0.088 C 
ATOM     24  C   UNL     1      -5.110   3.290   9.209  0.00  0.00    -0.059 C 
ATOM     25  N   UNL     1      -5.019   2.891  10.620  0.00  0.00    +0.384 N 
ATOM     26  C   UNL     1      -4.142   1.721  10.753  0.00  0.00    -0.059 C 
ATOM     27  C   UNL     1      -2.720   2.099  10.338  0.00  0.00    +0.088 C 
ATOM     28  H   UNL     1      -4.643   3.655  11.160  0.00  0.00    -0.081 HD
BRANCH  25  29
ATOM     29  C   UNL     1      -6.359   2.555  11.119  0.00  0.00    -0.068 C 
ATOM     30  C   UNL     1      -7.272   3.776  10.991  0.00  0.00    -0.015 C 
ATOM     31  C   UNL     1      -8.668   3.427  11.511  0.00  0.00    -0.002 C 
ATOM     32  C   UNL     1      -8.575   3.011  12.981  0.00  0.00    -0.000 C 
ATOM     33  C   UNL     1      -7.662   1.790  13.109  0.00  0.00    -0.002 C 
ATOM     34  C   UNL     1      -6.266   2.139  12.588  0.00  0.00    -0.015 C 
ENDBRANCH  25  29
ENDBRANCH  20  22
ENDBRANCH  18  20
ENDBRANCH   4  18
TORSDOF 6
