REMARK  Name = ZINC23750559
REMARK  7 active torsions:
REMARK  status: ('A' for Active; 'I' for Inactive)
REMARK    1  A    between atoms: C_1  and  C_2
REMARK    2  A    between atoms: C_2  and  C_4
REMARK    3  A    between atoms: C_2  and  N_24
REMARK    4  A    between atoms: C_7  and  C_19
REMARK    5  A    between atoms: C_10  and  C_12
REMARK    6  A    between atoms: N_27  and  C_30
REMARK    7  A    between atoms: C_33  and  O_36
REMARK                            x       y       z     vdW  Elec       q    Type
REMARK                         _______ _______ _______ _____ _____    ______ ____
ROOT
ATOM      1  C   UNL     1      -0.901   3.487  -1.009  0.00  0.00    +0.222 C 
ATOM      2  O   UNL     1      -0.373   4.064  -0.081  0.00  0.00    -0.276 OA
ATOM      3  N   UNL     1      -1.578   4.187  -1.941  0.00  0.00    -0.183 N 
ATOM      4  C   UNL     1      -1.758   5.647  -1.951  0.00  0.00    +0.172 C 
ATOM      5  C   UNL     1      -2.593   5.900  -3.222  0.00  0.00    +0.090 C 
ATOM      6  C   UNL     1      -2.805   4.518  -3.798  0.00  0.00    +0.069 C 
ATOM      7  N   UNL     1      -2.226   3.645  -3.049  0.00  0.00    -0.181 NA
ENDROOT
BRANCH   6   8
ATOM      8  C   UNL     1      -3.559   4.216  -5.029  0.00  0.00    -0.002 A 
ATOM      9  C   UNL     1      -4.152   5.249  -5.760  0.00  0.00    +0.011 A 
ATOM     10  C   UNL     1      -4.852   4.960  -6.912  0.00  0.00    +0.020 A 
ATOM     11  C   UNL     1      -4.977   3.649  -7.340  0.00  0.00    +0.041 A 
ATOM     12  C   UNL     1      -4.396   2.620  -6.618  0.00  0.00    +0.020 A 
ATOM     13  C   UNL     1      -3.689   2.896  -5.466  0.00  0.00    +0.011 A 
ATOM     14 CL   UNL     1      -5.865   3.294  -8.789  0.00  0.00    -0.084 Cl
ENDBRANCH   6   8
BRANCH   4  15
ATOM     15  C   UNL     1      -0.426   6.346  -2.048  0.00  0.00    +0.128 A 
ATOM     16  C   UNL     1      -0.082   7.476  -1.405  0.00  0.00    +0.046 A 
ATOM     17  C   UNL     1       1.248   7.773  -1.783  0.00  0.00    +0.041 A 
ATOM     18  C   UNL     1       1.637   6.806  -2.633  0.00  0.00    +0.195 A 
ATOM     19  O   UNL     1       0.621   5.941  -2.785  0.00  0.00    -0.466 OA
ENDBRANCH   4  15
BRANCH   1  21
ATOM     20  C   UNL     1      -0.109   1.618  -2.432  0.00  0.00    -0.004 C 
ATOM     21  C   UNL     1      -0.800   1.987  -1.118  0.00  0.00    +0.018 C 
BRANCH  21  22
ATOM     22  N   UNL     1      -0.018   1.465   0.010  0.00  0.00    +0.389 N 
ATOM     23  C   UNL     1       1.348   2.008   0.000  0.00  0.00    -0.059 C 
ATOM     24  C   UNL     1       2.103   1.504   1.232  0.00  0.00    +0.086 C 
ATOM     25  N   UNL     1       2.123   0.034   1.224  0.00  0.00    -0.333 N 
ATOM     26  C   UNL     1       0.757  -0.508   1.234  0.00  0.00    +0.086 C 
ATOM     27  C   UNL     1       0.002  -0.004   0.002  0.00  0.00    -0.059 C 
ATOM     28  H   UNL     1      -0.507   1.793   0.939  0.00  0.00    -0.081 HD
BRANCH  25  29
ATOM     29  C   UNL     1       2.868  -0.463   2.299  0.00  0.00    +0.030 A 
ATOM     30  C   UNL     1       2.285  -1.345   3.199  0.00  0.00    +0.026 A 
ATOM     31  C   UNL     1       3.023  -1.839   4.257  0.00  0.00    +0.047 A 
ATOM     32  C   UNL     1       4.343  -1.447   4.426  0.00  0.00    +0.117 A 
ATOM     33  C   UNL     1       4.924  -0.562   3.530  0.00  0.00    +0.047 A 
ATOM     34  C   UNL     1       4.189  -0.071   2.469  0.00  0.00    +0.026 A 
BRANCH  32  35
ATOM     35  O   UNL     1       5.067  -1.931   5.471  0.00  0.00    -0.507 OA
ATOM     36  H   UNL     1       6.113  -1.620   5.605  0.00  0.00    +0.292 HD
ENDBRANCH  32  35
ENDBRANCH  25  29
ENDBRANCH  21  22
ENDBRANCH   1  21
TORSDOF 6
