REMARK  Name = ZINC32937358
REMARK  8 active torsions:
REMARK  status: ('A' for Active; 'I' for Inactive)
REMARK    1  A    between atoms: C_1  and  N_2
REMARK    2  A    between atoms: N_2  and  C_3
REMARK    3  A    between atoms: N_2  and  S_4
REMARK    4  A    between atoms: S_4  and  C_7
REMARK    5  A    between atoms: C_10  and  C_13
REMARK    6  A    between atoms: C_14  and  C_15
REMARK    7  A    between atoms: N_17  and  C_18
REMARK    8  A    between atoms: C_21  and  N_24
REMARK                            x       y       z     vdW  Elec       q    Type
REMARK                         _______ _______ _______ _____ _____    ______ ____
ROOT
ATOM      1  C   UNL     1      -5.529   4.630  -1.135  0.00  0.00    +0.241 C 
ATOM      2  O   UNL     1      -4.587   5.387  -1.278  0.00  0.00    -0.270 OA
ATOM      3  N   UNL     1      -5.319   3.364  -0.723  0.00  0.00    -0.282 N 
ATOM      4  H   UNL     1      -6.174   2.702  -0.521  0.00  0.00    +0.155 HD
ENDROOT
BRANCH   3   5
ATOM      5  C   UNL     1      -4.012   2.890  -0.553  0.00  0.00    +0.034 A 
ATOM      6  C   UNL     1      -3.020   3.744  -0.089  0.00  0.00    +0.025 A 
ATOM      7  C   UNL     1      -1.731   3.277   0.078  0.00  0.00    +0.025 A 
ATOM      8  C   UNL     1      -1.428   1.955  -0.218  0.00  0.00    +0.035 A 
ATOM      9  C   UNL     1      -2.419   1.103  -0.687  0.00  0.00    +0.025 A 
ATOM     10  C   UNL     1      -3.708   1.568  -0.850  0.00  0.00    +0.025 A 
BRANCH   8  11
ATOM     11  N   UNL     1      -0.120   1.482  -0.049  0.00  0.00    -0.270 N 
ATOM     12  C   UNL     1       0.638   1.943   0.966  0.00  0.00    +0.301 C 
ATOM     13  O   UNL     1       0.216   2.827   1.687  0.00  0.00    -0.253 OA
ATOM     14  N   UNL     1       1.863   1.425   1.182  0.00  0.00    -0.313 N 
ATOM     15  H   UNL     1       0.289   0.734  -0.744  0.00  0.00    +0.156 HD
ATOM     16  H   UNL     1       2.482   1.802   2.010  0.00  0.00    +0.146 HD
ATOM     17  H   UNL     1       2.245   0.626   0.529  0.00  0.00    +0.146 HD
ENDBRANCH   8  11
ENDBRANCH   3   5
BRANCH   1  19
ATOM     18  C   UNL     1      -7.100   6.360  -1.821  0.00  0.00    +0.013 C 
ATOM     19  C   UNL     1      -6.890   5.094  -1.409  0.00  0.00    +0.068 C 
BRANCH  18  23
ATOM     20  C   UNL     1     -11.044   7.704  -2.619  0.00  0.00    +0.105 A 
ATOM     21  C   UNL     1      -9.976   8.569  -2.782  0.00  0.00    +0.029 A 
ATOM     22  C   UNL     1      -8.691   8.140  -2.524  0.00  0.00    +0.010 A 
ATOM     23  C   UNL     1      -8.469   6.827  -2.097  0.00  0.00    -0.025 A 
ATOM     24  C   UNL     1      -9.553   5.957  -1.940  0.00  0.00    +0.010 A 
ATOM     25  C   UNL     1     -10.832   6.403  -2.197  0.00  0.00    +0.029 A 
BRANCH  20  26
ATOM     26  S   UNL     1     -12.682   8.262  -2.951  0.00  0.00    +0.060 S 
ATOM     27  O   UNL     1     -13.555   7.430  -2.200  0.00  0.00    -0.153 OA
ATOM     28  O   UNL     1     -12.666   9.676  -2.807  0.00  0.00    -0.153 OA
BRANCH  26  30
ATOM     29  C   UNL     1     -13.579   6.671  -4.946  0.00  0.00    +0.131 C 
ATOM     30  N   UNL     1     -12.990   7.953  -4.548  0.00  0.00    -0.183 NA
ATOM     31  C   UNL     1     -12.674   8.960  -5.564  0.00  0.00    +0.131 C 
ENDBRANCH  26  30
ENDBRANCH  20  26
ENDBRANCH  18  23
ENDBRANCH   1  19
TORSDOF 6
