REMARK  Name = ZINC21250370
REMARK  12 active torsions:
REMARK  status: ('A' for Active; 'I' for Inactive)
REMARK    1  A    between atoms: C_1  and  C_2
REMARK    2  A    between atoms: C_2  and  C_3
REMARK    3  A    between atoms: C_2  and  O_4
REMARK    4  A    between atoms: O_4  and  C_5
REMARK    5  A    between atoms: C_8  and  C_11
REMARK    6  A    between atoms: C_16  and  C_21
REMARK    7  A    between atoms: C_24  and  O_29
REMARK    8  A    between atoms: C_25  and  O_27
REMARK    9  A    between atoms: O_27  and  C_28
REMARK   10  A    between atoms: O_29  and  C_30
REMARK   11  A    between atoms: C_30  and  C_31
REMARK   12  A    between atoms: C_30  and  C_32
REMARK                            x       y       z     vdW  Elec       q    Type
REMARK                         _______ _______ _______ _____ _____    ______ ____
ROOT
ATOM      1  C   UNL     1      -0.494  -2.180   5.510  0.00  0.00    +0.136 C 
ATOM      2  C   UNL     1       0.647  -1.802   6.424  0.00  0.00    +0.036 C 
ATOM      3  C   UNL     1       1.718  -2.562   6.704  0.00  0.00    +0.017 C 
ATOM      4  C   UNL     1       2.815  -2.038   7.616  0.00  0.00    +0.059 C 
ATOM      5  C   UNL     1       2.213  -1.122   8.680  0.00  0.00    +0.032 C 
ATOM      6  C   UNL     1       1.522   0.041   7.959  0.00  0.00    +0.088 C 
ATOM      7  C   UNL     1       0.510  -0.520   7.006  0.00  0.00    +0.163 C 
ATOM      8  O   UNL     1      -0.464   0.151   6.724  0.00  0.00    -0.292 OA
ATOM      9  N   UNL     1       1.933  -3.811   6.219  0.00  0.00    -0.316 N 
ATOM     10  C   UNL     1       1.787  -4.179   4.886  0.00  0.00    +0.052 A 
ATOM     11  C   UNL     1       2.845  -4.653   4.130  0.00  0.00    +0.025 A 
ATOM     12  C   UNL     1       2.611  -5.104   2.842  0.00  0.00    +0.002 A 
ATOM     13  C   UNL     1       1.332  -5.081   2.317  0.00  0.00    +0.002 A 
ATOM     14  C   UNL     1       0.276  -4.589   3.064  0.00  0.00    +0.025 A 
ATOM     15  C   UNL     1       0.510  -4.121   4.347  0.00  0.00    +0.049 A 
ATOM     16  N   UNL     1      -0.512  -3.575   5.121  0.00  0.00    -0.331 N 
ATOM     17  H   UNL     1       2.248  -4.618   6.897  0.00  0.00    +0.152 HD
ATOM     18  H   UNL     1      -1.343  -4.223   5.437  0.00  0.00    +0.147 HD
ENDROOT
BRANCH   1  22
ATOM     19  C   UNL     1      -0.248   0.208   1.975  0.00  0.00    +0.121 A 
ATOM     20  C   UNL     1       0.745  -0.718   2.257  0.00  0.00    +0.046 A 
ATOM     21  C   UNL     1       0.666  -1.485   3.404  0.00  0.00    +0.009 A 
ATOM     22  C   UNL     1      -0.407  -1.338   4.263  0.00  0.00    -0.023 A 
ATOM     23  C   UNL     1      -1.401  -0.419   3.980  0.00  0.00    +0.009 A 
ATOM     24  C   UNL     1      -1.324   0.354   2.838  0.00  0.00    +0.046 A 
BRANCH  19  25
ATOM     25  O   UNL     1      -0.170   0.968   0.851  0.00  0.00    -0.489 OA
BRANCH  25  27
ATOM     26  C   UNL     1       2.164   1.419   0.416  0.00  0.00    +0.051 C 
ATOM     27  C   UNL     1       0.904   0.687  -0.049  0.00  0.00    +0.167 C 
ATOM     28  C   UNL     1       0.529   1.161  -1.455  0.00  0.00    +0.051 C 
ENDBRANCH  25  27
ENDBRANCH  19  25
ENDBRANCH   1  22
BRANCH   5  29
ATOM     29  C   UNL     1       3.304  -0.593   9.575  0.00  0.00    -0.040 A 
ATOM     30  C   UNL     1       4.333   0.158   9.037  0.00  0.00    +0.008 A 
ATOM     31  C   UNL     1       5.336   0.646   9.854  0.00  0.00    +0.050 A 
ATOM     32  C   UNL     1       5.312   0.384  11.214  0.00  0.00    +0.162 A 
ATOM     33  C   UNL     1       4.276  -0.372  11.755  0.00  0.00    +0.162 A 
ATOM     34  C   UNL     1       3.271  -0.854  10.932  0.00  0.00    +0.053 A 
BRANCH  33  35
ATOM     35  O   UNL     1       4.247  -0.632  13.090  0.00  0.00    -0.491 OA
ATOM     36  C   UNL     1       3.154  -1.414  13.575  0.00  0.00    +0.277 C 
ENDBRANCH  33  35
BRANCH  32  37
ATOM     37  O   UNL     1       6.298   0.863  12.019  0.00  0.00    -0.486 OA
BRANCH  37  38
ATOM     38  C   UNL     1       7.316   1.651  11.398  0.00  0.00    +0.167 C 
ATOM     39  C   UNL     1       7.954   2.572  12.440  0.00  0.00    +0.051 C 
ATOM     40  C   UNL     1       8.385   0.729  10.809  0.00  0.00    +0.051 C 
ENDBRANCH  37  38
ENDBRANCH  32  37
ENDBRANCH   5  29
TORSDOF 7
