REMARK  Name = ZINC31915603
REMARK  8 active torsions:
REMARK  status: ('A' for Active; 'I' for Inactive)
REMARK    1  A    between atoms: C_1  and  C_2
REMARK    2  A    between atoms: C_9  and  C_15
REMARK    3  A    between atoms: C_10  and  C_11
REMARK    4  A    between atoms: C_11  and  C_13
REMARK    5  A    between atoms: C_17  and  O_23
REMARK    6  A    between atoms: C_20  and  O_21
REMARK    7  A    between atoms: O_21  and  C_22
REMARK    8  A    between atoms: O_23  and  C_24
REMARK                            x       y       z     vdW  Elec       q    Type
REMARK                         _______ _______ _______ _____ _____    ______ ____
ROOT
ATOM      1  C   UNL     1      -8.834   1.224   5.397  0.00  0.00    +0.047 C 
ATOM      2  C   UNL     1      -7.589   1.829   5.993  0.00  0.00    -0.008 A 
ATOM      3  C   UNL     1      -7.611   2.345   7.251  0.00  0.00    +0.008 A 
ATOM      4  C   UNL     1      -6.443   2.906   7.793  0.00  0.00    +0.018 A 
ATOM      5  C   UNL     1      -5.303   2.934   7.072  0.00  0.00    +0.093 A 
ATOM      6  N   UNL     1      -5.266   2.420   5.808  0.00  0.00    -0.301 N 
ATOM      7  C   UNL     1      -6.391   1.866   5.252  0.00  0.00    +0.141 A 
ATOM      8  N   UNL     1      -6.089   1.452   4.030  0.00  0.00    -0.227 NA
ATOM      9  C   UNL     1      -4.796   1.715   3.783  0.00  0.00    +0.098 A 
ATOM     10  C   UNL     1      -4.266   2.323   4.881  0.00  0.00    +0.068 A 
ENDROOT
BRANCH   9  11
ATOM     11  C   UNL     1      -4.070   1.403   2.527  0.00  0.00    +0.047 A 
ATOM     12  C   UNL     1      -2.828   0.774   2.576  0.00  0.00    +0.059 A 
ATOM     13  C   UNL     1      -2.153   0.490   1.401  0.00  0.00    +0.121 A 
ATOM     14  C   UNL     1      -2.716   0.821   0.176  0.00  0.00    +0.049 A 
ATOM     15  C   UNL     1      -3.950   1.440   0.122  0.00  0.00    +0.050 A 
ATOM     16  C   UNL     1      -4.632   1.734   1.292  0.00  0.00    +0.130 A 
BRANCH  16  17
ATOM     17  O   UNL     1      -5.846   2.344   1.237  0.00  0.00    -0.494 OA
ATOM     18  C   UNL     1      -6.359   2.653  -0.060  0.00  0.00    +0.277 C 
ENDBRANCH  16  17
BRANCH  13  19
ATOM     19  O   UNL     1      -0.938  -0.120   1.447  0.00  0.00    -0.495 OA
ATOM     20  C   UNL     1      -0.300  -0.389   0.197  0.00  0.00    +0.277 C 
ENDBRANCH  13  19
ENDBRANCH   9  11
BRANCH  10  21
ATOM     21  C   UNL     1      -2.846   2.799   5.043  0.00  0.00    +0.126 C 
ATOM     22  C   UNL     1      -2.092   1.849   5.976  0.00  0.00    +0.031 C 
ATOM     23 CL   UNL     1      -2.845   4.458   5.749  0.00  0.00    -0.115 Cl
ENDBRANCH  10  21
TORSDOF 4
