REMARK  Name = ZINC54623139
REMARK  9 active torsions:
REMARK  status: ('A' for Active; 'I' for Inactive)
REMARK    1  A    between atoms: C_1  and  C_2
REMARK    2  A    between atoms: C_3  and  C_31
REMARK    3  A    between atoms: C_4  and  C_21
REMARK    4  A    between atoms: C_9  and  S_11
REMARK    5  A    between atoms: S_11  and  C_12
REMARK    6  A    between atoms: C_12  and  C_13
REMARK    7  A    between atoms: C_31  and  O_33
REMARK    8  A    between atoms: O_33  and  C_34
REMARK    9  A    between atoms: C_34  and  C_35
REMARK                            x       y       z     vdW  Elec       q    Type
REMARK                         _______ _______ _______ _____ _____    ______ ____
ROOT
ATOM      1  C   UNL     1       0.009   1.494   0.004  0.00  0.00    +0.061 C 
ATOM      2  C   UNL     1       0.018  -0.013  -0.001  0.00  0.00    +0.020 C 
ATOM      3  C   UNL     1      -1.153  -0.669   0.000  0.00  0.00    +0.082 C 
ATOM      4  C   UNL     1      -1.253  -2.171  -0.016  0.00  0.00    +0.180 C 
ATOM      5  N   UNL     1       0.060  -2.749   0.261  0.00  0.00    -0.220 N 
ATOM      6  C   UNL     1       1.211  -2.033   0.255  0.00  0.00    +0.219 A 
ATOM      7  N   UNL     1       2.195  -2.845   0.531  0.00  0.00    -0.187 NA
ATOM      8  C   UNL     1       1.715  -4.082   0.723  0.00  0.00    +0.211 A 
ATOM      9  N   UNL     1       0.408  -4.064   0.566  0.00  0.00    -0.141 NA
ATOM     10  N   UNL     1       1.224  -0.669  -0.011  0.00  0.00    -0.287 N 
ATOM     11  H   UNL     1       2.052  -0.199  -0.193  0.00  0.00    +0.155 HD
ENDROOT
BRANCH   4  12
ATOM     12  C   UNL     1      -1.728  -2.629  -1.371  0.00  0.00    -0.011 A 
ATOM     13  C   UNL     1      -1.064  -2.244  -2.495  0.00  0.00    +0.007 A 
ATOM     14  C   UNL     1      -1.488  -2.657  -3.756  0.00  0.00    +0.001 A 
ATOM     15  C   UNL     1      -2.581  -3.457  -3.901  0.00  0.00    +0.008 A 
ATOM     16  C   UNL     1      -3.292  -3.874  -2.763  0.00  0.00    -0.018 A 
ATOM     17  C   UNL     1      -2.857  -3.459  -1.480  0.00  0.00    -0.012 A 
ATOM     18  C   UNL     1      -3.566  -3.881  -0.342  0.00  0.00    +0.009 A 
ATOM     19  C   UNL     1      -4.654  -4.685  -0.486  0.00  0.00    +0.001 A 
ATOM     20  C   UNL     1      -5.079  -5.098  -1.748  0.00  0.00    +0.001 A 
ATOM     21  C   UNL     1      -4.425  -4.699  -2.873  0.00  0.00    +0.008 A 
ENDBRANCH   4  12
BRANCH   3  22
ATOM     22  C   UNL     1      -2.347   0.085   0.018  0.00  0.00    +0.339 C 
ATOM     23  O   UNL     1      -2.299   1.301   0.031  0.00  0.00    -0.245 OA
BRANCH  22  24
ATOM     24  O   UNL     1      -3.542  -0.543   0.019  0.00  0.00    -0.457 OA
BRANCH  24  25
ATOM     25  C   UNL     1      -4.708   0.283   0.036  0.00  0.00    +0.259 C 
BRANCH  25  26
ATOM     26  C   UNL     1      -5.939  -0.587   0.035  0.00  0.00    +0.006 C 
ATOM     27  C   UNL     1      -6.931  -0.319   0.848  0.00  0.00    +0.007 C 
ENDBRANCH  25  26
ENDBRANCH  24  25
ENDBRANCH  22  24
ENDBRANCH   3  22
BRANCH   8  28
ATOM     28  S   UNL     1       2.678  -5.503   1.120  0.00  0.00    -0.080 S 
BRANCH  28  29
ATOM     29  C   UNL     1       4.378  -4.874   1.194  0.00  0.00    +0.114 C 
BRANCH  29  30
ATOM     30  C   UNL     1       5.317  -6.004   1.531  0.00  0.00    -0.019 A 
ATOM     31  C   UNL     1       5.606  -6.293   2.851  0.00  0.00    +0.006 A 
ATOM     32  C   UNL     1       6.467  -7.329   3.160  0.00  0.00    +0.000 A 
ATOM     33  C   UNL     1       7.040  -8.077   2.148  0.00  0.00    +0.001 A 
ATOM     34  C   UNL     1       6.752  -7.789   0.827  0.00  0.00    +0.020 A 
ATOM     35  C   UNL     1       5.885  -6.756   0.518  0.00  0.00    +0.045 A 
ATOM     36 CL   UNL     1       5.518  -6.398  -1.140  0.00  0.00    -0.083 Cl
ENDBRANCH  29  30
ENDBRANCH  28  29
ENDBRANCH   8  28
TORSDOF 8
