REMARK  Name = ZINC39754667
REMARK  12 active torsions:
REMARK  status: ('A' for Active; 'I' for Inactive)
REMARK    1  A    between atoms: C_1  and  C_2
REMARK    2  A    between atoms: C_3  and  C_35
REMARK    3  A    between atoms: N_9  and  C_21
REMARK    4  A    between atoms: C_10  and  C_13
REMARK    5  A    between atoms: C_13  and  N_14
REMARK    6  A    between atoms: C_17  and  C_20
REMARK    7  A    between atoms: C_21  and  C_22
REMARK    8  A    between atoms: C_22  and  C_24
REMARK    9  A    between atoms: C_25  and  C_34
REMARK   10  A    between atoms: C_26  and  C_31
REMARK   11  A    between atoms: C_27  and  C_30
REMARK   12  A    between atoms: C_31  and  C_33
REMARK                            x       y       z     vdW  Elec       q    Type
REMARK                         _______ _______ _______ _____ _____    ______ ____
ROOT
ATOM      1  C   UNL     1       0.669   0.852   0.046  0.00  0.00    +0.045 C 
ATOM      2  C   UNL     1       0.698  -0.628   0.325  0.00  0.00    -0.027 A 
ATOM      3  C   UNL     1       0.964  -1.528  -0.640  0.00  0.00    -0.008 A 
ATOM      4  S   UNL     1       0.873  -3.090   0.214  0.00  0.00    -0.078 S 
ATOM      5  C   UNL     1       0.511  -2.558   1.742  0.00  0.00    +0.079 A 
ATOM      6  C   UNL     1       0.448  -1.160   1.646  0.00  0.00    +0.068 A 
ATOM      7  C   UNL     1       0.146  -0.397   2.878  0.00  0.00    +0.251 C 
ATOM      8  O   UNL     1       0.196   0.820   2.898  0.00  0.00    -0.270 OA
ATOM      9  N   UNL     1      -0.188  -1.104   3.978  0.00  0.00    -0.273 N 
ATOM     10  C   UNL     1      -0.484  -2.533   3.953  0.00  0.00    +0.145 C 
ATOM     11  N   UNL     1       0.305  -3.227   2.925  0.00  0.00    -0.321 N 
ATOM     12  C   UNL     1       1.265  -1.276  -2.095  0.00  0.00    +0.052 C 
ATOM     13  H   UNL     1       0.671  -4.112   3.079  0.00  0.00    +0.148 HD
ENDROOT
BRANCH  10  14
ATOM     14  C   UNL     1      -1.970  -2.732   3.648  0.00  0.00    -0.036 C 
BRANCH  14  15
ATOM     15  N   UNL     1      -2.320  -4.148   3.822  0.00  0.00    +0.382 N 
ATOM     16  C   UNL     1      -1.848  -4.913   2.662  0.00  0.00    -0.078 C 
ATOM     17  C   UNL     1      -2.138  -6.400   2.874  0.00  0.00    -0.016 C 
ATOM     18  C   UNL     1      -3.647  -6.602   3.041  0.00  0.00    -0.018 C 
ATOM     19  C   UNL     1      -4.141  -5.742   4.208  0.00  0.00    -0.016 C 
ATOM     20  C   UNL     1      -3.777  -4.279   3.946  0.00  0.00    -0.078 C 
ATOM     21  C   UNL     1      -3.937  -8.075   3.333  0.00  0.00    +0.007 C 
ATOM     22  H   UNL     1      -1.879  -4.502   4.658  0.00  0.00    -0.082 HD
ENDBRANCH  14  15
ENDBRANCH  10  14
BRANCH   9  23
ATOM     23  C   UNL     1      -0.257  -0.402   5.262  0.00  0.00    +0.191 C 
BRANCH  23  24
ATOM     24  C   UNL     1      -1.610   0.246   5.408  0.00  0.00    +0.197 C 
ATOM     25  O   UNL     1      -2.399   0.218   4.486  0.00  0.00    -0.289 OA
BRANCH  24  26
ATOM     26  C   UNL     1      -1.961   0.886   6.622  0.00  0.00    +0.088 A 
ATOM     27  C   UNL     1      -3.159   1.509   6.890  0.00  0.00    -0.012 A 
ATOM     28  C   UNL     1      -3.075   2.005   8.210  0.00  0.00    +0.041 A 
ATOM     29  C   UNL     1      -1.821   1.663   8.696  0.00  0.00    +0.024 A 
ATOM     30  N   UNL     1      -1.163   0.989   7.743  0.00  0.00    -0.355 N 
ATOM     31  H   UNL     1      -0.265   0.632   7.828  0.00  0.00    +0.166 HD
ATOM     32  C   UNL     1      -1.291   1.990  10.068  0.00  0.00    +0.064 C 
ATOM     33  C   UNL     1      -4.335   1.636   5.955  0.00  0.00    +0.047 C 
BRANCH  28  34
ATOM     34  C   UNL     1      -4.117   2.744   8.932  0.00  0.00    +0.162 C 
ATOM     35  O   UNL     1      -4.214   3.945   8.794  0.00  0.00    -0.292 OA
ATOM     36  C   UNL     1      -5.067   2.010   9.843  0.00  0.00    +0.091 C 
ENDBRANCH  28  34
ENDBRANCH  24  26
ENDBRANCH  23  24
ENDBRANCH   9  23
TORSDOF 6
