REMARK  Name = ZINC04532041
REMARK  10 active torsions:
REMARK  status: ('A' for Active; 'I' for Inactive)
REMARK    1  A    between atoms: C_1  and  C_2
REMARK    2  A    between atoms: C_2  and  C_4
REMARK    3  A    between atoms: C_2  and  C_10
REMARK    4  A    between atoms: C_4  and  C_5
REMARK    5  A    between atoms: C_5  and  C_6
REMARK    6  A    between atoms: C_6  and  O_8
REMARK    7  A    between atoms: O_8  and  C_9
REMARK    8  A    between atoms: C_16  and  C_36
REMARK    9  A    between atoms: C_19  and  O_35
REMARK   10  A    between atoms: C_29  and  C_34
REMARK                            x       y       z     vdW  Elec       q    Type
REMARK                         _______ _______ _______ _____ _____    ______ ____
ROOT
ATOM      1  C   UNL     1       1.124  -0.503  -1.216  0.00  0.00    +0.005 C 
ATOM      2  C   UNL     1       2.661  -0.307  -1.198  0.00  0.00    +0.005 C 
ATOM      3  C   UNL     1       3.290  -1.703  -1.464  0.00  0.00    +0.005 C 
ATOM      4  C   UNL     1       2.117  -2.504  -2.030  0.00  0.00    +0.006 C 
ATOM      5  C   UNL     1       0.938  -2.029  -1.150  0.00  0.00    +0.035 C 
ATOM      6  C   UNL     1      -0.315  -2.547  -1.785  0.00  0.00    +0.168 C 
ATOM      7  O   UNL     1      -1.281  -1.833  -1.982  0.00  0.00    -0.294 OA
ATOM      8  C   UNL     1      -0.321  -4.021  -2.176  0.00  0.00    +0.185 C 
ATOM      9  C   UNL     1       0.948  -4.717  -1.707  0.00  0.00    +0.035 C 
ATOM     10  C   UNL     1       2.222  -3.989  -2.112  0.00  0.00    -0.000 C 
ATOM     11  C   UNL     1       3.429  -4.545  -1.359  0.00  0.00    +0.004 C 
ATOM     12  C   UNL     1       3.359  -6.080  -1.346  0.00  0.00    +0.004 C 
ATOM     13  C   UNL     1       2.467  -6.519  -2.495  0.00  0.00    -0.005 C 
ATOM     14  C   UNL     1       1.007  -6.162  -2.211  0.00  0.00    -0.023 C 
ATOM     15  C   UNL     1       0.205  -6.378  -3.489  0.00  0.00    +0.007 C 
ATOM     16  C   UNL     1       0.317  -7.842  -3.926  0.00  0.00    +0.001 C 
ATOM     17  C   UNL     1       1.770  -8.267  -4.106  0.00  0.00    +0.000 C 
ATOM     18  C   UNL     1       2.591  -7.995  -2.839  0.00  0.00    +0.004 C 
ATOM     19  C   UNL     1       0.451  -7.058  -1.102  0.00  0.00    +0.012 C 
ATOM     20  C   UNL     1       1.063  -2.464   0.306  0.00  0.00    +0.020 C 
ENDROOT
BRANCH   1  22
ATOM     21  C   UNL     1      -1.023  -0.085  -0.014  0.00  0.00    +0.008 C 
ATOM     22  C   UNL     1       0.488   0.153   0.007  0.00  0.00    -0.010 C 
BRANCH  22  23
ATOM     23  C   UNL     1       0.768   1.657  -0.018  0.00  0.00    +0.015 C 
BRANCH  23  24
ATOM     24  C   UNL     1       0.239   2.296   1.268  0.00  0.00    +0.121 C 
BRANCH  24  25
ATOM     25  C   UNL     1       0.515   3.777   1.244  0.00  0.00    +0.307 C 
ATOM     26  O   UNL     1       1.076   4.271   0.295  0.00  0.00    -0.251 OA
BRANCH  25  27
ATOM     27  O   UNL     1       0.137   4.547   2.276  0.00  0.00    -0.468 OA
ATOM     28  C   UNL     1       0.435   5.965   2.184  0.00  0.00    +0.280 C 
ENDBRANCH  25  27
ENDBRANCH  24  25
ENDBRANCH  23  24
ENDBRANCH  22  23
ENDBRANCH   1  22
BRANCH   8  29
ATOM     29  O   UNL     1      -1.472  -4.646  -1.592  0.00  0.00    -0.384 OA
ATOM     30  H   UNL     1      -2.314  -4.264  -1.877  0.00  0.00    +0.210 HD
ENDBRANCH   8  29
TORSDOF 6
