REMARK  Name = ZINC09033697
REMARK  11 active torsions:
REMARK  status: ('A' for Active; 'I' for Inactive)
REMARK    1  A    between atoms: C_1  and  C_2
REMARK    2  A    between atoms: C_4  and  O_12
REMARK    3  A    between atoms: C_5  and  C_9
REMARK    4  A    between atoms: C_9  and  C_10
REMARK    5  A    between atoms: C_9  and  C_11
REMARK    6  A    between atoms: O_12  and  C_13
REMARK    7  A    between atoms: C_13  and  C_14
REMARK    8  A    between atoms: C_15  and  C_16
REMARK    9  A    between atoms: C_23  and  O_24
REMARK   10  A    between atoms: O_24  and  C_25
REMARK   11  A    between atoms: C_31  and  N_59
REMARK                            x       y       z     vdW  Elec       q    Type
REMARK                         _______ _______ _______ _____ _____    ______ ____
ROOT
ATOM      1  C   UNL     1      -0.018   1.468   0.010  0.00  0.00    +0.043 C 
ATOM      2  C   UNL     1       1.397   1.984  -0.001  0.00  0.00    -0.001 A 
ATOM      3  C   UNL     1       1.791   3.044   0.789  0.00  0.00    -0.039 A 
ATOM      4  C   UNL     1       3.102   3.491   0.745  0.00  0.00    +0.053 A 
ATOM      5  C   UNL     1       4.026   2.880  -0.087  0.00  0.00    +0.170 A 
ATOM      6  C   UNL     1       3.634   1.809  -0.882  0.00  0.00    +0.208 A 
ATOM      7  C   UNL     1       2.321   1.364  -0.837  0.00  0.00    +0.168 A 
ATOM      8  O   UNL     1       4.713   1.383  -1.604  0.00  0.00    -0.449 OA
ATOM      9  C   UNL     1       5.664   2.463  -1.546  0.00  0.00    +0.467 C 
ATOM     10  O   UNL     1       5.350   3.128  -0.308  0.00  0.00    -0.452 OA
ATOM     11  C   UNL     1       0.828   3.739   1.717  0.00  0.00    +0.017 C 
ATOM     12  C   UNL     1      -0.611   3.397   1.327  0.00  0.00    -0.072 C 
ATOM     13  C   UNL     1      -2.135   1.519   1.179  0.00  0.00    -0.094 C 
ATOM     14  N   UNL     1      -0.713   1.928   1.224  0.00  0.00    +0.390 N 
ATOM     15  H   UNL     1      -0.269   1.502   2.046  0.00  0.00    -0.080 HD
ENDROOT
BRANCH   1  17
ATOM     16  C   UNL     1       0.018  -1.178  -0.004  0.00  0.00    -0.063 C 
ATOM     17  C   UNL     1       0.002  -0.004   0.002  0.00  0.00    -0.109 C 
BRANCH  16  18
ATOM     18  C   UNL     1       0.038  -2.650  -0.013  0.00  0.00    +0.317 C 
BRANCH  18  19
ATOM     19  O   UNL     1       0.729  -3.123   1.145  0.00  0.00    -0.479 OA
BRANCH  19  23
ATOM     20  C   UNL     1      -0.192  -7.609  -0.544  0.00  0.00    +0.045 C 
ATOM     21  C   UNL     1       0.403  -6.687   0.490  0.00  0.00    -0.029 A 
ATOM     22  C   UNL     1       0.291  -5.318   0.340  0.00  0.00    +0.050 A 
ATOM     23  C   UNL     1       0.838  -4.470   1.291  0.00  0.00    +0.126 A 
ATOM     24  C   UNL     1       1.501  -4.998   2.389  0.00  0.00    -0.002 A 
ATOM     25  C   UNL     1       1.608  -6.368   2.538  0.00  0.00    +0.027 A 
ATOM     26  C   UNL     1       1.060  -7.212   1.587  0.00  0.00    +0.044 A 
ATOM     27 CL   UNL     1       1.200  -8.932   1.773  0.00  0.00    -0.083 Cl
BRANCH  24  28
ATOM     28  C   UNL     1       2.102  -4.079   3.421  0.00  0.00    +0.016 C 
ATOM     29  C   UNL     1       1.465  -4.357   4.784  0.00  0.00    +0.012 C 
ATOM     30  C   UNL     1       3.611  -4.322   3.504  0.00  0.00    +0.012 C 
ENDBRANCH  24  28
ENDBRANCH  19  23
ENDBRANCH  18  19
ENDBRANCH  16  18
ENDBRANCH   1  17
BRANCH   7  31
ATOM     31  O   UNL     1       1.934   0.317  -1.613  0.00  0.00    -0.491 OA
ATOM     32  C   UNL     1       1.443   0.624  -2.919  0.00  0.00    +0.277 C 
ENDBRANCH   7  31
TORSDOF 6
