REMARK  Name = ZINC28773952
REMARK  5 active torsions:
REMARK  status: ('A' for Active; 'I' for Inactive)
REMARK    1  A    between atoms: C_4  and  C_7
REMARK    2  A    between atoms: N_9  and  C_13
REMARK    3  A    between atoms: C_13  and  N_14
REMARK    4  A    between atoms: N_17  and  C_20
REMARK    5  A    between atoms: C_23  and  O_26
REMARK                            x       y       z     vdW  Elec       q    Type
REMARK                         _______ _______ _______ _____ _____    ______ ____
ROOT
ATOM      1  N   UNL     1      -0.018   1.465   0.010  0.00  0.00    +0.395 N 
ATOM      2  C   UNL     1       1.348   2.008   0.000  0.00  0.00    -0.057 C 
ATOM      3  C   UNL     1       2.103   1.504   1.232  0.00  0.00    +0.086 C 
ATOM      4  N   UNL     1       2.123   0.034   1.224  0.00  0.00    -0.333 N 
ATOM      5  C   UNL     1       0.757  -0.508   1.234  0.00  0.00    +0.086 C 
ATOM      6  C   UNL     1       0.002  -0.004   0.002  0.00  0.00    -0.057 C 
ATOM      7  H   UNL     1      -0.507   1.793   0.939  0.00  0.00    -0.079 HD
ENDROOT
BRANCH   4   8
ATOM      8  C   UNL     1       2.868  -0.463   2.299  0.00  0.00    +0.030 A 
ATOM      9  C   UNL     1       2.285  -1.345   3.199  0.00  0.00    +0.026 A 
ATOM     10  C   UNL     1       3.023  -1.840   4.257  0.00  0.00    +0.047 A 
ATOM     11  C   UNL     1       4.343  -1.447   4.426  0.00  0.00    +0.117 A 
ATOM     12  C   UNL     1       4.924  -0.562   3.530  0.00  0.00    +0.047 A 
ATOM     13  C   UNL     1       4.189  -0.071   2.469  0.00  0.00    +0.026 A 
BRANCH  11  14
ATOM     14  O   UNL     1       5.066  -1.930   5.471  0.00  0.00    -0.507 OA
ATOM     15  H   UNL     1       6.113  -1.619   5.606  0.00  0.00    +0.292 HD
ENDBRANCH  11  14
ENDBRANCH   4   8
BRANCH   1  16
ATOM     16  C   UNL     1      -0.800   1.987  -1.118  0.00  0.00    +0.073 C 
BRANCH  16  19
ATOM     17  C   UNL     1      -0.684   5.588  -1.067  0.00  0.00    +0.247 A 
ATOM     18  N   UNL     1      -0.162   4.450  -1.421  0.00  0.00    -0.131 NA
ATOM     19  N   UNL     1      -1.000   3.429  -0.949  0.00  0.00    -0.240 N 
ATOM     20  C   UNL     1      -2.029   4.029  -0.314  0.00  0.00    +0.265 A 
ATOM     21  S   UNL     1      -3.347   3.244   0.446  0.00  0.00    +0.011 S 
ATOM     22  O   UNL     1      -1.827   5.356  -0.385  0.00  0.00    -0.412 OA
BRANCH  17  26
ATOM     23  C   UNL     1       0.944   9.418  -1.919  0.00  0.00    +0.000 A 
ATOM     24  C   UNL     1      -0.239   9.315  -1.209  0.00  0.00    +0.001 A 
ATOM     25  C   UNL     1      -0.773   8.074  -0.929  0.00  0.00    +0.013 A 
ATOM     26  C   UNL     1      -0.117   6.922  -1.363  0.00  0.00    +0.038 A 
ATOM     27  C   UNL     1       1.078   7.033  -2.074  0.00  0.00    +0.013 A 
ATOM     28  C   UNL     1       1.599   8.280  -2.353  0.00  0.00    +0.001 A 
ENDBRANCH  17  26
ENDBRANCH  16  19
ENDBRANCH   1  16
TORSDOF 5
