REMARK  Name = ZINC47682566
REMARK  8 active torsions:
REMARK  status: ('A' for Active; 'I' for Inactive)
REMARK    1  A    between atoms: C_6  and  C_7
REMARK    2  A    between atoms: C_7  and  C_8
REMARK    3  A    between atoms: C_8  and  C_9
REMARK    4  A    between atoms: N_11  and  N_12
REMARK    5  A    between atoms: N_12  and  C_13
REMARK    6  A    between atoms: C_13  and  N_15
REMARK    7  A    between atoms: N_15  and  C_16
REMARK    8  A    between atoms: C_16  and  C_17
REMARK                            x       y       z     vdW  Elec       q    Type
REMARK                         _______ _______ _______ _____ _____    ______ ____
ROOT
ATOM      1  C   UNL     1      -3.040  -1.798  -1.421  0.00  0.00    +0.229 C 
ATOM      2  O   UNL     1      -3.551  -2.113  -0.367  0.00  0.00    -0.274 OA
ATOM      3  N   UNL     1      -3.631  -2.136  -2.584  0.00  0.00    -0.235 N 
ATOM      4  H   UNL     1      -3.222  -1.884  -3.427  0.00  0.00    +0.173 HD
ENDROOT
BRANCH   3   5
ATOM      5  N   UNL     1      -4.835  -2.852  -2.577  0.00  0.00    -0.246 N 
ATOM      6  H   UNL     1      -5.244  -3.105  -1.734  0.00  0.00    +0.172 HD
BRANCH   5   7
ATOM      7  C   UNL     1      -5.425  -3.191  -3.740  0.00  0.00    +0.147 C 
ATOM      8  S   UNL     1      -6.896  -4.066  -3.731  0.00  0.00    -0.017 S 
BRANCH   7   9
ATOM      9  N   UNL     1      -4.857  -2.840  -4.911  0.00  0.00    -0.323 N 
ATOM     10  H   UNL     1      -4.024  -2.344  -4.916  0.00  0.00    +0.148 HD
BRANCH   9  11
ATOM     11  C   UNL     1      -5.499  -3.207  -6.176  0.00  0.00    +0.134 C 
BRANCH  11  12
ATOM     12  C   UNL     1      -4.655  -2.693  -7.344  0.00  0.00    +0.135 C 
ATOM     13  C   UNL     1      -5.383  -2.969  -8.677  0.00  0.00    +0.035 C 
ATOM     14  C   UNL     1      -4.214  -3.383  -9.612  0.00  0.00    +0.031 C 
ATOM     15  C   UNL     1      -3.286  -4.119  -8.613  0.00  0.00    +0.160 C 
ATOM     16  O   UNL     1      -3.402  -3.386  -7.381  0.00  0.00    -0.375 OA
ENDBRANCH  11  12
ENDBRANCH   9  11
ENDBRANCH   7   9
ENDBRANCH   5   7
ENDBRANCH   3   5
BRANCH   1  17
ATOM     17  C   UNL     1      -1.745  -1.027  -1.429  0.00  0.00    +0.102 C 
BRANCH  17  18
ATOM     18  C   UNL     1      -1.293  -0.774   0.010  0.00  0.00    +0.044 C 
BRANCH  18  24
ATOM     19  C   UNL     1      -0.017   1.378   0.010  0.00  0.00    +0.006 A 
ATOM     20  C   UNL     1       1.170   2.087   0.002  0.00  0.00    +0.041 A 
ATOM     21  C   UNL     1       2.379   1.413  -0.013  0.00  0.00    +0.158 A 
ATOM     22  C   UNL     1       2.397   0.026  -0.021  0.00  0.00    +0.159 A 
ATOM     23  C   UNL     1       1.208  -0.680  -0.013  0.00  0.00    +0.045 A 
ATOM     24  C   UNL     1       0.002  -0.004   0.002  0.00  0.00    -0.044 A 
ATOM     25  F   UNL     1       3.576  -0.634  -0.036  0.00  0.00    -0.202 F 
ATOM     26  F   UNL     1       3.539   2.105  -0.021  0.00  0.00    -0.202 F 
ENDBRANCH  18  24
ENDBRANCH  17  18
ENDBRANCH   1  17
TORSDOF 8
