REMARK  Name = ZINC18172551
REMARK  9 active torsions:
REMARK  status: ('A' for Active; 'I' for Inactive)
REMARK    1  A    between atoms: C_1  and  C_2
REMARK    2  A    between atoms: C_2  and  C_3
REMARK    3  A    between atoms: C_3  and  C_4
REMARK    4  A    between atoms: C_4  and  C_5
REMARK    5  A    between atoms: C_5  and  C_6
REMARK    6  A    between atoms: C_18  and  C_20
REMARK    7  A    between atoms: C_23  and  C_26
REMARK    8  A    between atoms: C_30  and  C_33
REMARK    9  A    between atoms: C_36  and  C_39
REMARK                            x       y       z     vdW  Elec       q    Type
REMARK                         _______ _______ _______ _____ _____    ______ ____
ROOT
ATOM      1  C   UNL     1      -0.590   6.108  -0.845  0.00  0.00    +0.221 C 
ATOM      2  O   UNL     1      -0.503   7.314  -0.741  0.00  0.00    -0.275 OA
ATOM      3  N   UNL     1      -0.111   5.311   0.130  0.00  0.00    -0.258 N 
ATOM      4  C   UNL     1      -0.217   3.925  -0.002  0.00  0.00    +0.058 A 
ATOM      5  C   UNL     1      -1.449   3.291  -0.006  0.00  0.00    +0.025 A 
ATOM      6  C   UNL     1      -1.503   1.910  -0.085  0.00  0.00    +0.002 A 
ATOM      7  C   UNL     1      -0.338   1.167  -0.148  0.00  0.00    +0.002 A 
ATOM      8  C   UNL     1       0.894   1.799  -0.161  0.00  0.00    +0.025 A 
ATOM      9  C   UNL     1       0.948   3.181  -0.104  0.00  0.00    +0.053 A 
ATOM     10  N   UNL     1       2.143   3.880  -0.209  0.00  0.00    -0.316 N 
ATOM     11  C   UNL     1       2.665   4.672   0.763  0.00  0.00    +0.017 C 
ATOM     12  C   UNL     1       1.975   5.594   1.455  0.00  0.00    +0.037 C 
ATOM     13  C   UNL     1       0.506   5.905   1.297  0.00  0.00    +0.147 C 
ATOM     14  C   UNL     1       2.624   6.382   2.435  0.00  0.00    +0.163 C 
ATOM     15  O   UNL     1       1.971   7.197   3.058  0.00  0.00    -0.292 OA
ATOM     16  C   UNL     1       4.087   6.247   2.733  0.00  0.00    +0.088 C 
ATOM     17  C   UNL     1       4.799   5.756   1.467  0.00  0.00    +0.032 C 
ATOM     18  C   UNL     1       4.141   4.445   1.042  0.00  0.00    +0.059 C 
ATOM     19  H   UNL     1       2.642   3.797  -1.036  0.00  0.00    +0.152 HD
ENDROOT
BRANCH  13  20
ATOM     20  C   UNL     1      -0.221   5.415   2.523  0.00  0.00    -0.022 A 
ATOM     21  C   UNL     1      -0.823   6.320   3.377  0.00  0.00    +0.006 A 
ATOM     22  C   UNL     1      -1.494   5.870   4.500  0.00  0.00    +0.004 A 
ATOM     23  C   UNL     1      -1.554   4.516   4.772  0.00  0.00    -0.050 A 
ATOM     24  C   UNL     1      -0.947   3.612   3.921  0.00  0.00    +0.004 A 
ATOM     25  C   UNL     1      -0.280   4.061   2.796  0.00  0.00    +0.006 A 
ATOM     26  C   UNL     1      -2.281   4.026   5.998  0.00  0.00    +0.044 C 
ENDBRANCH  13  20
BRANCH  17  27
ATOM     27  C   UNL     1       6.259   5.524   1.760  0.00  0.00    -0.043 A 
ATOM     28  C   UNL     1       6.633   4.611   2.728  0.00  0.00    +0.004 A 
ATOM     29  C   UNL     1       7.972   4.394   2.994  0.00  0.00    +0.003 A 
ATOM     30  C   UNL     1       8.937   5.097   2.298  0.00  0.00    -0.050 A 
ATOM     31  C   UNL     1       8.563   6.014   1.333  0.00  0.00    +0.003 A 
ATOM     32  C   UNL     1       7.224   6.227   1.064  0.00  0.00    +0.004 A 
ATOM     33  C   UNL     1      10.397   4.864   2.590  0.00  0.00    +0.044 C 
ENDBRANCH  17  27
BRANCH   1  34
ATOM     34  C   UNL     1      -1.235   5.503  -2.065  0.00  0.00    +0.096 C 
BRANCH  34  35
ATOM     35  C   UNL     1      -1.689   6.618  -3.009  0.00  0.00    +0.009 C 
BRANCH  35  36
ATOM     36  C   UNL     1      -2.343   6.003  -4.248  0.00  0.00    +0.000 C 
BRANCH  36  38
ATOM     37  C   UNL     1      -3.452   6.503  -6.430  0.00  0.00    +0.004 C 
ATOM     38  C   UNL     1      -2.798   7.118  -5.191  0.00  0.00    -0.003 C 
ENDBRANCH  36  38
ENDBRANCH  35  36
ENDBRANCH  34  35
ENDBRANCH   1  34
TORSDOF 6
