REMARK  Name = ZINC39450839
REMARK  6 active torsions:
REMARK  status: ('A' for Active; 'I' for Inactive)
REMARK    1  A    between atoms: C_1  and  C_2
REMARK    2  A    between atoms: C_2  and  C_3
REMARK    3  A    between atoms: C_2  and  S_4
REMARK    4  A    between atoms: S_4  and  C_7
REMARK    5  A    between atoms: N_13  and  S_16
REMARK    6  A    between atoms: S_16  and  C_19
REMARK                            x       y       z     vdW  Elec       q    Type
REMARK                         _______ _______ _______ _____ _____    ______ ____
ROOT
ATOM      1  C   UNL     1       2.788  -0.270  -2.021  0.00  0.00    +0.107 A 
ATOM      2  C   UNL     1       3.074   0.964  -2.580  0.00  0.00    +0.044 A 
ATOM      3  C   UNL     1       4.215   1.634  -2.138  0.00  0.00    +0.070 A 
ATOM      4  C   UNL     1       5.026   1.037  -1.149  0.00  0.00    +0.099 A 
ATOM      5  C   UNL     1       6.222   1.763  -0.700  0.00  0.00    +0.085 A 
ATOM      6  C   UNL     1       6.523   2.995  -1.250  0.00  0.00    +0.134 A 
ATOM      7  N   UNL     1       5.707   3.562  -2.220  0.00  0.00    -0.170 N 
ATOM      8  C   UNL     1       4.598   2.948  -2.672  0.00  0.00    +0.281 A 
ATOM      9  O   UNL     1       3.913   3.482  -3.525  0.00  0.00    -0.265 OA
ATOM     10  C   UNL     1       7.680   3.689  -0.826  0.00  0.00    +0.187 C 
ATOM     11  O   UNL     1       7.917   4.793  -1.274  0.00  0.00    -0.290 OA
ATOM     12  C   UNL     1       8.621   3.074   0.176  0.00  0.00    +0.138 C 
ATOM     13  C   UNL     1       7.835   2.141   1.105  0.00  0.00    +0.259 C 
ATOM     14  N   UNL     1       7.043   1.223   0.271  0.00  0.00    -0.311 N 
ATOM     15  F   UNL     1       6.983   2.894   1.919  0.00  0.00    -0.224 F 
ATOM     16  N   UNL     1       4.704  -0.149  -0.648  0.00  0.00    -0.251 NA
ATOM     17  C   UNL     1       3.629  -0.793  -1.049  0.00  0.00    +0.138 A 
ATOM     18  H   UNL     1       7.096   0.263   0.401  0.00  0.00    +0.149 HD
ENDROOT
BRANCH   1  19
ATOM     19  S   UNL     1       1.361  -1.167  -2.536  0.00  0.00    +0.001 S 
ATOM     20  O   UNL     1       1.677  -2.528  -2.279  0.00  0.00    -0.169 OA
ATOM     21  O   UNL     1       1.110  -0.719  -3.861  0.00  0.00    -0.169 OA
BRANCH  19  23
ATOM     22  C   UNL     1      -0.158   0.897  -1.580  0.00  0.00    +0.032 C 
ATOM     23  C   UNL     1       0.037  -0.612  -1.427  0.00  0.00    +0.130 C 
ATOM     24  C   UNL     1      -1.264  -1.333  -1.785  0.00  0.00    +0.032 C 
ENDBRANCH  19  23
ENDBRANCH   1  19
BRANCH   7  25
ATOM     25  S   UNL     1       6.112   5.043  -2.841  0.00  0.00    +0.087 S 
ATOM     26  O   UNL     1       7.527   5.057  -2.967  0.00  0.00    -0.148 OA
ATOM     27  O   UNL     1       5.246   5.271  -3.944  0.00  0.00    -0.148 OA
BRANCH  25  28
ATOM     28  C   UNL     1       5.703   6.248  -1.622  0.00  0.00    +0.111 A 
ATOM     29  C   UNL     1       4.445   6.820  -1.610  0.00  0.00    +0.029 A 
ATOM     30  C   UNL     1       4.124   7.765  -0.653  0.00  0.00    +0.002 A 
ATOM     31  C   UNL     1       5.062   8.138   0.291  0.00  0.00    +0.000 A 
ATOM     32  C   UNL     1       6.320   7.566   0.280  0.00  0.00    +0.002 A 
ATOM     33  C   UNL     1       6.639   6.618  -0.674  0.00  0.00    +0.029 A 
ENDBRANCH  25  28
ENDBRANCH   7  25
TORSDOF 4
