REMARK  Name = ZINC08874845
REMARK  9 active torsions:
REMARK  status: ('A' for Active; 'I' for Inactive)
REMARK    1  A    between atoms: C_1  and  C_2
REMARK    2  A    between atoms: C_2  and  O_3
REMARK    3  A    between atoms: O_3  and  C_4
REMARK    4  A    between atoms: C_6  and  C_13
REMARK    5  A    between atoms: C_8  and  N_10
REMARK    6  A    between atoms: C_22  and  C_26
REMARK    7  A    between atoms: C_26  and  C_27
REMARK    8  A    between atoms: C_26  and  C_28
REMARK    9  A    between atoms: C_26  and  C_29
REMARK                            x       y       z     vdW  Elec       q    Type
REMARK                         _______ _______ _______ _____ _____    ______ ____
ROOT
ATOM      1  C   UNL     1       3.777   3.122  -0.532  0.00  0.00    +0.190 C 
ATOM      2  N   UNL     1       2.406   3.214   0.003  0.00  0.00    -0.316 N 
ATOM      3  C   UNL     1       1.665   2.060  -0.003  0.00  0.00    +0.080 A 
ATOM      4  C   UNL     1       2.243   0.782  -0.018  0.00  0.00    +0.068 A 
ATOM      5  C   UNL     1       1.312  -0.335  -0.013  0.00  0.00    -0.023 A 
ATOM      6  C   UNL     1       0.002  -0.004   0.002  0.00  0.00    -0.004 A 
ATOM      7  S   UNL     1      -0.022   1.769   0.012  0.00  0.00    -0.078 S 
ATOM      8  C   UNL     1      -1.167  -0.939   0.008  0.00  0.00    +0.046 C 
ATOM      9  C   UNL     1      -0.663  -2.343   0.372  0.00  0.00    -0.000 C 
ATOM     10  C   UNL     1       0.571  -2.659  -0.478  0.00  0.00    +0.009 C 
ATOM     11  C   UNL     1       1.749  -1.796  -0.024  0.00  0.00    +0.037 C 
ATOM     12  C   UNL     1       3.722   0.700  -0.029  0.00  0.00    +0.248 C 
ATOM     13  O   UNL     1       4.298  -0.367   0.081  0.00  0.00    -0.270 OA
ATOM     14  N   UNL     1       4.404   1.856  -0.166  0.00  0.00    -0.289 N 
ATOM     15  H   UNL     1       2.046   4.049   0.342  0.00  0.00    +0.149 HD
ATOM     16  H   UNL     1       5.362   1.845  -0.013  0.00  0.00    +0.151 HD
ENDROOT
BRANCH   1  19
ATOM     17  C   UNL     1       4.663   2.727  -4.183  0.00  0.00    +0.170 A 
ATOM     18  C   UNL     1       4.705   2.626  -2.801  0.00  0.00    +0.056 A 
ATOM     19  C   UNL     1       3.730   3.234  -2.034  0.00  0.00    -0.004 A 
ATOM     20  C   UNL     1       2.708   3.940  -2.641  0.00  0.00    +0.044 A 
ATOM     21  C   UNL     1       2.663   4.050  -4.018  0.00  0.00    +0.177 A 
ATOM     22  C   UNL     1       3.638   3.442  -4.794  0.00  0.00    +0.250 A 
ATOM     23  O   UNL     1       3.592   3.546  -6.149  0.00  0.00    -0.282 OA
BRANCH  21  24
ATOM     24  N   UNL     1       1.571   4.812  -4.665  0.00  0.00    +0.060 N 
ATOM     25  O   UNL     1       0.715   5.346  -3.983  0.00  0.00    -0.126 OA
ATOM     26  O   UNL     1       1.530   4.905  -5.879  0.00  0.00    -0.126 OA
ENDBRANCH  21  24
BRANCH  17  27
ATOM     27  O   UNL     1       5.622   2.129  -4.940  0.00  0.00    -0.488 OA
BRANCH  27  29
ATOM     28  C   UNL     1       7.623   0.812  -5.255  0.00  0.00    +0.048 C 
ATOM     29  C   UNL     1       6.643   1.411  -4.244  0.00  0.00    +0.226 C 
ENDBRANCH  27  29
ENDBRANCH  17  27
ENDBRANCH   1  19
BRANCH   9  30
ATOM     30  C   UNL     1      -1.759  -3.372   0.086  0.00  0.00    -0.035 C 
ATOM     31  C   UNL     1      -1.248  -4.772   0.433  0.00  0.00    +0.011 C 
ATOM     32  C   UNL     1      -2.991  -3.054   0.937  0.00  0.00    +0.011 C 
ATOM     33  C   UNL     1      -2.135  -3.318  -1.395  0.00  0.00    +0.011 C 
ENDBRANCH   9  30
TORSDOF 5
