REMARK  Name = ZINC64137398
REMARK  8 active torsions:
REMARK  status: ('A' for Active; 'I' for Inactive)
REMARK    1  A    between atoms: C_1  and  N_2
REMARK    2  A    between atoms: N_2  and  C_3
REMARK    3  A    between atoms: C_3  and  C_5
REMARK    4  A    between atoms: C_3  and  C_13
REMARK    5  A    between atoms: C_5  and  C_6
REMARK    6  A    between atoms: N_16  and  C_19
REMARK    7  A    between atoms: C_19  and  C_20
REMARK    8  A    between atoms: C_30  and  C_32
REMARK                            x       y       z     vdW  Elec       q    Type
REMARK                         _______ _______ _______ _____ _____    ______ ____
ROOT
ATOM      1  C   UNL     1       0.174  -1.219   1.865  0.00  0.00    +0.083 C 
ENDROOT
BRANCH   1   2
ATOM      2  C   UNL     1      -1.023  -0.720   2.678  0.00  0.00    +0.006 C 
ATOM      3  C   UNL     1      -1.558   0.574   2.057  0.00  0.00    -0.013 C 
ATOM      4  C   UNL     1      -2.802   1.024   2.826  0.00  0.00    -0.078 C 
ATOM      5  N   UNL     1      -3.832  -0.019   2.752  0.00  0.00    +0.381 N 
ATOM      6  C   UNL     1      -3.352  -1.240   3.409  0.00  0.00    -0.078 C 
ATOM      7  C   UNL     1      -2.129  -1.778   2.662  0.00  0.00    -0.013 C 
ATOM      8  H   UNL     1      -4.040  -0.217   1.785  0.00  0.00    -0.082 HD
BRANCH   5   9
ATOM      9  C   UNL     1      -5.051   0.450   3.425  0.00  0.00    -0.050 C 
BRANCH   9  10
ATOM     10  C   UNL     1      -6.165  -0.583   3.241  0.00  0.00    +0.086 C 
ATOM     11  C   UNL     1      -7.474  -0.038   3.768  0.00  0.00    +0.005 C 
ATOM     12  C   UNL     1      -8.319  -0.009   2.712  0.00  0.00    -0.004 A 
ATOM     13  C   UNL     1      -9.719   0.410   2.571  0.00  0.00    +0.010 A 
ATOM     14  C   UNL     1     -10.311   0.320   1.359  0.00  0.00    +0.001 A 
ATOM     15  C   UNL     1      -9.624  -0.162   0.236  0.00  0.00    +0.002 A 
ATOM     16  C   UNL     1      -8.337  -0.566   0.287  0.00  0.00    +0.026 A 
ATOM     17  C   UNL     1      -7.615  -0.515   1.512  0.00  0.00    +0.043 A 
ATOM     18  N   UNL     1      -6.381  -0.845   1.813  0.00  0.00    -0.380 N 
ATOM     19  H   UNL     1      -5.723  -1.201   1.197  0.00  0.00    +0.160 HD
ENDBRANCH   9  10
ENDBRANCH   5   9
ENDBRANCH   1   2
BRANCH   1  21
ATOM     20  C   UNL     1      -0.756  -0.673  -0.432  0.00  0.00    +0.132 C 
ATOM     21  N   UNL     1      -0.282  -1.658   0.544  0.00  0.00    -0.294 N 
ATOM     22  C   UNL     1      -0.264  -2.967   0.225  0.00  0.00    +0.282 C 
ATOM     23  O   UNL     1       0.057  -3.792   1.060  0.00  0.00    -0.267 OA
BRANCH  22  24
ATOM     24  C   UNL     1      -0.634  -3.398  -1.127  0.00  0.00    +0.189 A 
ATOM     25  C   UNL     1      -0.738  -4.689  -1.558  0.00  0.00    +0.054 A 
ATOM     26  C   UNL     1      -1.113  -4.635  -2.909  0.00  0.00    +0.042 A 
ATOM     27  C   UNL     1      -1.220  -3.330  -3.240  0.00  0.00    +0.196 A 
ATOM     28  O   UNL     1      -0.935  -2.587  -2.163  0.00  0.00    -0.458 OA
ENDBRANCH  22  24
ENDBRANCH   1  21
BRANCH   1  29
ATOM     29  C   UNL     1       1.190  -0.086   1.705  0.00  0.00    +0.059 C 
BRANCH  29  30
ATOM     30  C   UNL     1       2.441  -0.622   1.057  0.00  0.00    -0.027 A 
ATOM     31  C   UNL     1       3.160  -1.630   1.671  0.00  0.00    +0.005 A 
ATOM     32  C   UNL     1       4.307  -2.121   1.077  0.00  0.00    +0.000 A 
ATOM     33  C   UNL     1       4.737  -1.604  -0.131  0.00  0.00    +0.001 A 
ATOM     34  C   UNL     1       4.019  -0.595  -0.745  0.00  0.00    +0.020 A 
ATOM     35  C   UNL     1       2.867  -0.107  -0.154  0.00  0.00    +0.044 A 
ATOM     36 CL   UNL     1       1.962   1.155  -0.929  0.00  0.00    -0.083 Cl
ENDBRANCH  29  30
ENDBRANCH   1  29
TORSDOF 7
