REMARK  Name = ZINC15776968
REMARK  12 active torsions:
REMARK  status: ('A' for Active; 'I' for Inactive)
REMARK    1  A    between atoms: C_1  and  C_2
REMARK    2  A    between atoms: C_5  and  N_9
REMARK    3  A    between atoms: C_6  and  C_8
REMARK    4  A    between atoms: N_9  and  C_10
REMARK    5  A    between atoms: C_10  and  N_12
REMARK    6  A    between atoms: N_12  and  C_13
REMARK    7  A    between atoms: C_13  and  C_15
REMARK    8  A    between atoms: C_13  and  N_19
REMARK    9  A    between atoms: N_19  and  O_20
REMARK   10  A    between atoms: O_20  and  C_21
REMARK   11  A    between atoms: C_21  and  C_23
REMARK   12  A    between atoms: C_23  and  C_24
REMARK                            x       y       z     vdW  Elec       q    Type
REMARK                         _______ _______ _______ _____ _____    ______ ____
ROOT
ATOM      1  C   UNL     1       3.631  -2.347   0.267  0.00  0.00    +0.228 C 
ENDROOT
BRANCH   1   2
ATOM      2  C   UNL     1       4.623  -2.765   1.353  0.00  0.00    +0.224 C 
ATOM      3 CL   UNL     1       4.115  -2.061   2.934  0.00  0.00    -0.080 Cl
ATOM      4 CL   UNL     1       4.655  -4.564   1.479  0.00  0.00    -0.080 Cl
ATOM      5 CL   UNL     1       6.269  -2.163   0.928  0.00  0.00    -0.080 Cl
ENDBRANCH   1   2
BRANCH   1   6
ATOM      6  N   UNL     1       3.605  -0.886   0.165  0.00  0.00    -0.305 N 
ATOM      7  H   UNL     1       4.435  -0.385   0.159  0.00  0.00    +0.149 HD
BRANCH   6   8
ATOM      8  C   UNL     1       2.426  -0.237   0.078  0.00  0.00    +0.136 C 
ATOM      9  S   UNL     1       0.960  -1.121   0.088  0.00  0.00    -0.019 S 
BRANCH   8  10
ATOM     10  N   UNL     1       2.402   1.107  -0.015  0.00  0.00    -0.297 N 
ATOM     11  H   UNL     1       3.233   1.603  -0.084  0.00  0.00    +0.154 HD
BRANCH  10  16
ATOM     12  C   UNL     1      -2.555   3.864  -0.011  0.00  0.00    +0.044 C 
ATOM     13  C   UNL     1      -1.238   3.131  -0.012  0.00  0.00    -0.050 A 
ATOM     14  C   UNL     1      -1.062   2.030  -0.830  0.00  0.00    +0.005 A 
ATOM     15  C   UNL     1       0.142   1.353  -0.829  0.00  0.00    +0.024 A 
ATOM     16  C   UNL     1       1.180   1.786  -0.014  0.00  0.00    +0.036 A 
ATOM     17  C   UNL     1       1.001   2.896   0.802  0.00  0.00    -0.029 A 
ATOM     18  C   UNL     1      -0.207   3.565   0.801  0.00  0.00    +0.008 A 
ATOM     19  C   UNL     1       2.124   3.369   1.688  0.00  0.00    +0.045 C 
ENDBRANCH  10  16
ENDBRANCH   8  10
ENDBRANCH   6   8
ENDBRANCH   1   6
BRANCH   1  20
ATOM     20  N   UNL     1       4.045  -2.921  -1.021  0.00  0.00    -0.127 NA
ATOM     21  H   UNL     1       4.008  -3.929  -0.996  0.00  0.00    +0.169 HD
BRANCH  20  22
ATOM     22  O   UNL     1       5.233  -2.504  -1.358  0.00  0.00    -0.367 OA
BRANCH  22  23
ATOM     23  C   UNL     1       5.731  -2.956  -2.519  0.00  0.00    +0.330 C 
ATOM     24  O   UNL     1       5.082  -3.714  -3.200  0.00  0.00    -0.249 OA
BRANCH  23  25
ATOM     25  C   UNL     1       7.099  -2.517  -2.974  0.00  0.00    +0.157 C 
BRANCH  25  26
ATOM     26  C   UNL     1       7.419  -3.162  -4.298  0.00  0.00    -0.037 A 
ATOM     27  C   UNL     1       8.060  -4.387  -4.334  0.00  0.00    +0.004 A 
ATOM     28  C   UNL     1       8.349  -4.981  -5.548  0.00  0.00    +0.000 A 
ATOM     29  C   UNL     1       8.006  -4.346  -6.727  0.00  0.00    +0.000 A 
ATOM     30  C   UNL     1       7.371  -3.118  -6.692  0.00  0.00    +0.000 A 
ATOM     31  C   UNL     1       7.077  -2.527  -5.477  0.00  0.00    +0.004 A 
ENDBRANCH  25  26
ENDBRANCH  23  25
ENDBRANCH  22  23
ENDBRANCH  20  22
ENDBRANCH   1  20
TORSDOF 10
