REMARK  Name = ZINC22609462
REMARK  7 active torsions:
REMARK  status: ('A' for Active; 'I' for Inactive)
REMARK    1  A    between atoms: C_1  and  O_2
REMARK    2  A    between atoms: O_2  and  C_3
REMARK    3  A    between atoms: C_6  and  C_9
REMARK    4  A    between atoms: C_9  and  C_11
REMARK    5  A    between atoms: C_9  and  N_20
REMARK    6  A    between atoms: C_12  and  O_19
REMARK    7  A    between atoms: N_23  and  C_26
REMARK                            x       y       z     vdW  Elec       q    Type
REMARK                         _______ _______ _______ _____ _____    ______ ____
ROOT
ATOM      1  C   UNL     1      -6.203  -0.532  -1.033  0.00  0.00    +0.129 C 
ENDROOT
BRANCH   1   2
ATOM      2  C   UNL     1      -7.358   0.431  -1.116  0.00  0.00    +0.076 A 
ATOM      3  C   UNL     1      -8.501   0.442  -0.419  0.00  0.00    +0.228 A 
ATOM      4  N   UNL     1      -9.444   1.418  -0.637  0.00  0.00    -0.174 N 
ATOM      5  C   UNL     1      -9.169   2.350  -1.590  0.00  0.00    +0.199 A 
ATOM      6  S   UNL     1      -7.567   1.853  -2.177  0.00  0.00    -0.047 S 
ATOM      7  N   UNL     1     -10.161   3.194  -1.677  0.00  0.00    -0.208 NA
ATOM      8  C   UNL     1     -11.104   2.855  -0.801  0.00  0.00    +0.246 A 
ATOM      9  N   UNL     1     -10.723   1.790  -0.148  0.00  0.00    -0.150 NA
BRANCH   3  10
ATOM     10  O   UNL     1      -8.728  -0.518   0.517  0.00  0.00    -0.492 OA
ATOM     11  H   UNL     1      -9.665  -0.514   1.093  0.00  0.00    +0.294 HD
ENDBRANCH   3  10
ENDBRANCH   1   2
BRANCH   1  15
ATOM     12  C   UNL     1      -6.299  -3.167  -4.396  0.00  0.00    +0.120 A 
ATOM     13  C   UNL     1      -6.786  -3.590  -3.168  0.00  0.00    +0.046 A 
ATOM     14  C   UNL     1      -6.753  -2.737  -2.082  0.00  0.00    +0.009 A 
ATOM     15  C   UNL     1      -6.237  -1.462  -2.219  0.00  0.00    -0.025 A 
ATOM     16  C   UNL     1      -5.756  -1.036  -3.444  0.00  0.00    +0.009 A 
ATOM     17  C   UNL     1      -5.781  -1.887  -4.531  0.00  0.00    +0.046 A 
BRANCH  12  19
ATOM     18  C   UNL     1      -5.813  -3.502  -6.699  0.00  0.00    +0.277 C 
ATOM     19  O   UNL     1      -6.331  -4.005  -5.466  0.00  0.00    -0.495 OA
ENDBRANCH  12  19
ENDBRANCH   1  15
BRANCH   1  20
ATOM     20  N   UNL     1      -4.939   0.217  -1.034  0.00  0.00    -0.288 NA
ATOM     21  C   UNL     1      -4.871   1.136   0.111  0.00  0.00    +0.104 C 
ATOM     22  C   UNL     1      -3.579   1.953   0.029  0.00  0.00    +0.120 C 
ATOM     23  N   UNL     1      -2.426   1.042   0.019  0.00  0.00    -0.327 N 
ATOM     24  C   UNL     1      -2.495   0.123  -1.126  0.00  0.00    +0.120 C 
ATOM     25  C   UNL     1      -3.786  -0.694  -1.045  0.00  0.00    +0.104 C 
BRANCH  23  26
ATOM     26  C   UNL     1      -1.225   1.755   0.017  0.00  0.00    +0.031 A 
ATOM     27  C   UNL     1      -0.013   1.076   0.008  0.00  0.00    +0.023 A 
ATOM     28  C   UNL     1       1.173   1.783   0.000  0.00  0.00    +0.003 A 
ATOM     29  C   UNL     1       1.156   3.166   0.008  0.00  0.00    +0.020 A 
ATOM     30  C   UNL     1      -0.049   3.845   0.023  0.00  0.00    +0.043 A 
ATOM     31  C   UNL     1      -1.240   3.143   0.031  0.00  0.00    +0.043 A 
ATOM     32 CL   UNL     1      -0.066   5.581   0.032  0.00  0.00    -0.083 Cl
ENDBRANCH  23  26
ENDBRANCH   1  20
TORSDOF 6
