REMARK  Name = ZINC50266703
REMARK  6 active torsions:
REMARK  status: ('A' for Active; 'I' for Inactive)
REMARK    1  A    between atoms: C_1  and  C_2
REMARK    2  A    between atoms: C_2  and  C_3
REMARK    3  A    between atoms: C_2  and  C_4
REMARK    4  A    between atoms: C_2  and  C_5
REMARK    5  A    between atoms: C_6  and  C_11
REMARK    6  A    between atoms: C_11  and  C_12
REMARK                            x       y       z     vdW  Elec       q    Type
REMARK                         _______ _______ _______ _____ _____    ______ ____
ROOT
ATOM      1  C   UNL     1       0.968  -0.117  -1.034  0.00  0.00    +0.059 A 
ATOM      2  C   UNL     1       0.977  -1.432  -1.359  0.00  0.00    +0.019 A 
ATOM      3  S   UNL     1       1.614  -1.359  -3.025  0.00  0.00    -0.057 S 
ATOM      4  C   UNL     1       1.799   0.311  -3.131  0.00  0.00    +0.156 A 
ATOM      5  N   UNL     1       1.385   0.733  -1.955  0.00  0.00    -0.229 NA
ATOM      6  N   UNL     1       2.268   1.060  -4.199  0.00  0.00    -0.338 N 
ATOM      7  H   UNL     1       2.540   0.618  -5.019  0.00  0.00    +0.144 HD
ATOM      8  H   UNL     1       2.325   2.025  -4.127  0.00  0.00    +0.144 HD
ENDROOT
BRANCH   1  10
ATOM      9  C   UNL     1       0.659   1.875   0.411  0.00  0.00    +0.017 C 
ATOM     10  C   UNL     1       0.497   0.356   0.317  0.00  0.00    +0.005 C 
ATOM     11  C   UNL     1       1.330  -0.314   1.411  0.00  0.00    +0.017 C 
ATOM     12  C   UNL     1      -0.977  -0.012   0.501  0.00  0.00    +0.017 C 
ENDBRANCH   1  10
BRANCH   2  13
ATOM     13  C   UNL     1       0.563  -2.627  -0.540  0.00  0.00    +0.079 C 
BRANCH  13  14
ATOM     14  C   UNL     1       1.766  -3.494  -0.274  0.00  0.00    -0.040 A 
ATOM     15  C   UNL     1       2.180  -4.410  -1.240  0.00  0.00    +0.006 A 
ATOM     16  C   UNL     1       3.263  -5.207  -1.032  0.00  0.00    +0.030 A 
ATOM     17  C   UNL     1       3.977  -5.110   0.175  0.00  0.00    +0.089 A 
ATOM     18  C   UNL     1       3.557  -4.179   1.158  0.00  0.00    +0.089 A 
ATOM     19  C   UNL     1       2.436  -3.368   0.903  0.00  0.00    +0.033 A 
ATOM     20  N   UNL     1       4.232  -4.081   2.308  0.00  0.00    -0.252 NA
ATOM     21  C   UNL     1       5.278  -4.849   2.515  0.00  0.00    +0.131 A 
ATOM     22  C   UNL     1       5.693  -5.765   1.547  0.00  0.00    +0.131 A 
ATOM     23  N   UNL     1       5.045  -5.879   0.410  0.00  0.00    -0.252 NA
ENDBRANCH  13  14
ENDBRANCH   2  13
TORSDOF 3
