REMARK  Name = ZINC33384432
REMARK  6 active torsions:
REMARK  status: ('A' for Active; 'I' for Inactive)
REMARK    1  A    between atoms: C_1  and  O_2
REMARK    2  A    between atoms: O_2  and  C_3
REMARK    3  A    between atoms: C_6  and  C_9
REMARK    4  A    between atoms: N_10  and  N_11
REMARK    5  A    between atoms: C_13  and  C_22
REMARK    6  A    between atoms: C_23  and  C_24
REMARK                            x       y       z     vdW  Elec       q    Type
REMARK                         _______ _______ _______ _____ _____    ______ ____
ROOT
ATOM      1  N   UNL     1       1.763  -4.946   3.649  0.00  0.00    -0.219 N 
ATOM      2  C   UNL     1       1.968  -6.300   3.458  0.00  0.00    +0.164 A 
ATOM      3  C   UNL     1       1.496  -6.951   2.234  0.00  0.00    +0.106 A 
ATOM      4  N   UNL     1       1.698  -8.249   2.063  0.00  0.00    -0.242 NA
ATOM      5  C   UNL     1       2.332  -8.956   3.007  0.00  0.00    +0.090 A 
ATOM      6  C   UNL     1       2.552 -10.335   2.835  0.00  0.00    +0.030 A 
ATOM      7  C   UNL     1       3.198 -11.043   3.801  0.00  0.00    +0.002 A 
ATOM      8  C   UNL     1       3.646 -10.422   4.964  0.00  0.00    +0.002 A 
ATOM      9  C   UNL     1       3.450  -9.089   5.165  0.00  0.00    +0.030 A 
ATOM     10  C   UNL     1       2.788  -8.324   4.189  0.00  0.00    +0.091 A 
ATOM     11  N   UNL     1       2.594  -7.010   4.375  0.00  0.00    -0.227 NA
ATOM     12  H   UNL     1       1.302  -4.425   2.972  0.00  0.00    +0.176 HD
ENDROOT
BRANCH   1  14
ATOM     13  C   UNL     1       1.924  -3.083   5.053  0.00  0.00    +0.138 C 
ATOM     14  N   UNL     1       2.221  -4.325   4.818  0.00  0.00    -0.189 NA
BRANCH  13  18
ATOM     15  C   UNL     1      -1.588  -1.385   3.377  0.00  0.00    +0.120 A 
ATOM     16  C   UNL     1      -1.418  -2.764   3.380  0.00  0.00    +0.046 A 
ATOM     17  C   UNL     1      -0.280  -3.320   3.923  0.00  0.00    +0.013 A 
ATOM     18  C   UNL     1       0.705  -2.494   4.471  0.00  0.00    -0.005 A 
ATOM     19  C   UNL     1       0.531  -1.107   4.465  0.00  0.00    +0.013 A 
ATOM     20  C   UNL     1      -0.609  -0.560   3.916  0.00  0.00    +0.046 A 
BRANCH  15  22
ATOM     21  C   UNL     1      -3.678  -1.748   2.305  0.00  0.00    +0.277 C 
ATOM     22  O   UNL     1      -2.712  -0.842   2.841  0.00  0.00    -0.495 OA
ENDBRANCH  15  22
ENDBRANCH  13  18
ENDBRANCH   1  14
BRANCH   3  23
ATOM     23  C   UNL     1       0.801  -6.171   1.204  0.00  0.00    +0.032 C 
ATOM     24  C   UNL     1      -0.204  -6.730   0.496  0.00  0.00    +0.017 C 
BRANCH  24  25
ATOM     25  C   UNL     1      -0.854  -7.946   0.984  0.00  0.00    +0.012 A 
ATOM     26  C   UNL     1      -1.786  -8.754   0.350  0.00  0.00    +0.015 A 
ATOM     27  C   UNL     1      -2.256  -9.858   1.020  0.00  0.00    +0.008 A 
ATOM     28  C   UNL     1      -1.796 -10.122   2.272  0.00  0.00    +0.046 A 
ATOM     29  S   UNL     1      -0.648  -8.783   2.547  0.00  0.00    -0.097 S 
ENDBRANCH  24  25
ENDBRANCH   3  23
TORSDOF 5
