REMARK  Name = ZINC12461669
REMARK  7 active torsions:
REMARK  status: ('A' for Active; 'I' for Inactive)
REMARK    1  A    between atoms: C_7  and  C_16
REMARK    2  A    between atoms: C_16  and  O_18
REMARK    3  A    between atoms: O_18  and  C_19
REMARK    4  A    between atoms: C_19  and  C_20
REMARK    5  A    between atoms: N_22  and  C_23
REMARK    6  A    between atoms: C_27  and  S_29
REMARK    7  A    between atoms: S_29  and  N_32
REMARK                            x       y       z     vdW  Elec       q    Type
REMARK                         _______ _______ _______ _____ _____    ______ ____
ROOT
ATOM      1  O   UNL     1      -0.566   4.630   0.449  0.00  0.00    -0.452 OA
ENDROOT
BRANCH   1   2
ATOM      2  C   UNL     1       0.194   3.760   1.142  0.00  0.00    +0.341 C 
ATOM      3  O   UNL     1       0.058   3.658   2.345  0.00  0.00    -0.245 OA
BRANCH   2  10
ATOM      4  C   UNL     1       4.228   5.035   0.548  0.00  0.00    +0.001 A 
ATOM      5  C   UNL     1       5.130   4.226  -0.140  0.00  0.00    +0.002 A 
ATOM      6  C   UNL     1       4.756   3.012  -0.626  0.00  0.00    +0.028 A 
ATOM      7  C   UNL     1       3.438   2.558  -0.431  0.00  0.00    +0.072 A 
ATOM      8  C   UNL     1       2.522   3.388   0.262  0.00  0.00    +0.015 A 
ATOM      9  C   UNL     1       2.942   4.631   0.751  0.00  0.00    +0.011 A 
ATOM     10  C   UNL     1       1.194   2.930   0.439  0.00  0.00    +0.073 A 
ATOM     11  C   UNL     1       0.853   1.674  -0.068  0.00  0.00    -0.012 A 
ATOM     12  C   UNL     1       1.817   0.911  -0.707  0.00  0.00    +0.046 A 
ATOM     13  N   UNL     1       3.044   1.367  -0.878  0.00  0.00    -0.251 NA
ATOM     14  C   UNL     1       1.529  -0.474  -1.231  0.00  0.00    +0.056 C 
ATOM     15  C   UNL     1       0.265  -0.485  -2.095  0.00  0.00    +0.006 C 
ATOM     16  C   UNL     1      -0.912  -0.849  -1.195  0.00  0.00    +0.001 C 
ATOM     17  C   UNL     1      -0.680  -0.293   0.211  0.00  0.00    +0.005 C 
ATOM     18  C   UNL     1      -0.576   1.228   0.113  0.00  0.00    +0.038 C 
ENDBRANCH   2  10
ENDBRANCH   1   2
BRANCH   1  19
ATOM     19  C   UNL     1      -1.528   5.412   1.206  0.00  0.00    +0.328 C 
BRANCH  19  20
ATOM     20  C   UNL     1      -2.281   6.322   0.270  0.00  0.00    +0.255 C 
ATOM     21  O   UNL     1      -2.032   6.313  -0.917  0.00  0.00    -0.272 OA
ATOM     22  N   UNL     1      -3.231   7.147   0.753  0.00  0.00    -0.283 N 
ATOM     23  H   UNL     1      -3.484   7.101   1.688  0.00  0.00    +0.155 HD
BRANCH  22  24
ATOM     24  C   UNL     1      -3.853   8.070  -0.095  0.00  0.00    +0.035 A 
ATOM     25  C   UNL     1      -3.139   8.651  -1.135  0.00  0.00    +0.023 A 
ATOM     26  C   UNL     1      -3.757   9.557  -1.974  0.00  0.00    +0.004 A 
ATOM     27  C   UNL     1      -5.083   9.895  -1.772  0.00  0.00    +0.028 A 
ATOM     28  C   UNL     1      -5.796   9.323  -0.735  0.00  0.00    +0.107 A 
ATOM     29  C   UNL     1      -5.184   8.412   0.105  0.00  0.00    +0.051 A 
BRANCH  28  30
ATOM     30  S   UNL     1      -7.485   9.757  -0.482  0.00  0.00    +0.056 S 
ATOM     31  O   UNL     1      -7.977  10.217  -1.732  0.00  0.00    -0.153 OA
ATOM     32  O   UNL     1      -8.081   8.674   0.220  0.00  0.00    -0.153 OA
BRANCH  30  33
ATOM     33  N   UNL     1      -7.508  11.056   0.544  0.00  0.00    -0.204 NA
ATOM     34  H   UNL     1      -8.224  11.708   0.485  0.00  0.00    +0.144 HD
ATOM     35  H   UNL     1      -6.806  11.166   1.204  0.00  0.00    +0.144 HD
ENDBRANCH  30  33
ENDBRANCH  28  30
ENDBRANCH  22  24
ENDBRANCH  19  20
ENDBRANCH   1  19
TORSDOF 7
