REMARK  Name = ZINC39030286
REMARK  12 active torsions:
REMARK  status: ('A' for Active; 'I' for Inactive)
REMARK    1  A    between atoms: C_1  and  C_2
REMARK    2  A    between atoms: C_2  and  C_4
REMARK    3  A    between atoms: C_2  and  N_11
REMARK    4  A    between atoms: N_11  and  C_12
REMARK    5  A    between atoms: C_12  and  C_13
REMARK    6  A    between atoms: C_13  and  C_14
REMARK    7  A    between atoms: C_14  and  C_24
REMARK    8  A    between atoms: C_18  and  C_21
REMARK    9  A    between atoms: C_21  and  C_22
REMARK   10  A    between atoms: C_21  and  C_23
REMARK   11  A    between atoms: C_29  and  O_30
REMARK   12  A    between atoms: O_30  and  C_31
REMARK                            x       y       z     vdW  Elec       q    Type
REMARK                         _______ _______ _______ _____ _____    ______ ____
ROOT
ATOM      1  C   UNL     1      -4.027  -0.646  -2.489  0.00  0.00    +0.002 C 
ATOM      2  C   UNL     1      -3.540  -1.459  -3.692  0.00  0.00    +0.040 C 
ATOM      3  C   UNL     1      -3.820  -2.943  -3.441  0.00  0.00    +0.161 C 
ATOM      4  O   UNL     1      -5.218  -3.130  -3.211  0.00  0.00    -0.376 OA
ATOM      5  C   UNL     1      -5.720  -2.431  -2.070  0.00  0.00    +0.122 C 
ATOM      6  C   UNL     1      -5.516  -0.926  -2.265  0.00  0.00    +0.043 C 
ENDROOT
BRANCH   1   7
ATOM      7  C   UNL     1      -3.826   0.824  -2.756  0.00  0.00    +0.001 A 
ATOM      8  C   UNL     1      -4.910   1.680  -2.764  0.00  0.00    +0.008 A 
ATOM      9  C   UNL     1      -4.726   3.028  -3.010  0.00  0.00    +0.001 A 
ATOM     10  C   UNL     1      -3.457   3.523  -3.249  0.00  0.00    +0.004 A 
ATOM     11  C   UNL     1      -2.370   2.671  -3.242  0.00  0.00    +0.046 A 
ATOM     12  C   UNL     1      -2.551   1.319  -2.990  0.00  0.00    +0.124 A 
BRANCH  12  13
ATOM     13  O   UNL     1      -1.482   0.479  -2.976  0.00  0.00    -0.495 OA
ATOM     14  C   UNL     1      -0.191   1.071  -3.128  0.00  0.00    +0.277 C 
ENDBRANCH  12  13
ENDBRANCH   1   7
BRANCH   5  15
ATOM     15  C   UNL     1      -7.212  -2.727  -1.906  0.00  0.00    +0.012 C 
ATOM     16  C   UNL     1      -7.416  -4.231  -1.713  0.00  0.00    +0.010 C 
ATOM     17  C   UNL     1      -7.750  -1.978  -0.685  0.00  0.00    +0.010 C 
ENDBRANCH   5  15
BRANCH   1  18
ATOM     18  C   UNL     1      -3.237  -1.052  -1.243  0.00  0.00    -0.007 C 
BRANCH  18  19
ATOM     19  C   UNL     1      -3.639  -0.155  -0.069  0.00  0.00    -0.081 C 
BRANCH  19  20
ATOM     20  N   UNL     1      -2.866  -0.532   1.121  0.00  0.00    +0.383 N 
ATOM     21  H   UNL     1      -1.882  -0.402   0.939  0.00  0.00    -0.085 HD
ATOM     22  H   UNL     1      -3.041  -1.500   1.345  0.00  0.00    -0.085 HD
BRANCH  20  24
ATOM     23  C   UNL     1      -4.720   0.004   2.629  0.00  0.00    -0.009 C 
ATOM     24  C   UNL     1      -3.269   0.313   2.254  0.00  0.00    -0.044 C 
BRANCH  24  25
ATOM     25  C   UNL     1      -2.375   0.032   3.434  0.00  0.00    -0.062 A 
ATOM     26  C   UNL     1      -1.985  -1.265   3.712  0.00  0.00    +0.003 A 
ATOM     27  C   UNL     1      -1.164  -1.524   4.794  0.00  0.00    +0.020 A 
ATOM     28  C   UNL     1      -0.733  -0.484   5.598  0.00  0.00    +0.041 A 
ATOM     29  C   UNL     1      -1.123   0.814   5.319  0.00  0.00    +0.020 A 
ATOM     30  C   UNL     1      -1.939   1.071   4.234  0.00  0.00    +0.003 A 
ATOM     31 CL   UNL     1       0.297  -0.808   6.958  0.00  0.00    -0.084 Cl
ENDBRANCH  24  25
ENDBRANCH  20  24
ENDBRANCH  19  20
ENDBRANCH  18  19
ENDBRANCH   1  18
TORSDOF 8
