REMARK  Name = ZINC28827082
REMARK  8 active torsions:
REMARK  status: ('A' for Active; 'I' for Inactive)
REMARK    1  A    between atoms: C_1  and  N_2
REMARK    2  A    between atoms: C_6  and  O_21
REMARK    3  A    between atoms: C_10  and  C_13
REMARK    4  A    between atoms: C_16  and  S_19
REMARK    5  A    between atoms: S_19  and  C_20
REMARK    6  A    between atoms: O_21  and  C_22
REMARK    7  A    between atoms: C_25  and  C_28
REMARK    8  A    between atoms: C_28  and  N_29
REMARK                            x       y       z     vdW  Elec       q    Type
REMARK                         _______ _______ _______ _____ _____    ______ ____
ROOT
ATOM      1  C   UNL     1       9.568   2.007   0.227  0.00  0.00    -0.096 C 
ATOM      2  N   UNL     1       8.221   2.574   0.375  0.00  0.00    +0.381 N 
ATOM      3  C   UNL     1       7.199   1.624  -0.074  0.00  0.00    -0.043 C 
ATOM      4  C   UNL     1       5.831   2.253  -0.010  0.00  0.00    -0.057 A 
ATOM      5  C   UNL     1       4.722   1.421  -0.039  0.00  0.00    +0.048 A 
ATOM      6  C   UNL     1       3.445   1.956   0.013  0.00  0.00    +0.131 A 
ATOM      7  C   UNL     1       3.277   3.331   0.088  0.00  0.00    +0.046 A 
ATOM      8  C   UNL     1       4.383   4.155   0.123  0.00  0.00    +0.008 A 
ATOM      9  C   UNL     1       5.661   3.618   0.073  0.00  0.00    -0.040 A 
ATOM     10  C   UNL     1       6.837   4.561   0.114  0.00  0.00    +0.033 C 
ATOM     11  C   UNL     1       8.099   3.841  -0.363  0.00  0.00    -0.066 C 
ATOM     12  H   UNL     1       8.060   2.775   1.444  0.00  0.00    -0.082 HD
ENDROOT
BRANCH  10  13
ATOM     13  C   UNL     1       6.562   5.739  -0.785  0.00  0.00    -0.042 A 
ATOM     14  C   UNL     1       6.351   5.540  -2.138  0.00  0.00    +0.005 A 
ATOM     15  C   UNL     1       6.094   6.617  -2.963  0.00  0.00    +0.015 A 
ATOM     16  C   UNL     1       6.059   7.902  -2.436  0.00  0.00    +0.008 A 
ATOM     17  C   UNL     1       6.277   8.098  -1.077  0.00  0.00    +0.015 A 
ATOM     18  C   UNL     1       6.528   7.016  -0.257  0.00  0.00    +0.005 A 
BRANCH  16  19
ATOM     19  S   UNL     1       5.738   9.279  -3.486  0.00  0.00    -0.129 S 
ATOM     20  C   UNL     1       5.524   8.538  -5.128  0.00  0.00    +0.090 C 
ENDBRANCH  16  19
ENDBRANCH  10  13
BRANCH   6  21
ATOM     21  O   UNL     1       2.361   1.137  -0.014  0.00  0.00    -0.438 OA
BRANCH  21  22
ATOM     22  C   UNL     1       2.037   0.471   1.122  0.00  0.00    +0.220 A 
ATOM     23  C   UNL     1       0.879  -0.297   1.164  0.00  0.00    +0.068 A 
ATOM     24  C   UNL     1       0.556  -0.966   2.331  0.00  0.00    +0.008 A 
ATOM     25  C   UNL     1       1.413  -0.853   3.418  0.00  0.00    -0.046 A 
ATOM     26  C   UNL     1       2.546  -0.073   3.306  0.00  0.00    +0.116 A 
ATOM     27  N   UNL     1       2.825   0.558   2.181  0.00  0.00    -0.221 NA
BRANCH  25  28
ATOM     28  C   UNL     1       1.106  -1.569   4.707  0.00  0.00    -0.041 C 
BRANCH  28  29
ATOM     29  N   UNL     1       0.291  -0.700   5.568  0.00  0.00    +0.382 N 
ATOM     30  C   UNL     1       1.051   0.483   5.991  0.00  0.00    -0.078 C 
ATOM     31  C   UNL     1       0.131   1.433   6.762  0.00  0.00    -0.019 C 
ATOM     32  C   UNL     1      -0.439   0.705   7.982  0.00  0.00    -0.004 C 
ATOM     33  C   UNL     1      -1.184  -0.549   7.518  0.00  0.00    -0.019 C 
ATOM     34  C   UNL     1      -0.226  -1.442   6.725  0.00  0.00    -0.078 C 
ATOM     35  H   UNL     1      -0.571  -0.352   4.980  0.00  0.00    -0.081 HD
ENDBRANCH  28  29
ENDBRANCH  25  28
ENDBRANCH  21  22
ENDBRANCH   6  21
TORSDOF 6
