REMARK  Name = ZINC05274699
REMARK  6 active torsions:
REMARK  status: ('A' for Active; 'I' for Inactive)
REMARK    1  A    between atoms: C_1  and  C_2
REMARK    2  A    between atoms: C_2  and  O_3
REMARK    3  A    between atoms: O_3  and  C_4
REMARK    4  A    between atoms: C_13  and  C_14
REMARK    5  A    between atoms: C_25  and  N_51
REMARK    6  A    between atoms: C_26  and  O_28
REMARK                            x       y       z     vdW  Elec       q    Type
REMARK                         _______ _______ _______ _____ _____    ______ ____
ROOT
ATOM      1  C   UNL     1      -0.018   1.453   0.010  0.00  0.00    +0.228 C 
ATOM      2  N   UNL     1       1.310   2.092  -0.049  0.00  0.00    -0.313 N 
ATOM      3  C   UNL     1       2.314   1.480   0.662  0.00  0.00    +0.080 A 
ATOM      4  C   UNL     1       2.283   0.117   0.984  0.00  0.00    +0.067 A 
ATOM      5  C   UNL     1       3.421  -0.381   1.731  0.00  0.00    -0.027 A 
ATOM      6  C   UNL     1       4.374   0.534   2.029  0.00  0.00    -0.021 A 
ATOM      7  S   UNL     1       3.783   2.051   1.330  0.00  0.00    -0.080 S 
ATOM      8  C   UNL     1       5.640   0.287   2.788  0.00  0.00    -0.036 C 
ATOM      9  C   UNL     1       5.066  -2.052   2.527  0.00  0.00    -0.074 C 
ATOM     10  C   UNL     1       3.592  -1.829   2.177  0.00  0.00    +0.018 C 
ATOM     11  C   UNL     1       6.796  -1.401   4.091  0.00  0.00    -0.096 C 
ATOM     12  C   UNL     1       1.101  -0.661   0.532  0.00  0.00    +0.220 C 
ATOM     13  N   UNL     1       0.085  -0.000   0.049  0.00  0.00    -0.223 NA
ATOM     14  H   UNL     1       1.466   2.900  -0.563  0.00  0.00    +0.149 HD
ATOM     15  N   UNL     1       5.504  -1.016   3.484  0.00  0.00    +0.381 N 
ATOM     16  H   UNL     1       4.800  -0.926   4.226  0.00  0.00    -0.082 HD
ENDROOT
BRANCH   1  26
ATOM     17  C   UNL     1      -1.335   1.028   2.081  0.00  0.00    +0.128 A 
ATOM     18  C   UNL     1      -2.003   1.453   3.234  0.00  0.00    +0.046 A 
ATOM     19  C   UNL     1      -2.082   2.774   3.550  0.00  0.00    +0.012 A 
ATOM     20  C   UNL     1      -1.482   3.728   2.710  0.00  0.00    -0.017 A 
ATOM     21  C   UNL     1      -1.545   5.101   3.005  0.00  0.00    +0.008 A 
ATOM     22  C   UNL     1      -0.954   5.998   2.170  0.00  0.00    +0.001 A 
ATOM     23  C   UNL     1      -0.283   5.576   1.023  0.00  0.00    +0.001 A 
ATOM     24  C   UNL     1      -0.202   4.256   0.704  0.00  0.00    +0.009 A 
ATOM     25  C   UNL     1      -0.801   3.300   1.543  0.00  0.00    -0.008 A 
ATOM     26  C   UNL     1      -0.737   1.928   1.246  0.00  0.00    +0.044 A 
BRANCH  17  27
ATOM     27  O   UNL     1      -1.278  -0.298   1.790  0.00  0.00    -0.492 OA
BRANCH  27  29
ATOM     28  C   UNL     1      -1.753  -2.630   2.210  0.00  0.00    +0.048 C 
ATOM     29  C   UNL     1      -1.923  -1.190   2.700  0.00  0.00    +0.225 C 
ENDBRANCH  27  29
ENDBRANCH  17  27
ENDBRANCH   1  26
BRANCH  12  30
ATOM     30  O   UNL     1       1.078  -2.011   0.619  0.00  0.00    -0.492 OA
ATOM     31  H   UNL     1       0.260  -2.413   0.296  0.00  0.00    +0.294 HD
ENDBRANCH  12  30
TORSDOF 4
