REMARK  Name = ZINC00822908
REMARK  7 active torsions:
REMARK  status: ('A' for Active; 'I' for Inactive)
REMARK    1  A    between atoms: C_6  and  C_7
REMARK    2  A    between atoms: C_7  and  C_9
REMARK    3  A    between atoms: C_9  and  O_10
REMARK    4  A    between atoms: O_10  and  C_11
REMARK    5  A    between atoms: C_11  and  C_13
REMARK    6  A    between atoms: N_21  and  C_24
REMARK    7  A    between atoms: C_27  and  N_31
REMARK                            x       y       z     vdW  Elec       q    Type
REMARK                         _______ _______ _______ _____ _____    ______ ____
ROOT
ATOM      1  C   UNL     1      -1.305   1.932   0.019  0.00  0.00    +0.060 A 
ATOM      2  C   UNL     1      -1.322   3.327   0.032  0.00  0.00    +0.016 A 
ATOM      3  C   UNL     1      -2.526   4.011   0.037  0.00  0.00    +0.014 A 
ATOM      4  C   UNL     1      -3.720   3.308   0.039  0.00  0.00    +0.050 A 
ATOM      5  C   UNL     1      -3.710   1.898   0.030  0.00  0.00    +0.051 A 
ATOM      6  C   UNL     1      -2.506   1.215   0.021  0.00  0.00    +0.028 A 
ATOM      7  C   UNL     1      -5.129   1.482   0.035  0.00  0.00    +0.258 C 
ATOM      8  O   UNL     1      -5.532   0.337   0.030  0.00  0.00    -0.269 OA
ATOM      9  N   UNL     1      -5.899   2.585   0.044  0.00  0.00    -0.202 N 
ATOM     10  C   UNL     1      -5.148   3.701   0.047  0.00  0.00    +0.258 C 
ATOM     11  O   UNL     1      -5.569   4.839   0.056  0.00  0.00    -0.269 OA
ENDROOT
BRANCH   9  12
ATOM     12  C   UNL     1      -7.302   2.573   0.050  0.00  0.00    +0.047 A 
ATOM     13  C   UNL     1      -7.986   1.364   0.040  0.00  0.00    +0.046 A 
ATOM     14  C   UNL     1      -9.367   1.352   0.051  0.00  0.00    +0.064 A 
ATOM     15  C   UNL     1     -10.072   2.549   0.060  0.00  0.00    +0.057 A 
ATOM     16  C   UNL     1      -9.388   3.758   0.065  0.00  0.00    +0.042 A 
ATOM     17  C   UNL     1      -8.006   3.769   0.060  0.00  0.00    +0.041 A 
ATOM     18 BR   UNL     1     -10.347   5.388   0.078  0.00  0.00    -0.048 Br
ATOM     19 CL   UNL     1     -10.222  -0.159   0.045  0.00  0.00    -0.082 Cl
BRANCH  15  20
ATOM     20  N   UNL     1     -11.472   2.537   0.066  0.00  0.00    -0.356 N 
ATOM     21  H   UNL     1     -12.030   3.485   0.074  0.00  0.00    +0.142 HD
ATOM     22  H   UNL     1     -12.014   1.580   0.063  0.00  0.00    +0.142 HD
ENDBRANCH  15  20
ENDBRANCH   9  12
BRANCH   1  23
ATOM     23  C   UNL     1      -0.014   1.210   0.009  0.00  0.00    +0.340 C 
ATOM     24  O   UNL     1       0.002  -0.004   0.002  0.00  0.00    -0.245 OA
BRANCH  23  25
ATOM     25  O   UNL     1       1.143   1.899   0.001  0.00  0.00    -0.453 OA
BRANCH  25  26
ATOM     26  C   UNL     1       2.371   1.125  -0.015  0.00  0.00    +0.311 C 
BRANCH  26  27
ATOM     27  C   UNL     1       3.554   2.060  -0.021  0.00  0.00    +0.200 C 
ATOM     28  O   UNL     1       3.378   3.259  -0.013  0.00  0.00    -0.288 OA
BRANCH  27  34
ATOM     29  C   UNL     1       5.126   0.132  -0.040  0.00  0.00    +0.012 A 
ATOM     30  C   UNL     1       6.410  -0.370  -0.062  0.00  0.00    +0.016 A 
ATOM     31  C   UNL     1       7.494   0.492  -0.067  0.00  0.00    +0.018 A 
ATOM     32  C   UNL     1       7.298   1.863  -0.058  0.00  0.00    +0.016 A 
ATOM     33  C   UNL     1       6.021   2.380  -0.043  0.00  0.00    +0.012 A 
ATOM     34  C   UNL     1       4.920   1.516  -0.037  0.00  0.00    +0.021 A 
ATOM     35 BR   UNL     1       9.251  -0.207  -0.089  0.00  0.00    -0.050 Br
ENDBRANCH  27  34
ENDBRANCH  26  27
ENDBRANCH  25  26
ENDBRANCH  23  25
ENDBRANCH   1  23
TORSDOF 7
