REMARK  Name = ZINC27662478
REMARK  5 active torsions:
REMARK  status: ('A' for Active; 'I' for Inactive)
REMARK    1  A    between atoms: C_3  and  C_6
REMARK    2  A    between atoms: C_6  and  C_8
REMARK    3  A    between atoms: C_6  and  N_22
REMARK    4  A    between atoms: C_8  and  N_9
REMARK    5  A    between atoms: C_10  and  C_12
REMARK                            x       y       z     vdW  Elec       q    Type
REMARK                         _______ _______ _______ _____ _____    ______ ____
ROOT
ATOM      1  C   UNL     1      -3.017  -2.356  -0.084  0.00  0.00    +0.094 C 
ENDROOT
BRANCH   1   2
ATOM      2  N   UNL     1      -1.645  -1.851  -0.001  0.00  0.00    -0.316 N 
ATOM      3  C   UNL     1      -1.409  -0.525  -0.069  0.00  0.00    +0.219 C 
ATOM      4  O   UNL     1      -2.333   0.249  -0.200  0.00  0.00    -0.275 OA
ATOM      5  H   UNL     1      -0.806  -2.553   0.118  0.00  0.00    +0.149 HD
BRANCH   3   6
ATOM      6  C   UNL     1       0.003  -0.006   0.016  0.00  0.00    +0.048 C 
ATOM      7  C   UNL     1      -0.008   1.521  -0.087  0.00  0.00    +0.019 C 
ATOM      8  C   UNL     1       1.426   2.048  -0.000  0.00  0.00    -0.009 C 
ATOM      9  C   UNL     1       2.254   1.466  -1.147  0.00  0.00    +0.007 C 
ATOM     10  C   UNL     1       2.265  -0.061  -1.044  0.00  0.00    -0.009 C 
ATOM     11  C   UNL     1       0.831  -0.588  -1.131  0.00  0.00    +0.019 C 
ATOM     12  C   UNL     1       2.881  -0.477   0.292  0.00  0.00    +0.007 C 
ATOM     13  C   UNL     1       2.054   0.105   1.440  0.00  0.00    -0.009 C 
ATOM     14  C   UNL     1       2.042   1.632   1.337  0.00  0.00    +0.007 C 
ATOM     15  C   UNL     1       0.620  -0.422   1.353  0.00  0.00    +0.019 C 
ENDBRANCH   3   6
ENDBRANCH   1   2
BRANCH   1  16
ATOM     16  C   UNL     1      -2.997  -3.885  -0.116  0.00  0.00    -0.013 C 
BRANCH  16  17
ATOM     17  N   UNL     1      -4.375  -4.394  -0.105  0.00  0.00    +0.386 N 
ATOM     18  C   UNL     1      -5.161  -3.772   0.984  0.00  0.00    -0.078 C 
ATOM     19  C   UNL     1      -6.485  -4.451   1.208  0.00  0.00    -0.019 C 
ATOM     20  C   UNL     1      -6.310  -5.510   2.316  0.00  0.00    -0.002 C 
ATOM     21  C   UNL     1      -5.679  -6.728   1.819  0.00  0.00    -0.002 C 
ATOM     22  C   UNL     1      -4.264  -6.466   1.263  0.00  0.00    -0.019 C 
ATOM     23  C   UNL     1      -4.394  -5.873  -0.113  0.00  0.00    -0.078 C 
ATOM     24  H   UNL     1      -4.873  -4.089  -1.038  0.00  0.00    -0.081 HD
ENDBRANCH  16  17
BRANCH  16  27
ATOM     25  C   UNL     1      -0.595  -5.171  -2.778  0.00  0.00    +0.008 A 
ATOM     26  C   UNL     1      -1.025  -4.789  -1.522  0.00  0.00    +0.009 A 
ATOM     27  C   UNL     1      -2.299  -4.352  -1.367  0.00  0.00    -0.022 A 
ATOM     28  S   UNL     1      -2.937  -4.480  -3.030  0.00  0.00    -0.103 S 
ATOM     29  C   UNL     1      -1.460  -5.099  -3.819  0.00  0.00    +0.045 A 
ENDBRANCH  16  27
ENDBRANCH   1  16
TORSDOF 5
