REMARK  Name = ZINC02384367
REMARK  6 active torsions:
REMARK  status: ('A' for Active; 'I' for Inactive)
REMARK    1  A    between atoms: C_1  and  C_2
REMARK    2  A    between atoms: C_5  and  C_29
REMARK    3  A    between atoms: N_6  and  C_7
REMARK    4  A    between atoms: C_11  and  C_12
REMARK    5  A    between atoms: C_17  and  C_22
REMARK    6  A    between atoms: C_18  and  N_21
REMARK                            x       y       z     vdW  Elec       q    Type
REMARK                         _______ _______ _______ _____ _____    ______ ____
ROOT
ATOM      1  C   UNL     1      -1.132  -0.951   0.008  0.00  0.00    +0.104 A 
ATOM      2  C   UNL     1      -2.489  -0.601   0.023  0.00  0.00    +0.079 A 
ATOM      3  C   UNL     1      -3.224  -1.776   0.024  0.00  0.00    +0.158 A 
ATOM      4  N   UNL     1      -4.546  -2.009   0.035  0.00  0.00    -0.235 NA
ATOM      5  C   UNL     1      -5.025  -3.231   0.033  0.00  0.00    +0.125 A 
ATOM      6  C   UNL     1      -4.152  -4.333   0.019  0.00  0.00    +0.040 A 
ATOM      7  C   UNL     1      -2.779  -4.105   0.008  0.00  0.00    +0.129 A 
ATOM      8  N   UNL     1      -2.327  -2.814   0.010  0.00  0.00    -0.200 N 
ATOM      9  N   UNL     1      -1.037  -2.270  -0.005  0.00  0.00    -0.163 NA
ENDROOT
BRANCH   6  10
ATOM     10  C   UNL     1      -4.685  -5.716   0.018  0.00  0.00    -0.013 A 
ATOM     11  C   UNL     1      -4.227  -6.641  -0.919  0.00  0.00    +0.010 A 
ATOM     12  C   UNL     1      -4.723  -7.929  -0.913  0.00  0.00    +0.020 A 
ATOM     13  C   UNL     1      -5.682  -8.300   0.014  0.00  0.00    +0.041 A 
ATOM     14  C   UNL     1      -6.144  -7.383   0.943  0.00  0.00    +0.020 A 
ATOM     15  C   UNL     1      -5.651  -6.095   0.949  0.00  0.00    +0.010 A 
ATOM     16 CL   UNL     1      -6.306  -9.919   0.012  0.00  0.00    -0.084 Cl
ENDBRANCH   6  10
BRANCH   1  21
ATOM     17  C   UNL     1       1.359  -0.270  -0.012  0.00  0.00    +0.063 A 
ATOM     18  C   UNL     1       2.236   0.799  -0.015  0.00  0.00    +0.034 A 
ATOM     19  C   UNL     1       1.740   2.062  -0.004  0.00  0.00    +0.048 A 
ATOM     20  S   UNL     1      -0.022   1.781   0.012  0.00  0.00    -0.093 S 
ATOM     21  C   UNL     1       0.002  -0.004   0.002  0.00  0.00    +0.063 A 
BRANCH  17  27
ATOM     22  C   UNL     1       1.906  -1.882  -2.565  0.00  0.00    +0.064 C 
ATOM     23  C   UNL     1       2.088  -2.336  -1.140  0.00  0.00    +0.021 A 
ATOM     24  C   UNL     1       2.533  -3.548  -0.747  0.00  0.00    +0.023 A 
ATOM     25  C   UNL     1       2.546  -3.556   0.662  0.00  0.00    +0.023 A 
ATOM     26  C   UNL     1       2.115  -2.347   1.078  0.00  0.00    +0.021 A 
ATOM     27  N   UNL     1       1.835  -1.592  -0.025  0.00  0.00    -0.317 N 
ATOM     28  C   UNL     1       1.968  -1.906   2.511  0.00  0.00    +0.064 C 
ENDBRANCH  17  27
ENDBRANCH   1  21
BRANCH   7  29
ATOM     29  N   UNL     1      -1.894  -5.158  -0.006  0.00  0.00    -0.343 N 
ATOM     30  H   UNL     1      -2.225  -6.070  -0.007  0.00  0.00    +0.144 HD
ATOM     31  H   UNL     1      -0.939  -4.989  -0.014  0.00  0.00    +0.144 HD
ENDBRANCH   7  29
TORSDOF 4
