REMARK  Name = ZINC15005802
REMARK  8 active torsions:
REMARK  status: ('A' for Active; 'I' for Inactive)
REMARK    1  A    between atoms: C_4  and  C_7
REMARK    2  A    between atoms: C_7  and  C_8
REMARK    3  A    between atoms: C_8  and  O_9
REMARK    4  A    between atoms: O_9  and  C_10
REMARK    5  A    between atoms: C_11  and  C_21
REMARK    6  A    between atoms: C_21  and  N_56
REMARK    7  A    between atoms: C_24  and  C_27
REMARK    8  A    between atoms: C_27  and  O_28
REMARK                            x       y       z     vdW  Elec       q    Type
REMARK                         _______ _______ _______ _____ _____    ______ ____
ROOT
ATOM      1  C   UNL     1       2.374   1.344  -0.014  0.00  0.00    +0.217 A 
ATOM      2  C   UNL     1       1.175   2.067   0.002  0.00  0.00    -0.002 A 
ATOM      3  C   UNL     1      -0.017   1.405   0.010  0.00  0.00    +0.017 A 
ATOM      4  C   UNL     1       0.002  -0.004   0.002  0.00  0.00    +0.001 A 
ATOM      5  C   UNL     1      -1.188  -0.749   0.009  0.00  0.00    +0.011 A 
ATOM      6  C   UNL     1      -1.131  -2.109   0.002  0.00  0.00    +0.021 A 
ATOM      7  C   UNL     1       0.095  -2.773  -0.014  0.00  0.00    +0.043 A 
ATOM      8  C   UNL     1       1.268  -2.081  -0.021  0.00  0.00    +0.048 A 
ATOM      9  C   UNL     1       1.249  -0.676  -0.013  0.00  0.00    +0.076 A 
ATOM     10  N   UNL     1       2.386   0.029  -0.021  0.00  0.00    -0.213 NA
ATOM     11 CL   UNL     1       0.127  -4.509  -0.024  0.00  0.00    -0.083 Cl
ENDROOT
BRANCH   1  12
ATOM     12  O   UNL     1       3.551   2.017  -0.022  0.00  0.00    -0.476 OA
BRANCH  12  13
ATOM     13  C   UNL     1       4.746   1.233  -0.038  0.00  0.00    +0.235 C 
BRANCH  13  14
ATOM     14  C   UNL     1       5.964   2.159  -0.045  0.00  0.00    +0.076 C 
BRANCH  14  18
ATOM     15  C   UNL     1       9.535  -0.184  -0.091  0.00  0.00    +0.000 A 
ATOM     16  C   UNL     1       8.946   0.202  -1.281  0.00  0.00    +0.000 A 
ATOM     17  C   UNL     1       7.790   0.959  -1.266  0.00  0.00    +0.004 A 
ATOM     18  C   UNL     1       7.224   1.333  -0.061  0.00  0.00    -0.044 A 
ATOM     19  C   UNL     1       7.816   0.952   1.128  0.00  0.00    +0.004 A 
ATOM     20  C   UNL     1       8.969   0.190   1.113  0.00  0.00    +0.000 A 
ENDBRANCH  14  18
ENDBRANCH  13  14
ENDBRANCH  12  13
ENDBRANCH   1  12
BRANCH   2  21
ATOM     21  C   UNL     1       1.201   3.574   0.010  0.00  0.00    -0.038 C 
BRANCH  21  27
ATOM     22  C   UNL     1       0.589   3.360  -2.323  0.00  0.00    -0.078 C 
ATOM     23  C   UNL     1       0.964   3.794  -3.742  0.00  0.00    -0.013 C 
ATOM     24  C   UNL     1       0.773   5.307  -3.875  0.00  0.00    +0.011 C 
ATOM     25  C   UNL     1       1.630   6.016  -2.824  0.00  0.00    -0.013 C 
ATOM     26  C   UNL     1       1.236   5.519  -1.431  0.00  0.00    -0.078 C 
ATOM     27  N   UNL     1       1.466   4.060  -1.360  0.00  0.00    +0.383 N 
ATOM     28  H   UNL     1       2.446   3.866  -1.599  0.00  0.00    -0.081 HD
BRANCH  24  29
ATOM     29  C   UNL     1       1.204   5.755  -5.273  0.00  0.00    +0.159 C 
BRANCH  29  30
ATOM     30  O   UNL     1       0.329   5.183  -6.248  0.00  0.00    -0.395 OA
ATOM     31  H   UNL     1       0.543   5.426  -7.159  0.00  0.00    +0.209 HD
ENDBRANCH  29  30
ENDBRANCH  24  29
ENDBRANCH  21  27
ENDBRANCH   2  21
TORSDOF 8
