REMARK  Name = ZINC01920243
REMARK  12 active torsions:
REMARK  status: ('A' for Active; 'I' for Inactive)
REMARK    1  A    between atoms: C_1  and  C_2
REMARK    2  A    between atoms: C_2  and  N_3
REMARK    3  A    between atoms: C_6  and  C_36
REMARK    4  A    between atoms: C_7  and  C_35
REMARK    5  A    between atoms: C_11  and  C_12
REMARK    6  A    between atoms: C_13  and  C_14
REMARK    7  A    between atoms: C_13  and  C_21
REMARK    8  A    between atoms: C_14  and  C_15
REMARK    9  A    between atoms: N_23  and  C_33
REMARK   10  A    between atoms: C_26  and  C_32
REMARK   11  A    between atoms: C_27  and  C_31
REMARK   12  A    between atoms: C_33  and  C_34
REMARK                            x       y       z     vdW  Elec       q    Type
REMARK                         _______ _______ _______ _____ _____    ______ ____
ROOT
ATOM      1  C   UNL     1       0.740   2.136  -0.290  0.00  0.00    +0.037 C 
ATOM      2  C   UNL     1      -0.190   1.174  -0.030  0.00  0.00    -0.038 C 
ENDROOT
BRANCH   2   3
ATOM      3  C   UNL     1       0.218  -0.121   0.313  0.00  0.00    +0.035 C 
ATOM      4  C   UNL     1      -0.715  -1.059   0.700  0.00  0.00    +0.073 C 
ATOM      5  N   UNL     1      -0.549  -2.407   0.901  0.00  0.00    -0.294 N 
ATOM      6  C   UNL     1      -1.623  -3.186   1.293  0.00  0.00    +0.049 A 
ATOM      7  C   UNL     1      -1.630  -4.569   1.541  0.00  0.00    +0.028 A 
ATOM      8  C   UNL     1      -2.782  -5.212   1.927  0.00  0.00    -0.046 A 
ATOM      9  C   UNL     1      -3.971  -4.521   2.084  0.00  0.00    -0.046 A 
ATOM     10  C   UNL     1      -3.995  -3.158   1.847  0.00  0.00    +0.020 A 
ATOM     11  C   UNL     1      -2.843  -2.515   1.460  0.00  0.00    +0.036 A 
ATOM     12  S   UNL     1      -2.446  -0.827   1.075  0.00  0.00    -0.072 S 
ATOM     13  C   UNL     1      -5.224  -5.244   2.509  0.00  0.00    +0.044 C 
ATOM     14  C   UNL     1      -2.750  -6.697   2.184  0.00  0.00    +0.044 C 
BRANCH   5  15
ATOM     15  C   UNL     1       0.766  -3.020   0.701  0.00  0.00    +0.108 C 
ATOM     16  C   UNL     1       1.550  -2.988   2.015  0.00  0.00    +0.025 C 
ENDBRANCH   5  15
ENDBRANCH   2   3
BRANCH   1  25
ATOM     17  N   UNL     1       1.061   4.492  -0.953  0.00  0.00    -0.335 N 
ATOM     18  C   UNL     1       0.526   5.708  -1.179  0.00  0.00    +0.057 A 
ATOM     19  C   UNL     1       1.188   6.888  -1.595  0.00  0.00    +0.030 A 
ATOM     20  C   UNL     1       0.490   8.053  -1.782  0.00  0.00    -0.046 A 
ATOM     21  C   UNL     1      -0.879   8.120  -1.571  0.00  0.00    -0.046 A 
ATOM     22  C   UNL     1      -1.559   6.986  -1.164  0.00  0.00    +0.020 A 
ATOM     23  C   UNL     1      -0.870   5.814  -0.975  0.00  0.00    +0.038 A 
ATOM     24  S   UNL     1      -1.310   4.165  -0.483  0.00  0.00    -0.070 S 
ATOM     25  C   UNL     1       0.330   3.460  -0.564  0.00  0.00    +0.081 A 
ATOM     26  C   UNL     1      -1.620   9.415  -1.784  0.00  0.00    +0.044 C 
ATOM     27  C   UNL     1       1.228   9.290  -2.225  0.00  0.00    +0.044 C 
BRANCH  17  29
ATOM     28  C   UNL     1       2.775   3.886  -2.589  0.00  0.00    +0.027 C 
ATOM     29  C   UNL     1       2.502   4.307  -1.144  0.00  0.00    +0.119 C 
ENDBRANCH  17  29
ENDBRANCH   1  25
BRANCH   2  30
ATOM     30  C   UNL     1      -1.659   1.502  -0.119  0.00  0.00    +0.070 C 
BRANCH  30  31
ATOM     31  C   UNL     1      -2.160   1.191  -1.506  0.00  0.00    -0.043 A 
ATOM     32  C   UNL     1      -2.008   2.118  -2.520  0.00  0.00    +0.004 A 
ATOM     33  C   UNL     1      -2.463   1.831  -3.793  0.00  0.00    +0.000 A 
ATOM     34  C   UNL     1      -3.080   0.621  -4.050  0.00  0.00    +0.000 A 
ATOM     35  C   UNL     1      -3.236  -0.304  -3.035  0.00  0.00    +0.000 A 
ATOM     36  C   UNL     1      -2.776  -0.019  -1.763  0.00  0.00    +0.004 A 
ENDBRANCH  30  31
ENDBRANCH   2  30
TORSDOF 6
