REMARK  Name = ZINC20875925
REMARK  6 active torsions:
REMARK  status: ('A' for Active; 'I' for Inactive)
REMARK    1  A    between atoms: C_1  and  C_2
REMARK    2  A    between atoms: C_7  and  C_8
REMARK    3  A    between atoms: C_11  and  C_13
REMARK    4  A    between atoms: C_13  and  N_14
REMARK    5  A    between atoms: N_14  and  C_15
REMARK    6  A    between atoms: C_15  and  C_16
REMARK                            x       y       z     vdW  Elec       q    Type
REMARK                         _______ _______ _______ _____ _____    ______ ____
ROOT
ATOM      1  C   UNL     1      -0.013   1.086   0.008  0.00  0.00    -0.006 C 
ENDROOT
BRANCH   1   5
ATOM      2  C   UNL     1      -1.286   2.830   2.955  0.00  0.00    +0.135 A 
ATOM      3  C   UNL     1      -2.075   1.725   2.994  0.00  0.00    +0.050 A 
ATOM      4  C   UNL     1      -1.709   0.925   1.892  0.00  0.00    +0.043 A 
ATOM      5  C   UNL     1      -0.718   1.572   1.248  0.00  0.00    +0.089 A 
ATOM      6  O   UNL     1      -0.467   2.724   1.891  0.00  0.00    -0.462 OA
BRANCH   2  13
ATOM      7  C   UNL     1       1.176   3.755   4.161  0.00  0.00    +0.044 C 
ATOM      8  C   UNL     1      -0.138   4.409   4.503  0.00  0.00    -0.039 A 
ATOM      9  C   UNL     1      -0.176   5.459   5.397  0.00  0.00    +0.019 A 
ATOM     10  C   UNL     1      -1.383   6.060   5.712  0.00  0.00    +0.018 A 
ATOM     11  C   UNL     1      -2.558   5.614   5.131  0.00  0.00    +0.016 A 
ATOM     12  C   UNL     1      -2.532   4.569   4.231  0.00  0.00    +0.013 A 
ATOM     13  C   UNL     1      -1.319   3.954   3.914  0.00  0.00    +0.020 A 
ATOM     14 BR   UNL     1      -1.426   7.498   6.939  0.00  0.00    -0.050 Br
ENDBRANCH   2  13
ENDBRANCH   1   5
BRANCH   1  15
ATOM     15  N   UNL     1      -0.723   1.572  -1.182  0.00  0.00    +0.386 N 
ATOM     16  H   UNL     1      -1.755   1.192  -1.174  0.00  0.00    -0.085 HD
ATOM     17  H   UNL     1      -0.738   2.672  -1.176  0.00  0.00    -0.085 HD
BRANCH  15  18
ATOM     18  C   UNL     1      -0.062   1.117  -2.413  0.00  0.00    -0.046 C 
BRANCH  18  19
ATOM     19  C   UNL     1      -0.818   1.635  -3.609  0.00  0.00    -0.061 A 
ATOM     20  C   UNL     1      -1.838   0.881  -4.160  0.00  0.00    +0.005 A 
ATOM     21  C   UNL     1      -2.538   1.354  -5.254  0.00  0.00    +0.050 A 
ATOM     22  C   UNL     1      -2.209   2.580  -5.810  0.00  0.00    +0.166 A 
ATOM     23  C   UNL     1      -1.178   3.337  -5.259  0.00  0.00    +0.166 A 
ATOM     24  C   UNL     1      -0.485   2.859  -4.158  0.00  0.00    +0.051 A 
ATOM     25  O   UNL     1      -1.051   4.490  -5.978  0.00  0.00    -0.453 OA
ATOM     26  C   UNL     1      -1.740   4.247  -7.219  0.00  0.00    +0.466 C 
ATOM     27  O   UNL     1      -2.729   3.260  -6.874  0.00  0.00    -0.453 OA
ENDBRANCH  18  19
ENDBRANCH  15  18
ENDBRANCH   1  15
TORSDOF 5
