REMARK  Name = ZINC24067683
REMARK  4 active torsions:
REMARK  status: ('A' for Active; 'I' for Inactive)
REMARK    1  A    between atoms: C_3  and  S_12
REMARK    2  A    between atoms: C_4  and  C_10
REMARK    3  A    between atoms: C_6  and  N_7
REMARK    4  A    between atoms: S_12  and  C_13
REMARK                            x       y       z     vdW  Elec       q    Type
REMARK                         _______ _______ _______ _____ _____    ______ ____
ROOT
ATOM      1  C   UNL     1       0.012   1.345  -0.412  0.00  0.00    +0.034 A 
ATOM      2  C   UNL     1       1.190   2.063  -0.377  0.00  0.00    +0.018 A 
ATOM      3  C   UNL     1       2.384   1.425  -0.067  0.00  0.00    +0.032 A 
ATOM      4  C   UNL     1       2.386   0.049   0.210  0.00  0.00    +0.068 A 
ATOM      5  C   UNL     1       1.185  -0.664   0.171  0.00  0.00    +0.052 A 
ATOM      6  C   UNL     1       0.009  -0.013  -0.138  0.00  0.00    +0.127 A 
ENDROOT
BRANCH   6   7
ATOM      7  N   UNL     1      -1.262  -0.770  -0.178  0.00  0.00    +0.056 N 
ATOM      8  O   UNL     1      -2.295  -0.203  -0.449  0.00  0.00    -0.126 OA
ATOM      9  O   UNL     1      -1.268  -1.956   0.059  0.00  0.00    -0.126 OA
ENDBRANCH   6   7
BRANCH   4  10
ATOM     10  C   UNL     1       3.610  -0.621   0.531  0.00  0.00    +0.100 C 
ATOM     11  N   UNL     1       4.582  -1.151   0.785  0.00  0.00    -0.191 NA
ENDBRANCH   4  10
BRANCH   3  12
ATOM     12  S   UNL     1       3.890   2.339  -0.023  0.00  0.00    -0.061 S 
BRANCH  12  13
ATOM     13  C   UNL     1       3.374   4.018  -0.159  0.00  0.00    +0.140 A 
ATOM     14  N   UNL     1       2.156   4.510  -0.141  0.00  0.00    -0.232 NA
ATOM     15  C   UNL     1       1.906   5.832  -0.256  0.00  0.00    +0.081 A 
ATOM     16  C   UNL     1       0.652   6.487  -0.253  0.00  0.00    +0.049 A 
ATOM     17  C   UNL     1       0.573   7.850  -0.381  0.00  0.00    +0.043 A 
ATOM     18  C   UNL     1       1.712   8.632  -0.519  0.00  0.00    +0.021 A 
ATOM     19  C   UNL     1       2.954   8.024  -0.526  0.00  0.00    +0.018 A 
ATOM     20  C   UNL     1       3.042   6.661  -0.398  0.00  0.00    +0.040 A 
ATOM     21  S   UNL     1       4.375   5.487  -0.347  0.00  0.00    -0.061 S 
ATOM     22 CL   UNL     1      -0.985   8.615  -0.373  0.00  0.00    -0.083 Cl
ENDBRANCH  12  13
ENDBRANCH   3  12
TORSDOF 4
