REMARK  Name = ZINC39984687
REMARK  12 active torsions:
REMARK  status: ('A' for Active; 'I' for Inactive)
REMARK    1  A    between atoms: C_1  and  C_2
REMARK    2  A    between atoms: C_3  and  O_30
REMARK    3  A    between atoms: C_6  and  C_9
REMARK    4  A    between atoms: C_7  and  O_8
REMARK    5  A    between atoms: C_11  and  C_19
REMARK    6  A    between atoms: C_12  and  C_15
REMARK    7  A    between atoms: C_20  and  C_29
REMARK    8  A    between atoms: C_22  and  C_25
REMARK    9  A    between atoms: C_25  and  O_27
REMARK   10  A    between atoms: O_27  and  C_28
REMARK   11  A    between atoms: O_30  and  C_31
REMARK   12  A    between atoms: C_31  and  C_32
REMARK                            x       y       z     vdW  Elec       q    Type
REMARK                         _______ _______ _______ _____ _____    ______ ____
ROOT
ATOM      1  C   UNL     1       0.159  -2.847   2.421  0.00  0.00    +0.164 C 
ATOM      2  C   UNL     1      -1.121  -2.962   3.232  0.00  0.00    +0.019 C 
ATOM      3  C   UNL     1      -1.208  -4.295   3.500  0.00  0.00    +0.169 C 
ATOM      4  N   UNL     1      -0.175  -4.947   2.965  0.00  0.00    -0.173 NA
ATOM      5  N   UNL     1       0.633  -4.239   2.353  0.00  0.00    -0.296 N 
ATOM      6  H   UNL     1       1.438  -4.545   1.906  0.00  0.00    +0.183 HD
ENDROOT
BRANCH   1  12
ATOM      7  C   UNL     1      -0.274   1.025  -0.735  0.00  0.00    +0.051 C 
ATOM      8  C   UNL     1      -0.337  -0.458  -0.469  0.00  0.00    +0.033 A 
ATOM      9  C   UNL     1      -0.662  -1.333  -1.494  0.00  0.00    +0.127 A 
ATOM     10  C   UNL     1      -0.720  -2.697  -1.247  0.00  0.00    +0.046 A 
ATOM     11  C   UNL     1      -0.454  -3.183   0.019  0.00  0.00    +0.013 A 
ATOM     12  C   UNL     1      -0.130  -2.313   1.041  0.00  0.00    +0.023 A 
ATOM     13  C   UNL     1      -0.064  -0.948   0.798  0.00  0.00    +0.129 A 
BRANCH  13  14
ATOM     14  O   UNL     1       0.261  -0.093   1.803  0.00  0.00    -0.506 OA
ATOM     15  H   UNL     1      -0.497   0.210   2.322  0.00  0.00    +0.292 HD
ENDBRANCH  13  14
BRANCH   9  16
ATOM     16  O   UNL     1      -0.925  -0.856  -2.739  0.00  0.00    -0.487 OA
BRANCH  16  17
ATOM     17  C   UNL     1      -1.253  -1.815  -3.746  0.00  0.00    +0.264 C 
BRANCH  17  18
ATOM     18  C   UNL     1      -1.510  -1.106  -5.051  0.00  0.00    -0.010 A 
ATOM     19  C   UNL     1      -2.786  -0.676  -5.364  0.00  0.00    +0.007 A 
ATOM     20  C   UNL     1      -3.022  -0.025  -6.560  0.00  0.00    +0.000 A 
ATOM     21  C   UNL     1      -1.982   0.196  -7.444  0.00  0.00    +0.000 A 
ATOM     22  C   UNL     1      -0.706  -0.233  -7.130  0.00  0.00    +0.000 A 
ATOM     23  C   UNL     1      -0.469  -0.880  -5.932  0.00  0.00    +0.007 A 
ENDBRANCH  17  18
ENDBRANCH  16  17
ENDBRANCH   9  16
ENDBRANCH   1  12
BRANCH   2  24
ATOM     24  C   UNL     1      -2.008  -1.932   3.617  0.00  0.00    +0.001 C 
ATOM     25  C   UNL     1      -3.284  -1.782   3.216  0.00  0.00    +0.100 C 
ATOM     26  O   UNL     1      -3.877  -0.693   3.741  0.00  0.00    -0.482 OA
ATOM     27  C   UNL     1      -3.123  -0.258   4.888  0.00  0.00    +0.285 C 
ATOM     28  C   UNL     1      -1.705  -0.786   4.568  0.00  0.00    +0.095 C 
ATOM     29  C   UNL     1      -3.978  -2.735   2.278  0.00  0.00    +0.086 C 
BRANCH  27  30
ATOM     30  C   UNL     1      -3.132   1.246   4.997  0.00  0.00    +0.348 C 
ATOM     31  O   UNL     1      -3.670   1.910   4.144  0.00  0.00    -0.247 OA
BRANCH  30  32
ATOM     32  O   UNL     1      -2.543   1.846   6.044  0.00  0.00    -0.465 OA
ATOM     33  C   UNL     1      -2.590   3.273   6.083  0.00  0.00    +0.280 C 
ENDBRANCH  30  32
ENDBRANCH  27  30
ENDBRANCH   2  24
BRANCH   3  34
ATOM     34  C   UNL     1      -2.316  -4.942   4.290  0.00  0.00    +0.436 C 
ATOM     35  F   UNL     1      -3.155  -3.952   4.814  0.00  0.00    -0.164 F 
ATOM     36  F   UNL     1      -3.055  -5.785   3.453  0.00  0.00    -0.164 F 
ATOM     37  F   UNL     1      -1.767  -5.689   5.338  0.00  0.00    -0.164 F 
ENDBRANCH   3  34
TORSDOF 9
