REMARK  Name = ZINC57986372
REMARK  10 active torsions:
REMARK  status: ('A' for Active; 'I' for Inactive)
REMARK    1  A    between atoms: C_1  and  C_2
REMARK    2  A    between atoms: C_2  and  C_3
REMARK    3  A    between atoms: C_2  and  C_4
REMARK    4  A    between atoms: C_4  and  C_6
REMARK    5  A    between atoms: C_4  and  N_19
REMARK    6  A    between atoms: N_8  and  N_9
REMARK    7  A    between atoms: C_10  and  C_12
REMARK    8  A    between atoms: C_17  and  O_18
REMARK    9  A    between atoms: N_19  and  S_20
REMARK   10  A    between atoms: S_20  and  C_23
REMARK                            x       y       z     vdW  Elec       q    Type
REMARK                         _______ _______ _______ _____ _____    ______ ____
ROOT
ATOM      1  C   UNL     1       0.594  -0.433  -1.274  0.00  0.00    +0.166 C 
ENDROOT
BRANCH   1   2
ATOM      2  C   UNL     1       0.570  -1.939  -1.293  0.00  0.00    +0.248 C 
ATOM      3  O   UNL     1       0.003  -2.526  -2.190  0.00  0.00    -0.273 OA
ATOM      4  N   UNL     1       1.179  -2.635  -0.313  0.00  0.00    -0.233 N 
ATOM      5  H   UNL     1       1.633  -2.166   0.405  0.00  0.00    +0.173 HD
BRANCH   4   6
ATOM      6  N   UNL     1       1.157  -4.036  -0.330  0.00  0.00    -0.230 N 
ATOM      7  C   UNL     1       1.766  -4.732   0.650  0.00  0.00    +0.264 C 
ATOM      8  O   UNL     1       2.335  -4.144   1.550  0.00  0.00    -0.269 OA
ATOM      9  H   UNL     1       0.703  -4.505  -1.048  0.00  0.00    +0.173 HD
BRANCH   7  10
ATOM     10  C   UNL     1       1.743  -6.207   0.632  0.00  0.00    +0.079 A 
ATOM     11  C   UNL     1       1.096  -6.886  -0.403  0.00  0.00    +0.017 A 
ATOM     12  C   UNL     1       1.077  -8.264  -0.414  0.00  0.00    +0.001 A 
ATOM     13  C   UNL     1       1.699  -8.980   0.597  0.00  0.00    +0.004 A 
ATOM     14  C   UNL     1       2.341  -8.321   1.626  0.00  0.00    +0.046 A 
ATOM     15  C   UNL     1       2.375  -6.934   1.650  0.00  0.00    +0.129 A 
BRANCH  15  16
ATOM     16  O   UNL     1       3.012  -6.285   2.656  0.00  0.00    -0.506 OA
ATOM     17  H   UNL     1       2.448  -6.091   3.418  0.00  0.00    +0.292 HD
ENDBRANCH  15  16
ENDBRANCH   7  10
ENDBRANCH   4   6
ENDBRANCH   1   2
BRANCH   1  19
ATOM     18  C   UNL     1       0.051   1.595   0.080  0.00  0.00    +0.009 C 
ATOM     19  C   UNL     1      -0.074   0.072   0.006  0.00  0.00    +0.010 C 
ATOM     20  C   UNL     1      -1.553  -0.319  -0.001  0.00  0.00    +0.009 C 
ENDBRANCH   1  19
BRANCH   1  21
ATOM     21  N   UNL     1      -0.132   0.082  -2.438  0.00  0.00    -0.178 NA
ATOM     22  H   UNL     1      -1.085  -0.075  -2.523  0.00  0.00    +0.149 HD
BRANCH  21  23
ATOM     23  S   UNL     1       0.676   0.930  -3.609  0.00  0.00    +0.059 S 
ATOM     24  O   UNL     1      -0.276   1.234  -4.620  0.00  0.00    -0.153 OA
ATOM     25  O   UNL     1       1.423   1.935  -2.939  0.00  0.00    -0.153 OA
BRANCH  23  26
ATOM     26  C   UNL     1       1.847  -0.169  -4.335  0.00  0.00    +0.106 A 
ATOM     27  C   UNL     1       3.129  -0.260  -3.795  0.00  0.00    +0.029 A 
ATOM     28  C   UNL     1       4.057  -1.098  -4.332  0.00  0.00    +0.010 A 
ATOM     29  C   UNL     1       3.721  -1.886  -5.446  0.00  0.00    -0.018 A 
ATOM     30  C   UNL     1       4.652  -2.764  -6.027  0.00  0.00    +0.008 A 
ATOM     31  C   UNL     1       4.291  -3.512  -7.105  0.00  0.00    +0.001 A 
ATOM     32  C   UNL     1       3.009  -3.421  -7.644  0.00  0.00    +0.001 A 
ATOM     33  C   UNL     1       2.081  -2.583  -7.108  0.00  0.00    +0.008 A 
ATOM     34  C   UNL     1       2.417  -1.794  -5.994  0.00  0.00    -0.016 A 
ATOM     35  C   UNL     1       1.484  -0.921  -5.410  0.00  0.00    +0.037 A 
ENDBRANCH  23  26
ENDBRANCH  21  23
ENDBRANCH   1  21
TORSDOF 8
