REMARK  Name = ZINC67192205
REMARK  6 active torsions:
REMARK  status: ('A' for Active; 'I' for Inactive)
REMARK    1  A    between atoms: C_6  and  C_7
REMARK    2  A    between atoms: C_7  and  C_12
REMARK    3  A    between atoms: N_14  and  C_15
REMARK    4  A    between atoms: C_15  and  C_16
REMARK    5  A    between atoms: C_16  and  C_17
REMARK    6  A    between atoms: C_17  and  C_18
REMARK                            x       y       z     vdW  Elec       q    Type
REMARK                         _______ _______ _______ _____ _____    ______ ____
ROOT
ATOM      1  C   UNL     1      -2.046  -0.504   1.287  0.00  0.00    +0.224 C 
ATOM      2  O   UNL     1      -2.245  -1.404   2.076  0.00  0.00    -0.275 OA
ATOM      3  N   UNL     1      -2.498   0.737   1.553  0.00  0.00    -0.315 N 
ATOM      4  H   UNL     1      -2.403   1.440   0.892  0.00  0.00    +0.149 HD
ENDROOT
BRANCH   1   5
ATOM      5  C   UNL     1      -1.293  -0.775   0.010  0.00  0.00    +0.072 C 
ATOM      6  C   UNL     1      -2.136  -0.340  -1.202  0.00  0.00    +0.021 C 
ATOM      7  C   UNL     1      -2.370  -1.605  -2.053  0.00  0.00    +0.001 C 
ATOM      8  C   UNL     1      -2.208  -2.773  -1.049  0.00  0.00    +0.001 C 
ATOM      9  C   UNL     1      -1.045  -2.289  -0.147  0.00  0.00    +0.021 C 
BRANCH   5  15
ATOM     10  C   UNL     1       0.431   0.628   1.159  0.00  0.00    +0.007 A 
ATOM     11  C   UNL     1       1.635   1.307   1.168  0.00  0.00    +0.038 A 
ATOM     12  C   UNL     1       2.429   1.323   0.034  0.00  0.00    +0.123 A 
ATOM     13  C   UNL     1       2.015   0.658  -1.108  0.00  0.00    +0.038 A 
ATOM     14  C   UNL     1       0.811  -0.020  -1.115  0.00  0.00    +0.007 A 
ATOM     15  C   UNL     1       0.020  -0.035   0.018  0.00  0.00    -0.032 A 
ATOM     16  F   UNL     1       3.606   1.986   0.041  0.00  0.00    -0.205 F 
ENDBRANCH   5  15
ENDBRANCH   1   5
BRANCH   3  17
ATOM     17  C   UNL     1      -3.133   1.025   2.842  0.00  0.00    +0.104 C 
BRANCH  17  18
ATOM     18  C   UNL     1      -3.552   2.496   2.886  0.00  0.00    +0.026 C 
BRANCH  18  19
ATOM     19  C   UNL     1      -4.215   2.797   4.232  0.00  0.00    +0.078 C 
BRANCH  19  20
ATOM     20  C   UNL     1      -4.627   4.246   4.276  0.00  0.00    +0.134 A 
ATOM     21  N   UNL     1      -3.901   5.247   4.698  0.00  0.00    -0.134 NA
ATOM     22  N   UNL     1      -4.566   6.343   4.586  0.00  0.00    -0.134 NA
ATOM     23  C   UNL     1      -5.742   6.090   4.085  0.00  0.00    +0.133 A 
ATOM     24  N   UNL     1      -5.815   4.754   3.881  0.00  0.00    -0.315 N 
ATOM     25  C   UNL     1      -6.963   4.015   3.355  0.00  0.00    +0.125 C 
ATOM     26  C   UNL     1      -7.777   4.929   2.435  0.00  0.00    +0.022 C 
ATOM     27  C   UNL     1      -8.829   5.678   3.252  0.00  0.00    +0.002 C 
ATOM     28  C   UNL     1      -8.161   6.557   4.305  0.00  0.00    +0.008 C 
ATOM     29  C   UNL     1      -6.831   7.083   3.770  0.00  0.00    +0.076 C 
ENDBRANCH  19  20
ENDBRANCH  18  19
ENDBRANCH  17  18
ENDBRANCH   3  17
TORSDOF 6
