REMARK  Name = ZINC63737892
REMARK  8 active torsions:
REMARK  status: ('A' for Active; 'I' for Inactive)
REMARK    1  A    between atoms: C_1  and  N_2
REMARK    2  A    between atoms: N_2  and  C_3
REMARK    3  A    between atoms: N_2  and  C_27
REMARK    4  A    between atoms: C_3  and  C_4
REMARK    5  A    between atoms: C_4  and  N_5
REMARK    6  A    between atoms: C_6  and  C_8
REMARK    7  A    between atoms: C_8  and  C_9
REMARK    8  A    between atoms: C_15  and  C_17
REMARK                            x       y       z     vdW  Elec       q    Type
REMARK                         _______ _______ _______ _____ _____    ______ ____
ROOT
ATOM      1  C   UNL     1      -0.065  -0.395  -7.340  0.00  0.00    +0.001 C 
ATOM      2  C   UNL     1      -1.412  -1.122  -7.327  0.00  0.00    +0.023 C 
ATOM      3  C   UNL     1      -2.232  -0.692  -8.547  0.00  0.00    +0.108 C 
ATOM      4  N   UNL     1      -1.433  -0.923  -9.759  0.00  0.00    -0.300 N 
ATOM      5  C   UNL     1      -0.085  -0.344  -9.837  0.00  0.00    +0.108 C 
ATOM      6  C   UNL     1       0.711  -0.778  -8.602  0.00  0.00    +0.023 C 
ATOM      7  C   UNL     1      -1.927  -1.653 -10.778  0.00  0.00    +0.242 C 
ATOM      8  O   UNL     1      -3.041  -2.126 -10.701  0.00  0.00    -0.273 OA
ENDROOT
BRANCH   7   9
ATOM      9  C   UNL     1      -1.095  -1.881 -12.014  0.00  0.00    +0.190 C 
ATOM     10  C   UNL     1       0.160  -2.650 -11.664  0.00  0.00    +0.016 C 
ATOM     11  C   UNL     1       0.103  -3.802 -12.370  0.00  0.00    -0.004 A 
ATOM     12  C   UNL     1       1.006  -4.955 -12.467  0.00  0.00    +0.010 A 
ATOM     13  C   UNL     1       0.672  -5.984 -13.279  0.00  0.00    +0.001 A 
ATOM     14  C   UNL     1      -0.512  -5.976 -14.029  0.00  0.00    +0.002 A 
ATOM     15  C   UNL     1      -1.392  -4.953 -13.993  0.00  0.00    +0.026 A 
ATOM     16  C   UNL     1      -1.141  -3.819 -13.172  0.00  0.00    +0.043 A 
ATOM     17  N   UNL     1      -1.828  -2.719 -12.970  0.00  0.00    -0.370 N 
ATOM     18  H   UNL     1      -2.678  -2.496 -13.382  0.00  0.00    +0.161 HD
ENDBRANCH   7   9
BRANCH   1  19
ATOM     19  C   UNL     1       0.742  -0.796  -6.103  0.00  0.00    +0.099 C 
BRANCH  19  21
ATOM     20  N   UNL     1       0.568  -0.550  -3.648  0.00  0.00    -0.317 N 
ATOM     21  C   UNL     1       0.037  -0.310  -4.864  0.00  0.00    +0.213 C 
ATOM     22  O   UNL     1      -1.009   0.297  -4.959  0.00  0.00    -0.276 OA
ATOM     23  H   UNL     1       1.404  -1.035  -3.572  0.00  0.00    +0.149 HD
BRANCH  20  24
ATOM     24  C   UNL     1      -0.118  -0.077  -2.443  0.00  0.00    +0.085 C 
BRANCH  24  25
ATOM     25  C   UNL     1       0.690  -0.478  -1.207  0.00  0.00    -0.060 C 
BRANCH  25  27
ATOM     26  C   UNL     1      -0.018   1.465   0.010  0.00  0.00    -0.096 C 
ATOM     27  N   UNL     1       0.002  -0.004   0.002  0.00  0.00    +0.381 N 
ATOM     28  H   UNL     1      -0.945  -0.353   0.009  0.00  0.00    -0.082 HD
BRANCH  27  29
ATOM     29  C   UNL     1       0.713  -0.491   1.192  0.00  0.00    -0.069 C 
ATOM     30  C   UNL     1       0.733  -2.021   1.184  0.00  0.00    -0.015 C 
ATOM     31  C   UNL     1       1.473  -2.527   2.423  0.00  0.00    -0.002 C 
ATOM     32  C   UNL     1       0.757  -2.034   3.682  0.00  0.00    -0.000 C 
ATOM     33  C   UNL     1       0.736  -0.504   3.691  0.00  0.00    -0.002 C 
ATOM     34  C   UNL     1      -0.004   0.003   2.451  0.00  0.00    -0.015 C 
ENDBRANCH  27  29
ENDBRANCH  25  27
ENDBRANCH  24  25
ENDBRANCH  20  24
ENDBRANCH  19  21
ENDBRANCH   1  19
TORSDOF 7
