REMARK  Name = ZINC16880327
REMARK  10 active torsions:
REMARK  status: ('A' for Active; 'I' for Inactive)
REMARK    1  A    between atoms: C_1  and  C_2
REMARK    2  A    between atoms: C_5  and  C_9
REMARK    3  A    between atoms: C_6  and  C_8
REMARK    4  A    between atoms: C_9  and  C_10
REMARK    5  A    between atoms: C_10  and  C_24
REMARK    6  A    between atoms: C_11  and  O_23
REMARK    7  A    between atoms: C_13  and  C_17
REMARK    8  A    between atoms: C_24  and  C_25
REMARK    9  A    between atoms: C_28  and  C_32
REMARK   10  A    between atoms: C_30  and  C_31
REMARK                            x       y       z     vdW  Elec       q    Type
REMARK                         _______ _______ _______ _____ _____    ______ ____
ROOT
ATOM      1  C   UNL     1       1.264  -2.542  -0.918  0.00  0.00    +0.132 C 
ATOM      2  C   UNL     1       0.234  -1.438  -1.065  0.00  0.00    +0.205 C 
ATOM      3  N   UNL     1       0.672  -0.237  -1.357  0.00  0.00    -0.199 NA
ATOM      4  C   UNL     1       1.969   0.026  -1.535  0.00  0.00    +0.156 C 
ATOM      5  N   UNL     1       2.945  -0.855  -1.432  0.00  0.00    -0.160 NA
ATOM      6  C   UNL     1       2.710  -2.136  -1.135  0.00  0.00    +0.254 C 
ATOM      7  O   UNL     1       3.616  -2.941  -1.042  0.00  0.00    -0.272 OA
ENDROOT
BRANCH   4   8
ATOM      8  C   UNL     1       2.341   1.417  -1.869  0.00  0.00    +0.017 A 
ATOM      9  C   UNL     1       1.353   2.396  -1.998  0.00  0.00    +0.011 A 
ATOM     10  C   UNL     1       1.708   3.693  -2.304  0.00  0.00    +0.001 A 
ATOM     11  C   UNL     1       3.038   4.023  -2.494  0.00  0.00    +0.000 A 
ATOM     12  C   UNL     1       4.022   3.057  -2.373  0.00  0.00    +0.001 A 
ATOM     13  C   UNL     1       3.682   1.758  -2.062  0.00  0.00    +0.011 A 
ENDBRANCH   4   8
BRANCH   2  14
ATOM     14  O   UNL     1      -1.076  -1.680  -0.895  0.00  0.00    -0.495 OA
ATOM     15  H   UNL     1      -1.678  -0.931  -1.003  0.00  0.00    +0.293 HD
ENDBRANCH   2  14
BRANCH   1  16
ATOM     16  C   UNL     1       0.923  -3.648  -1.919  0.00  0.00    +0.061 C 
BRANCH  16  21
ATOM     17  C   UNL     1       2.186  -1.861  -7.268  0.00  0.00    +0.044 C 
ATOM     18  C   UNL     1       1.857  -2.327  -5.873  0.00  0.00    -0.050 A 
ATOM     19  C   UNL     1       0.777  -1.786  -5.200  0.00  0.00    +0.003 A 
ATOM     20  C   UNL     1       0.472  -2.217  -3.923  0.00  0.00    +0.004 A 
ATOM     21  C   UNL     1       1.253  -3.182  -3.314  0.00  0.00    -0.043 A 
ATOM     22  C   UNL     1       2.332  -3.723  -3.987  0.00  0.00    -0.047 A 
ATOM     23  C   UNL     1       2.635  -3.296  -5.266  0.00  0.00    +0.007 A 
ATOM     24  C   UNL     1       3.180  -4.779  -3.325  0.00  0.00    +0.044 C 
ENDBRANCH  16  21
ENDBRANCH   1  16
BRANCH   1  25
ATOM     25  C   UNL     1       1.138  -3.124   0.491  0.00  0.00    +0.061 C 
BRANCH  25  26
ATOM     26  C   UNL     1       1.397  -2.041   1.507  0.00  0.00    -0.043 A 
ATOM     27  C   UNL     1       0.383  -1.173   1.867  0.00  0.00    +0.004 A 
ATOM     28  C   UNL     1       0.620  -0.182   2.800  0.00  0.00    +0.003 A 
ATOM     29  C   UNL     1       1.874  -0.053   3.368  0.00  0.00    -0.050 A 
ATOM     30  C   UNL     1       2.890  -0.917   3.005  0.00  0.00    +0.007 A 
ATOM     31  C   UNL     1       2.651  -1.911   2.074  0.00  0.00    -0.047 A 
ATOM     32  C   UNL     1       3.758  -2.853   1.677  0.00  0.00    +0.044 C 
ATOM     33  C   UNL     1       2.134   1.030   4.383  0.00  0.00    +0.044 C 
ENDBRANCH  25  26
ENDBRANCH   1  25
TORSDOF 6
