REMARK  Name = ZINC14142355
REMARK  7 active torsions:
REMARK  status: ('A' for Active; 'I' for Inactive)
REMARK    1  A    between atoms: C_1  and  C_2
REMARK    2  A    between atoms: C_2  and  C_4
REMARK    3  A    between atoms: C_2  and  N_39
REMARK    4  A    between atoms: C_9  and  C_10
REMARK    5  A    between atoms: C_9  and  N_39
REMARK    6  A    between atoms: N_12  and  C_13
REMARK    7  A    between atoms: C_18  and  N_19
REMARK                            x       y       z     vdW  Elec       q    Type
REMARK                         _______ _______ _______ _____ _____    ______ ____
ROOT
ATOM      1  C   UNL     1       2.219  -4.474   2.242  0.00  0.00    +0.200 C 
ATOM      2  O   UNL     1       1.034  -4.359   2.471  0.00  0.00    -0.278 OA
ATOM      3  N   UNL     1       2.921  -5.475   2.811  0.00  0.00    -0.285 N 
ATOM      4  H   UNL     1       3.853  -5.607   2.577  0.00  0.00    +0.155 HD
ENDROOT
BRANCH   3   5
ATOM      5  C   UNL     1       2.305  -6.322   3.739  0.00  0.00    +0.060 A 
ATOM      6  C   UNL     1       0.970  -6.667   3.587  0.00  0.00    +0.045 A 
ATOM      7  C   UNL     1       0.365  -7.508   4.503  0.00  0.00    +0.043 A 
ATOM      8  C   UNL     1       1.085  -7.999   5.578  0.00  0.00    +0.022 A 
ATOM      9  C   UNL     1       2.414  -7.656   5.739  0.00  0.00    +0.031 A 
ATOM     10  C   UNL     1       3.030  -6.817   4.822  0.00  0.00    +0.088 A 
ATOM     11 CL   UNL     1      -1.304  -7.944   4.307  0.00  0.00    -0.083 Cl
BRANCH  10  12
ATOM     12  N   UNL     1       4.378  -6.467   4.985  0.00  0.00    -0.218 N 
ATOM     13  C   UNL     1       5.227  -6.936   5.920  0.00  0.00    +0.225 A 
ATOM     14  N   UNL     1       6.391  -6.367   5.732  0.00  0.00    -0.222 NA
ATOM     15  C   UNL     1       6.323  -5.527   4.699  0.00  0.00    +0.245 A 
ATOM     16  N   UNL     1       5.111  -5.554   4.209  0.00  0.00    -0.153 NA
ENDBRANCH  10  12
ENDBRANCH   3   5
BRANCH   1  17
ATOM     17  C   UNL     1       2.908  -3.500   1.321  0.00  0.00    +0.016 C 
BRANCH  17  18
ATOM     18  N   UNL     1       1.923  -2.513   0.838  0.00  0.00    +0.389 N 
ATOM     19  H   UNL     1       1.174  -3.001   0.333  0.00  0.00    -0.084 HD
ATOM     20  H   UNL     1       1.524  -2.012   1.641  0.00  0.00    -0.084 HD
BRANCH  18  22
ATOM     21  C   UNL     1       2.602  -2.115  -1.487  0.00  0.00    -0.008 C 
ATOM     22  C   UNL     1       2.570  -1.545  -0.067  0.00  0.00    -0.037 C 
BRANCH  22  23
ATOM     23  C   UNL     1       1.784  -0.259  -0.059  0.00  0.00    -0.024 A 
ATOM     24  C   UNL     1       2.237   1.018  -0.070  0.00  0.00    +0.009 A 
ATOM     25  C   UNL     1       1.321   2.054  -0.059  0.00  0.00    +0.008 A 
ATOM     26  C   UNL     1      -0.002   1.762  -0.039  0.00  0.00    +0.045 A 
ATOM     27  S   UNL     1       0.014  -0.024  -0.034  0.00  0.00    -0.103 S 
ENDBRANCH  22  23
ENDBRANCH  18  22
ENDBRANCH  17  18
ENDBRANCH   1  17
TORSDOF 6
