REMARK  Name = ZINC40986849
REMARK  14 active torsions:
REMARK  status: ('A' for Active; 'I' for Inactive)
REMARK    1  A    between atoms: C_1  and  C_2
REMARK    2  A    between atoms: C_2  and  C_3
REMARK    3  A    between atoms: C_3  and  C_4
REMARK    4  A    between atoms: C_4  and  S_5
REMARK    5  A    between atoms: S_5  and  C_6
REMARK    6  A    between atoms: C_11  and  C_20
REMARK    7  A    between atoms: C_13  and  C_17
REMARK    8  A    between atoms: C_14  and  C_16
REMARK    9  A    between atoms: C_23  and  O_28
REMARK   10  A    between atoms: C_24  and  O_26
REMARK   11  A    between atoms: O_26  and  C_27
REMARK   12  A    between atoms: O_28  and  C_29
REMARK   13  A    between atoms: C_29  and  C_30
REMARK   14  A    between atoms: C_29  and  C_31
REMARK                            x       y       z     vdW  Elec       q    Type
REMARK                         _______ _______ _______ _____ _____    ______ ____
ROOT
ATOM      1  C   UNL     1       1.541  -4.195  -2.785  0.00  0.00    +0.210 A 
ATOM      2  N   UNL     1       0.916  -4.835  -1.786  0.00  0.00    -0.187 NA
ATOM      3  C   UNL     1       1.014  -6.124  -1.965  0.00  0.00    +0.219 A 
ATOM      4  N   UNL     1       1.722  -6.339  -3.101  0.00  0.00    -0.220 N 
ATOM      5  N   UNL     1       2.043  -5.083  -3.615  0.00  0.00    -0.141 NA
ATOM      6  C   UNL     1       2.041  -7.668  -3.615  0.00  0.00    +0.177 C 
ATOM      7  C   UNL     1       1.228  -8.699  -2.878  0.00  0.00    +0.060 C 
ATOM      8  C   UNL     1       0.543  -8.427  -1.758  0.00  0.00    +0.018 C 
ATOM      9  N   UNL     1       0.522  -7.172  -1.200  0.00  0.00    -0.287 N 
ATOM     10  C   UNL     1      -0.229  -9.535  -1.089  0.00  0.00    +0.061 C 
ATOM     11  H   UNL     1       0.177  -7.025  -0.305  0.00  0.00    +0.155 HD
ENDROOT
BRANCH   6  12
ATOM     12  C   UNL     1       3.508  -7.946  -3.413  0.00  0.00    -0.015 A 
ATOM     13  C   UNL     1       4.040  -7.949  -2.137  0.00  0.00    +0.010 A 
ATOM     14  C   UNL     1       5.386  -8.204  -1.946  0.00  0.00    +0.050 A 
ATOM     15  C   UNL     1       6.204  -8.457  -3.036  0.00  0.00    +0.162 A 
ATOM     16  C   UNL     1       5.668  -8.454  -4.320  0.00  0.00    +0.162 A 
ATOM     17  C   UNL     1       4.318  -8.203  -4.504  0.00  0.00    +0.055 A 
BRANCH  16  18
ATOM     18  O   UNL     1       6.467  -8.703  -5.392  0.00  0.00    -0.491 OA
ATOM     19  C   UNL     1       5.849  -8.684  -6.680  0.00  0.00    +0.277 C 
ENDBRANCH  16  18
BRANCH  15  20
ATOM     20  O   UNL     1       7.528  -8.707  -2.850  0.00  0.00    -0.486 OA
BRANCH  20  21
ATOM     21  C   UNL     1       7.982  -8.829  -1.500  0.00  0.00    +0.167 C 
ATOM     22  C   UNL     1       9.115  -9.855  -1.434  0.00  0.00    +0.051 C 
ATOM     23  C   UNL     1       8.493  -7.473  -1.010  0.00  0.00    +0.051 C 
ENDBRANCH  20  21
ENDBRANCH  15  20
ENDBRANCH   6  12
BRANCH   7  24
ATOM     24  C   UNL     1       1.185 -10.017  -3.391  0.00  0.00    +0.241 C 
ATOM     25  O   UNL     1       0.446 -10.284  -4.321  0.00  0.00    -0.271 OA
ATOM     26  N   UNL     1       1.962 -10.976  -2.851  0.00  0.00    -0.325 N 
ATOM     27  H   UNL     1       2.552 -10.763  -2.111  0.00  0.00    +0.145 HD
ATOM     28  H   UNL     1       1.933 -11.880  -3.203  0.00  0.00    +0.145 HD
ENDBRANCH   7  24
BRANCH   1  29
ATOM     29  S   UNL     1       1.665  -2.446  -2.961  0.00  0.00    -0.084 S 
BRANCH  29  30
ATOM     30  C   UNL     1       0.783  -1.796  -1.515  0.00  0.00    +0.077 C 
BRANCH  30  31
ATOM     31  C   UNL     1       0.814  -0.267  -1.543  0.00  0.00    +0.011 C 
BRANCH  31  33
ATOM     32  C   UNL     1       0.102   1.811  -0.352  0.00  0.00    +0.004 C 
ATOM     33  C   UNL     1       0.071   0.282  -0.324  0.00  0.00    -0.003 C 
ENDBRANCH  31  33
ENDBRANCH  30  31
ENDBRANCH  29  30
ENDBRANCH   1  29
TORSDOF 9
