REMARK  Name = ZINC20614820
REMARK  4 active torsions:
REMARK  status: ('A' for Active; 'I' for Inactive)
REMARK    1  A    between atoms: C_4  and  S_7
REMARK    2  A    between atoms: S_7  and  N_10
REMARK    3  A    between atoms: C_20  and  C_22
REMARK    4  A    between atoms: N_24  and  C_25
REMARK                            x       y       z     vdW  Elec       q    Type
REMARK                         _______ _______ _______ _____ _____    ______ ____
ROOT
ATOM      1  N   UNL     1       4.962  -7.460  -0.517  0.00  0.00    -0.144 NA
ATOM      2  C   UNL     1       4.934  -8.904  -0.193  0.00  0.00    +0.140 C 
ATOM      3  C   UNL     1       4.413  -8.917   1.266  0.00  0.00    +0.179 C 
ATOM      4  O   UNL     1       5.027  -7.732   1.824  0.00  0.00    -0.356 OA
ATOM      5  C   UNL     1       5.003  -6.754   0.772  0.00  0.00    +0.145 C 
ATOM      6  C   UNL     1       6.263  -5.891   0.847  0.00  0.00    +0.072 C 
ATOM      7  C   UNL     1       6.248  -4.871  -0.296  0.00  0.00    +0.112 C 
ATOM      8  N   UNL     1       4.989  -4.116  -0.238  0.00  0.00    -0.293 N 
ATOM      9  C   UNL     1       3.720  -4.857  -0.218  0.00  0.00    +0.112 C 
ATOM     10  C   UNL     1       3.758  -5.877   0.918  0.00  0.00    +0.072 C 
ATOM     11  C   UNL     1       4.997  -2.768  -0.200  0.00  0.00    +0.302 C 
ATOM     12  O   UNL     1       3.952  -2.154  -0.241  0.00  0.00    -0.265 OA
ENDROOT
BRANCH  11  13
ATOM     13  C   UNL     1       6.293  -2.032  -0.106  0.00  0.00    +0.303 C 
ATOM     14  O   UNL     1       7.342  -2.638  -0.183  0.00  0.00    -0.265 OA
ATOM     15  N   UNL     1       6.298  -0.696   0.064  0.00  0.00    -0.278 N 
ATOM     16  H   UNL     1       5.351  -0.156   0.210  0.00  0.00    +0.155 HD
BRANCH  15  17
ATOM     17  C   UNL     1       7.508   0.006   0.056  0.00  0.00    +0.038 A 
ATOM     18  C   UNL     1       7.566   1.284  -0.486  0.00  0.00    +0.027 A 
ATOM     19  C   UNL     1       8.761   1.977  -0.496  0.00  0.00    +0.051 A 
ATOM     20  C   UNL     1       9.906   1.399   0.034  0.00  0.00    +0.162 A 
ATOM     21  C   UNL     1       9.850   0.122   0.580  0.00  0.00    +0.164 A 
ATOM     22  C   UNL     1       8.651  -0.574   0.588  0.00  0.00    +0.072 A 
ATOM     23  O   UNL     1      10.961  -0.457   1.112  0.00  0.00    -0.485 OA
ATOM     24  C   UNL     1      12.222   0.116   0.750  0.00  0.00    +0.270 C 
ATOM     25  C   UNL     1      12.114   1.640   0.885  0.00  0.00    +0.270 C 
ATOM     26  O   UNL     1      11.077   2.095   0.008  0.00  0.00    -0.485 OA
ENDBRANCH  15  17
ENDBRANCH  11  13
BRANCH   1  27
ATOM     27  S   UNL     1       4.950  -6.778  -2.026  0.00  0.00    +0.063 S 
ATOM     28  O   UNL     1       4.929  -5.370  -1.835  0.00  0.00    -0.153 OA
ATOM     29  O   UNL     1       5.967  -7.430  -2.775  0.00  0.00    -0.153 OA
BRANCH  27  33
ATOM     30  C   UNL     1       1.010  -7.880  -3.963  0.00  0.00    +0.000 A 
ATOM     31  C   UNL     1       1.151  -6.660  -3.329  0.00  0.00    +0.002 A 
ATOM     32  C   UNL     1       2.354  -6.323  -2.738  0.00  0.00    +0.028 A 
ATOM     33  C   UNL     1       3.416  -7.207  -2.780  0.00  0.00    +0.106 A 
ATOM     34  C   UNL     1       3.277  -8.425  -3.418  0.00  0.00    +0.028 A 
ATOM     35  C   UNL     1       2.072  -8.764  -4.005  0.00  0.00    +0.002 A 
ENDBRANCH  27  33
ENDBRANCH   1  27
TORSDOF 4
