REMARK  Name = ZINC60210898
REMARK  11 active torsions:
REMARK  status: ('A' for Active; 'I' for Inactive)
REMARK    1  A    between atoms: C_1  and  C_2
REMARK    2  A    between atoms: C_2  and  C_3
REMARK    3  A    between atoms: C_2  and  C_4
REMARK    4  A    between atoms: C_4  and  C_5
REMARK    5  A    between atoms: C_5  and  C_7
REMARK    6  A    between atoms: C_5  and  N_19
REMARK    7  A    between atoms: N_9  and  C_10
REMARK    8  A    between atoms: C_10  and  C_11
REMARK    9  A    between atoms: C_11  and  C_12
REMARK   10  A    between atoms: C_16  and  O_18
REMARK   11  A    between atoms: C_20  and  C_22
REMARK                            x       y       z     vdW  Elec       q    Type
REMARK                         _______ _______ _______ _____ _____    ______ ____
ROOT
ATOM      1  C   UNL     1      -1.835  -1.367  -0.910  0.00  0.00    +0.159 C 
ENDROOT
BRANCH   1   2
ATOM      2  C   UNL     1      -3.290  -1.555  -1.258  0.00  0.00    +0.233 C 
ATOM      3  O   UNL     1      -3.859  -2.580  -0.948  0.00  0.00    -0.274 OA
ATOM      4  N   UNL     1      -3.957  -0.585  -1.913  0.00  0.00    -0.313 N 
ATOM      5  H   UNL     1      -3.502   0.235  -2.160  0.00  0.00    +0.149 HD
BRANCH   4   6
ATOM      6  C   UNL     1      -5.371  -0.768  -2.251  0.00  0.00    +0.109 C 
BRANCH   6   7
ATOM      7  C   UNL     1      -5.884   0.472  -2.986  0.00  0.00    +0.054 C 
BRANCH   7   8
ATOM      8  C   UNL     1      -7.338   0.283  -3.333  0.00  0.00    -0.042 A 
ATOM      9  C   UNL     1      -7.691  -0.299  -4.537  0.00  0.00    +0.004 A 
ATOM     10  C   UNL     1      -9.024  -0.473  -4.859  0.00  0.00    +0.004 A 
ATOM     11  C   UNL     1     -10.008  -0.065  -3.978  0.00  0.00    +0.045 A 
ATOM     12  C   UNL     1      -9.657   0.519  -2.770  0.00  0.00    +0.117 A 
ATOM     13  C   UNL     1      -8.318   0.688  -2.447  0.00  0.00    +0.049 A 
BRANCH  12  14
ATOM     14  O   UNL     1     -10.622   0.921  -1.902  0.00  0.00    -0.507 OA
ATOM     15  H   UNL     1     -10.890   0.241  -1.269  0.00  0.00    +0.292 HD
ENDBRANCH  12  14
ENDBRANCH   7   8
ENDBRANCH   6   7
ENDBRANCH   4   6
ENDBRANCH   1   2
BRANCH   1  16
ATOM     16  N   UNL     1      -1.339  -2.562  -0.224  0.00  0.00    -0.300 N 
ATOM     17  C   UNL     1      -0.021  -2.848  -0.237  0.00  0.00    +0.246 C 
ATOM     18  O   UNL     1       0.765  -2.065  -0.733  0.00  0.00    -0.270 OA
ATOM     19  H   UNL     1      -1.957  -3.148   0.239  0.00  0.00    +0.150 HD
BRANCH  17  20
ATOM     20  C   UNL     1       0.466  -4.111   0.352  0.00  0.00    +0.055 A 
ATOM     21  C   UNL     1      -0.436  -5.015   0.918  0.00  0.00    +0.016 A 
ATOM     22  C   UNL     1       0.025  -6.193   1.466  0.00  0.00    +0.021 A 
ATOM     23  C   UNL     1       1.380  -6.482   1.458  0.00  0.00    +0.042 A 
ATOM     24  C   UNL     1       2.280  -5.590   0.899  0.00  0.00    +0.040 A 
ATOM     25  C   UNL     1       1.831  -4.410   0.341  0.00  0.00    +0.054 A 
ATOM     26 CL   UNL     1       2.960  -3.297  -0.366  0.00  0.00    -0.083 Cl
ATOM     27 CL   UNL     1       1.952  -7.967   2.151  0.00  0.00    -0.083 Cl
ENDBRANCH  17  20
ENDBRANCH   1  16
BRANCH   1  28
ATOM     28  C   UNL     1      -1.684  -0.152   0.008  0.00  0.00    +0.034 C 
BRANCH  28  30
ATOM     29  C   UNL     1      -2.048   0.684   2.334  0.00  0.00    +0.007 C 
ATOM     30  C   UNL     1      -2.386  -0.428   1.339  0.00  0.00    -0.015 C 
ATOM     31  C   UNL     1      -3.899  -0.472   1.118  0.00  0.00    +0.007 C 
ENDBRANCH  28  30
ENDBRANCH   1  28
TORSDOF 9
