REMARK  Name = ZINC22572101
REMARK  8 active torsions:
REMARK  status: ('A' for Active; 'I' for Inactive)
REMARK    1  A    between atoms: C_1  and  C_2
REMARK    2  A    between atoms: C_5  and  N_8
REMARK    3  A    between atoms: C_17  and  S_18
REMARK    4  A    between atoms: S_18  and  C_19
REMARK    5  A    between atoms: C_19  and  C_21
REMARK    6  A    between atoms: C_19  and  C_24
REMARK    7  A    between atoms: C_21  and  C_22
REMARK    8  A    between atoms: C_21  and  C_23
REMARK                            x       y       z     vdW  Elec       q    Type
REMARK                         _______ _______ _______ _____ _____    ______ ____
ROOT
ATOM      1  N   UNL     1       3.289  -5.352  -1.412  0.00  0.00    -0.255 N 
ATOM      2  C   UNL     1       2.865  -6.510  -1.952  0.00  0.00    +0.268 A 
ATOM      3  O   UNL     1       3.546  -7.094  -2.778  0.00  0.00    -0.267 OA
ATOM      4  C   UNL     1       1.600  -7.041  -1.547  0.00  0.00    +0.076 A 
ATOM      5  C   UNL     1       0.947  -8.277  -2.010  0.00  0.00    -0.023 A 
ATOM      6  C   UNL     1      -0.249  -8.568  -1.475  0.00  0.00    -0.004 A 
ATOM      7  S   UNL     1      -0.583  -7.239  -0.342  0.00  0.00    -0.073 S 
ATOM      8  C   UNL     1       0.896  -6.294  -0.592  0.00  0.00    +0.117 A 
ATOM      9  N   UNL     1       1.371  -5.158  -0.092  0.00  0.00    -0.215 NA
ATOM     10  C   UNL     1       2.539  -4.688  -0.482  0.00  0.00    +0.178 A 
ATOM     11  C   UNL     1      -0.817  -9.852  -2.018  0.00  0.00    +0.043 C 
ATOM     12  C   UNL     1       0.390 -10.568  -2.662  0.00  0.00    +0.010 C 
ATOM     13  C   UNL     1       1.310  -9.380  -3.007  0.00  0.00    +0.037 C 
ENDROOT
BRANCH   1  18
ATOM     14  C   UNL     1       8.290  -3.199  -3.010  0.00  0.00    +0.044 C 
ATOM     15  C   UNL     1       6.962  -3.771  -2.586  0.00  0.00    -0.050 A 
ATOM     16  C   UNL     1       5.788  -3.212  -3.057  0.00  0.00    +0.005 A 
ATOM     17  C   UNL     1       4.569  -3.734  -2.670  0.00  0.00    +0.026 A 
ATOM     18  C   UNL     1       4.524  -4.821  -1.807  0.00  0.00    +0.052 A 
ATOM     19  C   UNL     1       5.704  -5.376  -1.331  0.00  0.00    +0.026 A 
ATOM     20  C   UNL     1       6.920  -4.853  -1.726  0.00  0.00    +0.005 A 
ENDBRANCH   1  18
BRANCH  10  21
ATOM     21  S   UNL     1       3.139  -3.179   0.201  0.00  0.00    -0.074 S 
BRANCH  21  22
ATOM     22  C   UNL     1       1.767  -2.766   1.306  0.00  0.00    +0.143 C 
BRANCH  22  23
ATOM     23  C   UNL     1       1.956  -1.370   1.842  0.00  0.00    +0.234 C 
ATOM     24  O   UNL     1       3.053  -0.856   1.821  0.00  0.00    -0.274 OA
ATOM     25  N   UNL     1       0.904  -0.693   2.344  0.00  0.00    -0.239 N 
ATOM     26  C   UNL     1       1.073   0.555   2.823  0.00  0.00    +0.303 C 
ATOM     27  O   UNL     1       2.174   1.070   2.803  0.00  0.00    -0.253 OA
ATOM     28  N   UNL     1       0.020   1.234   3.321  0.00  0.00    -0.313 N 
ATOM     29  H   UNL     1      -0.092  -1.159   2.363  0.00  0.00    +0.159 HD
ATOM     30  H   UNL     1       0.158   2.253   3.712  0.00  0.00    +0.146 HD
ATOM     31  H   UNL     1      -0.977   0.770   3.336  0.00  0.00    +0.146 HD
ENDBRANCH  22  23
BRANCH  22  32
ATOM     32  C   UNL     1       1.732  -3.759   2.470  0.00  0.00    +0.005 C 
ATOM     33  C   UNL     1       3.033  -3.654   3.268  0.00  0.00    +0.009 C 
ATOM     34  C   UNL     1       0.547  -3.435   3.381  0.00  0.00    +0.009 C 
ENDBRANCH  22  32
ENDBRANCH  21  22
ENDBRANCH  10  21
TORSDOF 5
