REMARK  Name = ZINC32758460
REMARK  4 active torsions:
REMARK  status: ('A' for Active; 'I' for Inactive)
REMARK    1  A    between atoms: C_7  and  C_11
REMARK    2  A    between atoms: C_11  and  C_12
REMARK    3  A    between atoms: N_16  and  C_20
REMARK    4  A    between atoms: C_20  and  C_21
REMARK                            x       y       z     vdW  Elec       q    Type
REMARK                         _______ _______ _______ _____ _____    ______ ____
ROOT
ATOM      1  C   UNL     1      -0.727   3.357   0.027  0.00  0.00    +0.165 C 
ATOM      2  C   UNL     1       0.787   3.284   0.012  0.00  0.00    +0.244 C 
ATOM      3  O   UNL     1       1.565   4.213   0.009  0.00  0.00    -0.273 OA
ATOM      4  N   UNL     1       1.087   1.970   0.002  0.00  0.00    -0.220 N 
ATOM      5  C   UNL     1      -0.014   1.211   0.009  0.00  0.00    +0.309 C 
ATOM      6  O   UNL     1       0.002  -0.004   0.002  0.00  0.00    -0.252 OA
ATOM      7  N   UNL     1      -1.143   1.944   0.018  0.00  0.00    -0.287 N 
ATOM      8  H   UNL     1      -2.212   1.685   0.019  0.00  0.00    +0.151 HD
ENDROOT
BRANCH   1   9
ATOM      9  C   UNL     1      -1.220   4.059   1.294  0.00  0.00    +0.069 C 
BRANCH   9  16
ATOM     10  C   UNL     1      -4.816   1.263   2.399  0.00  0.00    +0.001 A 
ATOM     11  C   UNL     1      -6.051   1.853   2.164  0.00  0.00    +0.002 A 
ATOM     12  C   UNL     1      -6.135   3.131   1.657  0.00  0.00    +0.026 A 
ATOM     13  C   UNL     1      -4.972   3.841   1.377  0.00  0.00    +0.047 A 
ATOM     14  C   UNL     1      -3.723   3.237   1.611  0.00  0.00    +0.003 A 
ATOM     15  C   UNL     1      -3.661   1.942   2.131  0.00  0.00    +0.010 A 
ATOM     16  C   UNL     1      -2.716   4.228   1.226  0.00  0.00    -0.020 A 
ATOM     17  C   UNL     1      -3.378   5.313   0.794  0.00  0.00    +0.087 A 
ATOM     18  N   UNL     1      -4.727   5.100   0.878  0.00  0.00    -0.360 N 
ATOM     19  H   UNL     1      -5.567   5.760   0.615  0.00  0.00    +0.165 HD
ENDBRANCH   9  16
ENDBRANCH   1   9
BRANCH   4  20
ATOM     20  C   UNL     1       2.453   1.438  -0.014  0.00  0.00    +0.161 C 
BRANCH  20  21
ATOM     21  C   UNL     1       2.906   1.264  -1.441  0.00  0.00    +0.027 A 
ATOM     22  C   UNL     1       3.534   2.151  -2.227  0.00  0.00    +0.060 A 
ATOM     23  C   UNL     1       3.889   1.773  -3.587  0.00  0.00    +0.008 A 
ATOM     24  C   UNL     1       4.549   2.539  -4.576  0.00  0.00    +0.010 A 
ATOM     25  C   UNL     1       4.796   2.020  -5.808  0.00  0.00    +0.001 A 
ATOM     26  C   UNL     1       4.413   0.727  -6.141  0.00  0.00    +0.001 A 
ATOM     27  C   UNL     1       3.767  -0.053  -5.203  0.00  0.00    +0.016 A 
ATOM     28  C   UNL     1       3.511   0.462  -3.951  0.00  0.00    +0.021 A 
ATOM     29  S   UNL     1       2.730  -0.168  -2.487  0.00  0.00    -0.090 S 
ATOM     30 CL   UNL     1       3.922   3.734  -1.627  0.00  0.00    -0.082 Cl
ENDBRANCH  20  21
ENDBRANCH   4  20
TORSDOF 4
