REMARK  Name = ZINC39708506
REMARK  11 active torsions:
REMARK  status: ('A' for Active; 'I' for Inactive)
REMARK    1  A    between atoms: C_1  and  C_2
REMARK    2  A    between atoms: C_2  and  C_3
REMARK    3  A    between atoms: C_7  and  C_38
REMARK    4  A    between atoms: C_8  and  N_9
REMARK    5  A    between atoms: C_10  and  C_24
REMARK    6  A    between atoms: C_13  and  S_14
REMARK    7  A    between atoms: S_14  and  C_15
REMARK    8  A    between atoms: C_15  and  C_17
REMARK    9  A    between atoms: C_15  and  C_18
REMARK   10  A    between atoms: C_24  and  N_25
REMARK   11  A    between atoms: C_26  and  C_28
REMARK                            x       y       z     vdW  Elec       q    Type
REMARK                         _______ _______ _______ _____ _____    ______ ____
ROOT
ATOM      1  N   UNL     1      -1.597  -0.223  -2.178  0.00  0.00    -0.272 N 
ATOM      2  C   UNL     1      -1.502   1.065  -2.633  0.00  0.00    +0.156 A 
ATOM      3  N   UNL     1      -0.736   1.048  -3.687  0.00  0.00    -0.132 NA
ATOM      4  N   UNL     1      -0.342  -0.151  -3.929  0.00  0.00    -0.122 NA
ATOM      5  C   UNL     1      -0.835  -0.973  -3.031  0.00  0.00    +0.197 A 
ENDROOT
BRANCH   1  11
ATOM      6  C   UNL     1      -3.674  -0.962  -1.185  0.00  0.00    -0.023 A 
ATOM      7  C   UNL     1      -4.382  -1.415  -0.088  0.00  0.00    +0.005 A 
ATOM      8  C   UNL     1      -3.745  -1.579   1.128  0.00  0.00    +0.001 A 
ATOM      9  C   UNL     1      -2.398  -1.292   1.251  0.00  0.00    +0.005 A 
ATOM     10  C   UNL     1      -1.685  -0.838   0.159  0.00  0.00    -0.026 A 
ATOM     11  C   UNL     1      -2.320  -0.678  -1.065  0.00  0.00    +0.056 A 
ATOM     12  C   UNL     1      -0.217  -0.524   0.294  0.00  0.00    +0.046 C 
BRANCH   6  14
ATOM     13  C   UNL     1      -4.200  -2.050  -3.350  0.00  0.00    +0.009 C 
ATOM     14  C   UNL     1      -4.368  -0.782  -2.510  0.00  0.00    +0.034 C 
ENDBRANCH   6  14
ENDBRANCH   1  11
BRANCH   5  15
ATOM     15  S   UNL     1      -0.568  -2.712  -2.944  0.00  0.00    -0.078 S 
BRANCH  15  16
ATOM     16  C   UNL     1       0.521  -3.060  -4.352  0.00  0.00    +0.081 C 
ATOM     17  C   UNL     1      -0.222  -2.765  -5.657  0.00  0.00    +0.024 C 
BRANCH  16  18
ATOM     18  C   UNL     1       0.931  -4.510  -4.324  0.00  0.00    -0.034 A 
ATOM     19  C   UNL     1      -0.029  -5.501  -4.399  0.00  0.00    +0.005 A 
ATOM     20  C   UNL     1       0.347  -6.831  -4.373  0.00  0.00    +0.000 A 
ATOM     21  C   UNL     1       1.683  -7.170  -4.274  0.00  0.00    +0.000 A 
ATOM     22  C   UNL     1       2.644  -6.179  -4.200  0.00  0.00    +0.000 A 
ATOM     23  C   UNL     1       2.268  -4.849  -4.231  0.00  0.00    +0.005 A 
ENDBRANCH  16  18
ENDBRANCH  15  16
ENDBRANCH   5  15
BRANCH   2  24
ATOM     24  C   UNL     1      -2.163   2.277  -2.028  0.00  0.00    +0.181 C 
BRANCH  24  25
ATOM     25  N   UNL     1      -1.295   2.838  -0.989  0.00  0.00    -0.308 N 
ATOM     26  C   UNL     1      -1.726   3.868  -0.235  0.00  0.00    +0.220 C 
ATOM     27  O   UNL     1      -2.864   4.272  -0.353  0.00  0.00    -0.275 OA
ATOM     28  H   UNL     1      -0.410   2.469  -0.845  0.00  0.00    +0.149 HD
BRANCH  26  29
ATOM     29  C   UNL     1      -0.795   4.519   0.756  0.00  0.00    +0.048 C 
ATOM     30  C   UNL     1      -0.240   3.457   1.707  0.00  0.00    +0.019 C 
ATOM     31  C   UNL     1       0.705   4.117   2.713  0.00  0.00    -0.009 C 
ATOM     32  C   UNL     1      -0.060   5.170   3.516  0.00  0.00    +0.007 C 
ATOM     33  C   UNL     1      -0.615   6.233   2.565  0.00  0.00    -0.009 C 
ATOM     34  C   UNL     1      -1.561   5.572   1.559  0.00  0.00    +0.019 C 
ATOM     35  C   UNL     1       0.540   6.901   1.816  0.00  0.00    +0.007 C 
ATOM     36  C   UNL     1       1.305   5.847   1.013  0.00  0.00    -0.009 C 
ATOM     37  C   UNL     1       1.860   4.785   1.964  0.00  0.00    +0.007 C 
ATOM     38  C   UNL     1       0.359   5.187   0.007  0.00  0.00    +0.019 C 
ENDBRANCH  26  29
ENDBRANCH  24  25
ENDBRANCH   2  24
TORSDOF 8
