REMARK  Name = ZINC08734744
REMARK  8 active torsions:
REMARK  status: ('A' for Active; 'I' for Inactive)
REMARK    1  A    between atoms: C_1  and  C_2
REMARK    2  A    between atoms: C_2  and  C_4
REMARK    3  A    between atoms: C_2  and  N_54
REMARK    4  A    between atoms: C_9  and  C_10
REMARK    5  A    between atoms: C_9  and  N_54
REMARK    6  A    between atoms: N_12  and  C_13
REMARK    7  A    between atoms: C_15  and  S_20
REMARK    8  A    between atoms: S_20  and  N_23
REMARK                            x       y       z     vdW  Elec       q    Type
REMARK                         _______ _______ _______ _____ _____    ______ ____
ROOT
ATOM      1  C   UNL     1       5.951   1.129   1.248  0.00  0.00    +0.054 A 
ATOM      2  C   UNL     1       6.174   2.303   0.541  0.00  0.00    +0.053 A 
ATOM      3  C   UNL     1       7.457   2.797   0.412  0.00  0.00    +0.107 A 
ATOM      4  C   UNL     1       8.521   2.118   0.977  0.00  0.00    +0.030 A 
ATOM      5  C   UNL     1       8.304   0.946   1.678  0.00  0.00    +0.024 A 
ATOM      6  C   UNL     1       7.021   0.449   1.815  0.00  0.00    +0.062 A 
ATOM      7 CL   UNL     1       6.749  -1.023   2.694  0.00  0.00    -0.082 Cl
ENDROOT
BRANCH   1  10
ATOM      8  C   UNL     1       3.595   1.462   1.298  0.00  0.00    +0.200 C 
ATOM      9  O   UNL     1       3.773   2.658   1.203  0.00  0.00    -0.278 OA
ATOM     10  N   UNL     1       4.651   0.628   1.384  0.00  0.00    -0.286 N 
ATOM     11  H   UNL     1       4.509  -0.319   1.540  0.00  0.00    +0.155 HD
BRANCH   8  12
ATOM     12  C   UNL     1       2.194   0.908   1.319  0.00  0.00    +0.016 C 
BRANCH  12  13
ATOM     13  N   UNL     1       1.232   2.022   1.212  0.00  0.00    +0.389 N 
ATOM     14  H   UNL     1       1.366   2.662   2.004  0.00  0.00    -0.084 HD
ATOM     15  H   UNL     1       1.394   2.526   0.333  0.00  0.00    -0.084 HD
BRANCH  13  17
ATOM     16  C   UNL     1      -0.611   1.333   2.679  0.00  0.00    -0.008 C 
ATOM     17  C   UNL     1      -0.150   1.508   1.231  0.00  0.00    -0.037 C 
BRANCH  17  18
ATOM     18  C   UNL     1      -1.053   2.492   0.533  0.00  0.00    -0.024 A 
ATOM     19  C   UNL     1      -2.089   2.253  -0.308  0.00  0.00    +0.009 A 
ATOM     20  C   UNL     1      -2.785   3.324  -0.836  0.00  0.00    +0.008 A 
ATOM     21  C   UNL     1      -2.411   4.582  -0.497  0.00  0.00    +0.045 A 
ATOM     22  S   UNL     1      -1.041   4.276   0.605  0.00  0.00    -0.103 S 
ENDBRANCH  17  18
ENDBRANCH  13  17
ENDBRANCH  12  13
ENDBRANCH   8  12
ENDBRANCH   1  10
BRANCH   3  23
ATOM     23  S   UNL     1       7.740   4.290  -0.479  0.00  0.00    +0.061 S 
ATOM     24  O   UNL     1       6.522   5.021  -0.444  0.00  0.00    -0.153 OA
ATOM     25  O   UNL     1       8.964   4.826   0.004  0.00  0.00    -0.153 OA
BRANCH  23  26
ATOM     26  N   UNL     1       7.997   3.875  -2.061  0.00  0.00    -0.177 NA
ATOM     27  C   UNL     1       9.350   3.608  -2.496  0.00  0.00    +0.109 C 
ATOM     28  C   UNL     1      10.016   4.915  -2.975  0.00  0.00    +0.017 C 
ATOM     29  C   UNL     1       9.430   5.348  -4.253  0.00  0.00    +0.001 C 
ATOM     30  C   UNL     1       7.944   5.684  -4.181  0.00  0.00    +0.001 C 
ATOM     31  C   UNL     1       7.137   4.420  -4.347  0.00  0.00    +0.017 C 
ATOM     32  C   UNL     1       6.837   3.799  -2.971  0.00  0.00    +0.109 C 
ENDBRANCH  23  26
ENDBRANCH   3  23
TORSDOF 7
