REMARK  Name = ZINC03261139
REMARK  7 active torsions:
REMARK  status: ('A' for Active; 'I' for Inactive)
REMARK    1  A    between atoms: C_1  and  C_2
REMARK    2  A    between atoms: C_7  and  N_9
REMARK    3  A    between atoms: N_9  and  N_10
REMARK    4  A    between atoms: C_11  and  C_13
REMARK    5  A    between atoms: C_17  and  S_19
REMARK    6  A    between atoms: S_19  and  N_22
REMARK    7  A    between atoms: N_22  and  C_23
REMARK                            x       y       z     vdW  Elec       q    Type
REMARK                         _______ _______ _______ _____ _____    ______ ____
ROOT
ATOM      1  C   UNL     1       3.366   0.332  -4.612  0.00  0.00    +0.040 A 
ATOM      2  C   UNL     1       2.104   0.303  -5.206  0.00  0.00    +0.013 A 
ATOM      3  C   UNL     1       0.985   0.078  -4.431  0.00  0.00    +0.003 A 
ATOM      4  C   UNL     1       1.113  -0.125  -3.068  0.00  0.00    +0.029 A 
ATOM      5  C   UNL     1       2.361  -0.092  -2.472  0.00  0.00    +0.109 A 
ATOM      6  C   UNL     1       3.488   0.133  -3.236  0.00  0.00    +0.042 A 
ENDROOT
BRANCH   1   8
ATOM      7  N   UNL     1       4.449   0.766  -6.765  0.00  0.00    -0.233 N 
ATOM      8  C   UNL     1       4.570   0.574  -5.436  0.00  0.00    +0.260 C 
ATOM      9  O   UNL     1       5.668   0.598  -4.916  0.00  0.00    -0.269 OA
ATOM     10  H   UNL     1       3.572   0.746  -7.180  0.00  0.00    +0.173 HD
BRANCH   7  11
ATOM     11  N   UNL     1       5.589   0.995  -7.546  0.00  0.00    -0.269 N 
ATOM     12  H   UNL     1       6.470   0.940  -7.145  0.00  0.00    +0.170 HD
BRANCH  11  18
ATOM     13  C   UNL     1       2.710   2.418 -10.956  0.00  0.00    +0.012 C 
ATOM     14  C   UNL     1       3.969   1.554 -10.861  0.00  0.00    +0.010 C 
ATOM     15  C   UNL     1       5.145   2.300 -11.495  0.00  0.00    +0.008 C 
ATOM     16  C   UNL     1       6.437   1.541 -11.166  0.00  0.00    +0.006 C 
ATOM     17  C   UNL     1       6.696   1.662  -9.661  0.00  0.00    +0.052 C 
ATOM     18  C   UNL     1       5.457   1.300  -8.895  0.00  0.00    +0.018 C 
ATOM     19  C   UNL     1       4.262   1.259  -9.419  0.00  0.00    -0.004 C 
ENDBRANCH  11  18
ENDBRANCH   7  11
ENDBRANCH   1   8
BRANCH   5  20
ATOM     20  S   UNL     1       2.513  -0.344  -0.735  0.00  0.00    +0.072 S 
ATOM     21  O   UNL     1       3.835  -0.814  -0.506  0.00  0.00    -0.150 OA
ATOM     22  O   UNL     1       1.364  -1.075  -0.329  0.00  0.00    -0.150 OA
BRANCH  20  23
ATOM     23  N   UNL     1       2.407   1.142  -0.013  0.00  0.00    -0.215 N 
ATOM     24  H   UNL     1       3.145   1.476   0.522  0.00  0.00    +0.174 HD
BRANCH  23  25
ATOM     25  C   UNL     1       1.255   1.917  -0.174  0.00  0.00    +0.068 A 
ATOM     26  C   UNL     1       0.010   1.306  -0.243  0.00  0.00    +0.046 A 
ATOM     27  C   UNL     1      -1.127   2.075  -0.408  0.00  0.00    +0.043 A 
ATOM     28  C   UNL     1      -1.026   3.453  -0.495  0.00  0.00    +0.021 A 
ATOM     29  C   UNL     1       0.212   4.064  -0.426  0.00  0.00    +0.023 A 
ATOM     30  C   UNL     1       1.353   3.300  -0.267  0.00  0.00    +0.063 A 
ATOM     31 CL   UNL     1       2.908   4.069  -0.181  0.00  0.00    -0.082 Cl
ATOM     32 CL   UNL     1      -2.683   1.312  -0.501  0.00  0.00    -0.083 Cl
ENDBRANCH  23  25
ENDBRANCH  20  23
ENDBRANCH   5  20
TORSDOF 6
