REMARK  Name = ZINC02659572
REMARK  8 active torsions:
REMARK  status: ('A' for Active; 'I' for Inactive)
REMARK    1  A    between atoms: C_3  and  O_30
REMARK    2  A    between atoms: C_4  and  C_15
REMARK    3  A    between atoms: C_6  and  S_7
REMARK    4  A    between atoms: S_7  and  N_10
REMARK    5  A    between atoms: C_15  and  O_17
REMARK    6  A    between atoms: O_17  and  C_18
REMARK    7  A    between atoms: C_18  and  C_19
REMARK    8  A    between atoms: N_21  and  C_22
REMARK                            x       y       z     vdW  Elec       q    Type
REMARK                         _______ _______ _______ _____ _____    ______ ____
ROOT
ATOM      1  C   UNL     1      -0.715   3.148   2.003  0.00  0.00    +0.032 A 
ATOM      2  C   UNL     1      -1.417   3.537   3.127  0.00  0.00    +0.048 A 
ATOM      3  C   UNL     1      -2.340   2.676   3.701  0.00  0.00    +0.131 A 
ATOM      4  C   UNL     1      -2.560   1.413   3.134  0.00  0.00    +0.102 A 
ATOM      5  C   UNL     1      -1.845   1.035   1.994  0.00  0.00    +0.047 A 
ATOM      6  C   UNL     1      -0.932   1.903   1.436  0.00  0.00    +0.106 A 
ENDROOT
BRANCH   6   7
ATOM      7  S   UNL     1      -0.032   1.425  -0.001  0.00  0.00    +0.061 S 
ATOM      8  O   UNL     1      -0.014   0.004  -0.015  0.00  0.00    -0.153 OA
ATOM      9  O   UNL     1       1.158   2.202  -0.012  0.00  0.00    -0.153 OA
BRANCH   7  10
ATOM     10  N   UNL     1      -0.919   1.901  -1.316  0.00  0.00    -0.177 NA
ATOM     11  C   UNL     1      -1.937   1.090  -2.002  0.00  0.00    +0.109 C 
ATOM     12  C   UNL     1      -2.477   1.931  -3.177  0.00  0.00    +0.018 C 
ATOM     13  C   UNL     1      -1.329   2.942  -3.435  0.00  0.00    +0.018 C 
ATOM     14  C   UNL     1      -0.816   3.204  -1.996  0.00  0.00    +0.109 C 
ENDBRANCH   7  10
ENDBRANCH   6   7
BRANCH   4  15
ATOM     15  C   UNL     1      -3.538   0.489   3.736  0.00  0.00    +0.343 C 
ATOM     16  O   UNL     1      -4.157   0.821   4.727  0.00  0.00    -0.245 OA
BRANCH  15  17
ATOM     17  O   UNL     1      -3.745  -0.724   3.187  0.00  0.00    -0.452 OA
BRANCH  17  18
ATOM     18  C   UNL     1      -4.722  -1.581   3.833  0.00  0.00    +0.328 C 
BRANCH  18  19
ATOM     19  C   UNL     1      -4.819  -2.886   3.086  0.00  0.00    +0.255 C 
ATOM     20  O   UNL     1      -4.131  -3.075   2.105  0.00  0.00    -0.272 OA
ATOM     21  N   UNL     1      -5.669  -3.843   3.507  0.00  0.00    -0.283 N 
ATOM     22  H   UNL     1      -6.169  -3.720   4.329  0.00  0.00    +0.155 HD
BRANCH  21  23
ATOM     23  C   UNL     1      -5.829  -5.015   2.759  0.00  0.00    +0.036 A 
ATOM     24  C   UNL     1      -7.071  -5.634   2.694  0.00  0.00    +0.043 A 
ATOM     25  C   UNL     1      -7.228  -6.788   1.950  0.00  0.00    +0.044 A 
ATOM     26  C   UNL     1      -6.147  -7.333   1.279  0.00  0.00    +0.040 A 
ATOM     27  C   UNL     1      -4.908  -6.721   1.347  0.00  0.00    +0.044 A 
ATOM     28  C   UNL     1      -4.746  -5.564   2.085  0.00  0.00    +0.043 A 
ATOM     29 CL   UNL     1      -3.554  -7.408   0.504  0.00  0.00    -0.083 Cl
ATOM     30 CL   UNL     1      -8.781  -7.559   1.863  0.00  0.00    -0.083 Cl
ENDBRANCH  21  23
ENDBRANCH  18  19
ENDBRANCH  17  18
ENDBRANCH  15  17
ENDBRANCH   4  15
BRANCH   3  31
ATOM     31  O   UNL     1      -3.028   3.055   4.808  0.00  0.00    -0.506 OA
ATOM     32  H   UNL     1      -2.592   2.824   5.640  0.00  0.00    +0.292 HD
ENDBRANCH   3  31
TORSDOF 8
