REMARK  Name = ZINC38773807
REMARK  5 active torsions:
REMARK  status: ('A' for Active; 'I' for Inactive)
REMARK    1  A    between atoms: C_6  and  O_7
REMARK    2  A    between atoms: O_7  and  C_8
REMARK    3  A    between atoms: C_12  and  C_14
REMARK    4  A    between atoms: C_17  and  O_21
REMARK    5  A    between atoms: C_19  and  O_20
REMARK                            x       y       z     vdW  Elec       q    Type
REMARK                         _______ _______ _______ _____ _____    ______ ____
ROOT
ATOM      1  C   UNL     1      -1.191  -2.050   0.048  0.00  0.00    +0.153 C 
ATOM      2  C   UNL     1      -0.148  -2.902   0.117  0.00  0.00    +0.176 C 
ATOM      3  N   UNL     1      -0.574  -4.171   0.136  0.00  0.00    -0.182 NA
ATOM      4  N   UNL     1      -1.798  -4.308   0.088  0.00  0.00    -0.294 N 
ATOM      5  C   UNL     1      -2.403  -2.966   0.030  0.00  0.00    +0.199 C 
ATOM      6  H   UNL     1      -2.279  -5.151   0.092  0.00  0.00    +0.184 HD
ENDROOT
BRANCH   5   7
ATOM      7  C   UNL     1      -3.277  -2.719   1.233  0.00  0.00    +0.025 A 
ATOM      8  C   UNL     1      -3.128  -3.496   2.366  0.00  0.00    +0.013 A 
ATOM      9  C   UNL     1      -3.928  -3.271   3.470  0.00  0.00    +0.046 A 
ATOM     10  C   UNL     1      -4.883  -2.264   3.443  0.00  0.00    +0.120 A 
ATOM     11  C   UNL     1      -5.034  -1.484   2.308  0.00  0.00    +0.091 A 
ATOM     12  C   UNL     1      -4.226  -1.707   1.203  0.00  0.00    +0.126 A 
BRANCH  12  13
ATOM     13  O   UNL     1      -4.368  -0.939   0.091  0.00  0.00    -0.506 OA
ATOM     14  H   UNL     1      -5.005  -1.286  -0.548  0.00  0.00    +0.292 HD
ENDBRANCH  12  13
BRANCH  10  15
ATOM     15  O   UNL     1      -5.670  -2.045   4.529  0.00  0.00    -0.507 OA
ATOM     16  H   UNL     1      -5.303  -1.409   5.159  0.00  0.00    +0.292 HD
ENDBRANCH  10  15
ENDBRANCH   5   7
BRANCH   1  17
ATOM     17  O   UNL     1      -1.165  -0.701   0.010  0.00  0.00    -0.456 OA
BRANCH  17  23
ATOM     18  C   UNL     1      -1.903  -0.842  -2.247  0.00  0.00    +0.047 A 
ATOM     19  C   UNL     1      -2.324  -0.215  -3.404  0.00  0.00    +0.018 A 
ATOM     20  C   UNL     1      -2.422   1.164  -3.449  0.00  0.00    +0.014 A 
ATOM     21  C   UNL     1      -2.099   1.919  -2.336  0.00  0.00    +0.018 A 
ATOM     22  C   UNL     1      -1.677   1.297  -1.177  0.00  0.00    +0.047 A 
ATOM     23  C   UNL     1      -1.579  -0.086  -1.129  0.00  0.00    +0.128 A 
ATOM     24  I   UNL     1      -3.060   2.111  -5.205  0.00  0.00    -0.044 I 
ENDBRANCH  17  23
ENDBRANCH   1  17
TORSDOF 5
