REMARK  Name = ZINC18197669
REMARK  8 active torsions:
REMARK  status: ('A' for Active; 'I' for Inactive)
REMARK    1  A    between atoms: C_1  and  C_2
REMARK    2  A    between atoms: C_2  and  N_3
REMARK    3  A    between atoms: N_3  and  C_4
REMARK    4  A    between atoms: N_3  and  C_6
REMARK    5  A    between atoms: C_4  and  C_5
REMARK    6  A    between atoms: C_9  and  C_12
REMARK    7  A    between atoms: N_18  and  C_21
REMARK    8  A    between atoms: C_33  and  C_36
REMARK                            x       y       z     vdW  Elec       q    Type
REMARK                         _______ _______ _______ _____ _____    ______ ____
ROOT
ATOM      1  C   UNL     1       0.364  -6.132  -1.473  0.00  0.00    +0.092 C 
ATOM      2  C   UNL     1       1.074  -6.616  -2.706  0.00  0.00    +0.070 A 
ATOM      3  C   UNL     1       0.400  -7.082  -3.808  0.00  0.00    +0.125 A 
ATOM      4  N   UNL     1       1.318  -7.436  -4.748  0.00  0.00    -0.277 N 
ATOM      5  H   UNL     1       1.124  -7.796  -5.628  0.00  0.00    +0.189 HD
ATOM      6  N   UNL     1       2.595  -7.189  -4.219  0.00  0.00    -0.218 N 
ATOM      7  C   UNL     1       2.441  -6.689  -2.973  0.00  0.00    +0.278 A 
ATOM      8  O   UNL     1       3.339  -6.360  -2.216  0.00  0.00    -0.265 OA
ATOM      9  N   UNL     1      -0.972  -7.137  -3.838  0.00  0.00    -0.303 N 
ATOM     10  C   UNL     1      -1.666  -7.006  -2.658  0.00  0.00    +0.017 C 
ATOM     11  C   UNL     1      -1.089  -6.552  -1.527  0.00  0.00    +0.024 C 
ATOM     12  C   UNL     1      -1.824  -6.450  -0.330  0.00  0.00    +0.162 C 
ATOM     13  O   UNL     1      -1.277  -6.024   0.668  0.00  0.00    -0.292 OA
ATOM     14  C   UNL     1      -3.270  -6.854  -0.259  0.00  0.00    +0.088 C 
ATOM     15  C   UNL     1      -3.535  -7.938  -1.309  0.00  0.00    +0.039 C 
ATOM     16  C   UNL     1      -3.128  -7.391  -2.677  0.00  0.00    +0.060 C 
ATOM     17  H   UNL     1      -1.443  -7.266  -4.677  0.00  0.00    +0.153 HD
ENDROOT
BRANCH   1  21
ATOM     18  C   UNL     1       0.609  -1.872  -1.272  0.00  0.00    +0.013 A 
ATOM     19  C   UNL     1       1.141  -2.643  -0.256  0.00  0.00    +0.022 A 
ATOM     20  C   UNL     1       1.062  -4.022  -0.321  0.00  0.00    +0.006 A 
ATOM     21  C   UNL     1       0.450  -4.629  -1.402  0.00  0.00    -0.035 A 
ATOM     22  C   UNL     1      -0.082  -3.857  -2.418  0.00  0.00    +0.006 A 
ATOM     23  C   UNL     1      -0.007  -2.479  -2.351  0.00  0.00    +0.022 A 
BRANCH  18  24
ATOM     24  N   UNL     1       0.690  -0.478  -1.207  0.00  0.00    -0.394 NA
ATOM     25  H   UNL     1       0.251  -0.077  -2.022  0.00  0.00    +0.126 HD
BRANCH  24  27
ATOM     26  C   UNL     1      -0.019   1.526   0.010  0.00  0.00    +0.022 C 
ATOM     27  C   UNL     1       0.002  -0.004   0.002  0.00  0.00    +0.081 C 
ENDBRANCH  24  27
BRANCH  24  28
ATOM     28  C   UNL     1       2.100  -0.070  -1.159  0.00  0.00    +0.081 C 
ATOM     29  C   UNL     1       2.786  -0.454  -2.472  0.00  0.00    +0.022 C 
ENDBRANCH  24  28
ENDBRANCH  18  24
ENDBRANCH   1  21
BRANCH   6  30
ATOM     30  C   UNL     1       3.812  -7.420  -4.868  0.00  0.00    +0.067 A 
ATOM     31  C   UNL     1       5.009  -7.135  -4.223  0.00  0.00    +0.028 A 
ATOM     32  C   UNL     1       6.209  -7.363  -4.867  0.00  0.00    +0.002 A 
ATOM     33  C   UNL     1       6.220  -7.875  -6.152  0.00  0.00    +0.000 A 
ATOM     34  C   UNL     1       5.030  -8.160  -6.796  0.00  0.00    +0.002 A 
ATOM     35  C   UNL     1       3.826  -7.939  -6.156  0.00  0.00    +0.028 A 
ENDBRANCH   6  30
BRANCH  15  36
ATOM     36  C   UNL     1      -5.000  -8.290  -1.317  0.00  0.00    -0.006 A 
ATOM     37  C   UNL     1      -5.593  -9.484  -1.071  0.00  0.00    +0.011 A 
ATOM     38  C   UNL     1      -6.971  -9.574  -1.134  0.00  0.00    +0.008 A 
ATOM     39  C   UNL     1      -7.689  -8.466  -1.441  0.00  0.00    +0.045 A 
ATOM     40  S   UNL     1      -6.407  -7.240  -1.645  0.00  0.00    -0.101 S 
ENDBRANCH  15  36
TORSDOF 6
