REMARK  Name = ZINC51328800
REMARK  8 active torsions:
REMARK  status: ('A' for Active; 'I' for Inactive)
REMARK    1  A    between atoms: C_4  and  O_8
REMARK    2  A    between atoms: C_5  and  N_7
REMARK    3  A    between atoms: O_8  and  C_9
REMARK    4  A    between atoms: C_9  and  C_10
REMARK    5  A    between atoms: C_10  and  C_12
REMARK    6  A    between atoms: C_10  and  O_22
REMARK    7  A    between atoms: C_12  and  O_13
REMARK    8  A    between atoms: O_13  and  C_14
REMARK                            x       y       z     vdW  Elec       q    Type
REMARK                         _______ _______ _______ _____ _____    ______ ____
ROOT
ATOM      1  C   UNL     1       6.012  -0.731  -0.061  0.00  0.00    +0.189 C 
ENDROOT
BRANCH   1   2
ATOM      2  O   UNL     1       6.068  -1.479   1.156  0.00  0.00    -0.385 OA
ATOM      3  H   UNL     1       6.129  -0.932   1.951  0.00  0.00    +0.210 HD
ENDBRANCH   1   2
BRANCH   1   4
ATOM      4  C   UNL     1       4.781   0.178  -0.044  0.00  0.00    +0.263 C 
BRANCH   4   5
ATOM      5  O   UNL     1       3.598  -0.622  -0.036  0.00  0.00    -0.487 OA
BRANCH   5   9
ATOM      6  C   UNL     1      -0.017   1.378   0.010  0.00  0.00    +0.002 A 
ATOM      7  C   UNL     1       1.169   2.089   0.002  0.00  0.00    +0.004 A 
ATOM      8  C   UNL     1       2.380   1.421  -0.013  0.00  0.00    +0.047 A 
ATOM      9  C   UNL     1       2.407   0.036  -0.021  0.00  0.00    +0.141 A 
ATOM     10  C   UNL     1       1.213  -0.681  -0.013  0.00  0.00    +0.067 A 
ATOM     11  C   UNL     1       0.002  -0.004   0.002  0.00  0.00    +0.026 A 
BRANCH  10  12
ATOM     12  N   UNL     1       1.235  -2.080  -0.021  0.00  0.00    -0.355 N 
ATOM     13  H   UNL     1       2.082  -2.552  -0.032  0.00  0.00    +0.142 HD
ATOM     14  H   UNL     1       0.402  -2.578  -0.016  0.00  0.00    +0.142 HD
ENDBRANCH  10  12
ENDBRANCH   5   9
ENDBRANCH   4   5
ENDBRANCH   1   4
BRANCH   1  15
ATOM     15  C   UNL     1       7.275   0.122  -0.194  0.00  0.00    +0.263 C 
BRANCH  15  16
ATOM     16  O   UNL     1       8.414  -0.731  -0.328  0.00  0.00    -0.488 OA
BRANCH  16  17
ATOM     17  C   UNL     1       9.625  -0.127  -0.457  0.00  0.00    +0.135 A 
ATOM     18  C   UNL     1       9.715   1.257  -0.451  0.00  0.00    +0.048 A 
ATOM     19  C   UNL     1      10.947   1.869  -0.583  0.00  0.00    +0.023 A 
ATOM     20  C   UNL     1      12.090   1.102  -0.721  0.00  0.00    +0.042 A 
ATOM     21  C   UNL     1      12.003  -0.279  -0.728  0.00  0.00    +0.039 A 
ATOM     22  C   UNL     1      10.773  -0.895  -0.591  0.00  0.00    +0.061 A 
ATOM     23 BR   UNL     1      10.655  -2.782  -0.593  0.00  0.00    -0.046 Br
ATOM     24 CL   UNL     1      13.636   1.874  -0.887  0.00  0.00    -0.084 Cl
ENDBRANCH  16  17
ENDBRANCH  15  16
ENDBRANCH   1  15
TORSDOF 8
