REMARK  Name = ZINC04863118
REMARK  6 active torsions:
REMARK  status: ('A' for Active; 'I' for Inactive)
REMARK    1  A    between atoms: C_1  and  O_2
REMARK    2  A    between atoms: O_2  and  C_3
REMARK    3  A    between atoms: C_12  and  C_14
REMARK    4  A    between atoms: N_19  and  N_20
REMARK    5  A    between atoms: C_21  and  C_22
REMARK    6  A    between atoms: C_27  and  O_28
REMARK                            x       y       z     vdW  Elec       q    Type
REMARK                         _______ _______ _______ _____ _____    ______ ____
ROOT
ATOM      1  C   UNL     1       0.519  -6.257  -1.436  0.00  0.00    +0.087 A 
ATOM      2  C   UNL     1      -0.287  -6.938  -0.565  0.00  0.00    +0.077 A 
ATOM      3  S   UNL     1       0.097  -8.627  -1.009  0.00  0.00    -0.059 S 
ATOM      4  C   UNL     1       1.279  -8.257  -2.297  0.00  0.00    +0.178 A 
ATOM      5  N   UNL     1       1.278  -6.936  -2.284  0.00  0.00    -0.223 NA
ATOM      6  N   UNL     1       2.001  -9.125  -3.099  0.00  0.00    -0.215 N 
ATOM      7  H   UNL     1       2.614  -8.774  -3.763  0.00  0.00    +0.176 HD
ENDROOT
BRANCH   1  17
ATOM      8  C   UNL     1       0.606  -0.607  -1.056  0.00  0.00    +0.163 A 
ATOM      9  C   UNL     1       1.172   0.158  -2.061  0.00  0.00    +0.049 A 
ATOM     10  C   UNL     1       1.792  -0.447  -3.145  0.00  0.00    +0.004 A 
ATOM     11  C   UNL     1       1.852  -1.819  -3.239  0.00  0.00    +0.012 A 
ATOM     12  C   UNL     1       1.282  -2.608  -2.233  0.00  0.00    +0.022 A 
ATOM     13  C   UNL     1       0.662  -1.996  -1.129  0.00  0.00    +0.180 A 
ATOM     14  O   UNL     1       0.123  -2.763  -0.150  0.00  0.00    -0.418 OA
ATOM     15  C   UNL     1      -0.297  -3.999  -0.503  0.00  0.00    +0.347 A 
ATOM     16  O   UNL     1      -1.336  -4.456  -0.064  0.00  0.00    -0.244 OA
ATOM     17  C   UNL     1       0.538  -4.776  -1.435  0.00  0.00    +0.086 A 
ATOM     18  C   UNL     1       1.325  -4.071  -2.311  0.00  0.00    +0.028 A 
BRANCH   8  20
ATOM     19  C   UNL     1      -0.017   1.425   0.010  0.00  0.00    +0.277 C 
ATOM     20  O   UNL     1       0.002  -0.004   0.002  0.00  0.00    -0.491 OA
ENDBRANCH   8  20
ENDBRANCH   1  17
BRANCH   6  21
ATOM     21  N   UNL     1       1.846 -10.509  -2.950  0.00  0.00    -0.188 NA
ATOM     22  C   UNL     1       2.522 -11.323  -3.702  0.00  0.00    +0.141 C 
BRANCH  22  23
ATOM     23  C   UNL     1       2.359 -12.779  -3.546  0.00  0.00    +0.036 A 
ATOM     24  C   UNL     1       3.090 -13.658  -4.349  0.00  0.00    +0.013 A 
ATOM     25  C   UNL     1       2.933 -15.020  -4.197  0.00  0.00    +0.001 A 
ATOM     26  C   UNL     1       2.053 -15.520  -3.252  0.00  0.00    +0.004 A 
ATOM     27  C   UNL     1       1.324 -14.660  -2.451  0.00  0.00    +0.046 A 
ATOM     28  C   UNL     1       1.474 -13.290  -2.586  0.00  0.00    +0.125 A 
BRANCH  28  29
ATOM     29  O   UNL     1       0.763 -12.445  -1.796  0.00  0.00    -0.506 OA
ATOM     30  H   UNL     1      -0.095 -12.191  -2.164  0.00  0.00    +0.292 HD
ENDBRANCH  28  29
ENDBRANCH  22  23
ENDBRANCH   6  21
TORSDOF 5
