REMARK  Name = ZINC31055950
REMARK  8 active torsions:
REMARK  status: ('A' for Active; 'I' for Inactive)
REMARK    1  A    between atoms: C_1  and  C_2
REMARK    2  A    between atoms: C_2  and  C_4
REMARK    3  A    between atoms: C_2  and  N_15
REMARK    4  A    between atoms: C_7  and  N_10
REMARK    5  A    between atoms: C_16  and  C_18
REMARK    6  A    between atoms: N_23  and  C_25
REMARK    7  A    between atoms: C_25  and  C_26
REMARK    8  A    between atoms: C_28  and  C_31
REMARK                            x       y       z     vdW  Elec       q    Type
REMARK                         _______ _______ _______ _____ _____    ______ ____
ROOT
ATOM      1  C   UNL     1       2.255   7.043  -2.887  0.00  0.00    +0.058 C 
ATOM      2  C   UNL     1       3.137   6.065  -3.669  0.00  0.00    +0.009 C 
ATOM      3  C   UNL     1       2.537   4.660  -3.574  0.00  0.00    -0.018 C 
ATOM      4  C   UNL     1       2.418   4.259  -2.101  0.00  0.00    -0.078 C 
ATOM      5  N   UNL     1       1.564   5.224  -1.398  0.00  0.00    +0.386 N 
ATOM      6  C   UNL     1       2.144   6.573  -1.435  0.00  0.00    -0.065 C 
ATOM      7  H   UNL     1       0.597   5.261  -1.921  0.00  0.00    -0.081 HD
ENDROOT
BRANCH   1   9
ATOM      8  N   UNL     1       3.066   9.035  -4.108  0.00  0.00    -0.309 N 
ATOM      9  C   UNL     1       2.870   8.418  -2.926  0.00  0.00    +0.215 C 
ATOM     10  O   UNL     1       3.189   8.968  -1.894  0.00  0.00    -0.276 OA
ATOM     11  H   UNL     1       2.776   8.535  -5.044  0.00  0.00    +0.149 HD
BRANCH   8  13
ATOM     12  C   UNL     1       2.573  11.425  -3.943  0.00  0.00    +0.033 C 
ATOM     13  C   UNL     1       3.664  10.372  -4.146  0.00  0.00    +0.100 C 
BRANCH  13  14
ATOM     14  C   UNL     1       4.328  10.587  -5.481  0.00  0.00    -0.027 A 
ATOM     15  C   UNL     1       3.722  10.125  -6.635  0.00  0.00    +0.007 A 
ATOM     16  C   UNL     1       4.325  10.326  -7.862  0.00  0.00    +0.023 A 
ATOM     17  C   UNL     1       5.547  10.983  -7.934  0.00  0.00    +0.030 A 
ATOM     18  C   UNL     1       6.155  11.441  -6.772  0.00  0.00    +0.023 A 
ATOM     19  C   UNL     1       5.544  11.242  -5.549  0.00  0.00    +0.007 A 
BRANCH  17  20
ATOM     20  N   UNL     1       6.162  11.183  -9.171  0.00  0.00    -0.330 N 
ATOM     21  C   UNL     1       6.284  12.632  -9.477  0.00  0.00    +0.105 C 
ATOM     22  C   UNL     1       7.403  12.675 -10.548  0.00  0.00    +0.020 C 
ATOM     23  C   UNL     1       8.384  11.581 -10.067  0.00  0.00    +0.020 C 
ATOM     24  C   UNL     1       7.543  10.655  -9.168  0.00  0.00    +0.105 C 
ENDBRANCH  17  20
ENDBRANCH  13  14
ENDBRANCH   8  13
ENDBRANCH   1   9
BRANCH   5  25
ATOM     25  C   UNL     1       1.315   4.796  -0.015  0.00  0.00    +0.022 C 
BRANCH  25  26
ATOM     26  C   UNL     1       0.502   3.527  -0.020  0.00  0.00    +0.211 A 
ATOM     27  N   UNL     1       0.970   2.304  -0.039  0.00  0.00    -0.193 NA
ATOM     28  C   UNL     1      -0.117   1.500  -0.036  0.00  0.00    +0.203 A 
ATOM     29  N   UNL     1      -1.171   2.275  -0.021  0.00  0.00    -0.056 NA
ATOM     30  O   UNL     1      -0.832   3.439  -0.006  0.00  0.00    -0.340 OA
BRANCH  28  31
ATOM     31  C   UNL     1      -0.115   0.016  -0.053  0.00  0.00    +0.041 A 
ATOM     32  C   UNL     1       1.091  -0.681  -0.081  0.00  0.00    +0.014 A 
ATOM     33  C   UNL     1       1.088  -2.061  -0.090  0.00  0.00    +0.021 A 
ATOM     34  C   UNL     1      -0.111  -2.753  -0.085  0.00  0.00    +0.042 A 
ATOM     35  C   UNL     1      -1.312  -2.067  -0.063  0.00  0.00    +0.040 A 
ATOM     36  C   UNL     1      -1.321  -0.685  -0.047  0.00  0.00    +0.053 A 
ATOM     37 CL   UNL     1      -2.828   0.175  -0.021  0.00  0.00    -0.083 Cl
ATOM     38 CL   UNL     1      -0.107  -4.489  -0.105  0.00  0.00    -0.083 Cl
ENDBRANCH  28  31
ENDBRANCH  25  26
ENDBRANCH   5  25
TORSDOF 7
