REMARK  Name = ZINC39483568
REMARK  10 active torsions:
REMARK  status: ('A' for Active; 'I' for Inactive)
REMARK    1  A    between atoms: C_1  and  C_2
REMARK    2  A    between atoms: C_2  and  C_3
REMARK    3  A    between atoms: C_2  and  S_4
REMARK    4  A    between atoms: S_4  and  C_7
REMARK    5  A    between atoms: C_22  and  C_23
REMARK    6  A    between atoms: C_25  and  O_35
REMARK    7  A    between atoms: C_27  and  S_29
REMARK    8  A    between atoms: S_29  and  C_32
REMARK    9  A    between atoms: C_32  and  C_33
REMARK   10  A    between atoms: C_32  and  C_34
REMARK                            x       y       z     vdW  Elec       q    Type
REMARK                         _______ _______ _______ _____ _____    ______ ____
ROOT
ATOM      1  C   UNL     1       0.917   0.120   3.087  0.00  0.00    +0.115 A 
ATOM      2  C   UNL     1       0.598  -0.719   4.130  0.00  0.00    +0.029 A 
ATOM      3  C   UNL     1      -0.261  -0.304   5.140  0.00  0.00    +0.003 A 
ATOM      4  C   UNL     1      -0.807   0.962   5.120  0.00  0.00    +0.015 A 
ATOM      5  C   UNL     1      -0.494   1.830   4.077  0.00  0.00    +0.067 A 
ATOM      6  C   UNL     1       0.375   1.408   3.043  0.00  0.00    +0.103 A 
ATOM      7  N   UNL     1       0.640   2.252   2.031  0.00  0.00    -0.227 NA
ATOM      8  C   UNL     1       0.154   3.476   1.988  0.00  0.00    +0.140 A 
ATOM      9  N   UNL     1      -0.630   3.993   2.990  0.00  0.00    -0.293 N 
ATOM     10  C   UNL     1      -1.036   3.192   4.011  0.00  0.00    +0.262 A 
ATOM     11  O   UNL     1      -1.815   3.598   4.854  0.00  0.00    -0.267 OA
ATOM     12  C   UNL     1      -1.024   5.395   3.021  0.00  0.00    +0.127 C 
ATOM     13  C   UNL     1      -1.088   6.045   1.658  0.00  0.00    +0.026 C 
ATOM     14  C   UNL     1       0.144   5.765   0.815  0.00  0.00    +0.040 C 
ATOM     15  C   UNL     1       0.455   4.296   0.808  0.00  0.00    -0.004 C 
ATOM     16  C   UNL     1       1.011   3.731  -0.282  0.00  0.00    +0.015 C 
ENDROOT
BRANCH  16  17
ATOM     17  C   UNL     1       1.466   4.576  -1.399  0.00  0.00    -0.019 A 
ATOM     18  C   UNL     1       2.082   5.804  -1.144  0.00  0.00    +0.053 A 
ATOM     19  C   UNL     1       2.506   6.592  -2.199  0.00  0.00    +0.119 A 
ATOM     20  C   UNL     1       2.320   6.163  -3.507  0.00  0.00    +0.072 A 
ATOM     21  C   UNL     1       1.711   4.948  -3.762  0.00  0.00    +0.092 A 
ATOM     22  C   UNL     1       1.289   4.150  -2.719  0.00  0.00    +0.035 A 
BRANCH  21  23
ATOM     23  S   UNL     1       1.479   4.413  -5.425  0.00  0.00    -0.001 S 
ATOM     24  O   UNL     1       0.360   3.540  -5.372  0.00  0.00    -0.169 OA
ATOM     25  O   UNL     1       1.428   5.612  -6.187  0.00  0.00    -0.169 OA
BRANCH  23  26
ATOM     26  C   UNL     1       2.982   3.480  -5.829  0.00  0.00    +0.130 C 
ATOM     27  C   UNL     1       3.121   2.297  -4.868  0.00  0.00    +0.032 C 
ATOM     28  C   UNL     1       2.890   2.963  -7.265  0.00  0.00    +0.032 C 
ENDBRANCH  23  26
ENDBRANCH  21  23
BRANCH  19  29
ATOM     29  O   UNL     1       3.106   7.788  -1.956  0.00  0.00    -0.507 OA
ATOM     30  H   UNL     1       4.067   7.735  -1.867  0.00  0.00    +0.292 HD
ENDBRANCH  19  29
ENDBRANCH  16  17
BRANCH   1  31
ATOM     31  S   UNL     1       2.009  -0.424   1.816  0.00  0.00    +0.001 S 
ATOM     32  O   UNL     1       1.312  -0.168   0.605  0.00  0.00    -0.169 OA
ATOM     33  O   UNL     1       2.360  -1.752   2.183  0.00  0.00    -0.169 OA
BRANCH  31  35
ATOM     34  C   UNL     1       4.119   0.467   3.312  0.00  0.00    +0.032 C 
ATOM     35  C   UNL     1       3.455   0.663   1.947  0.00  0.00    +0.130 C 
ATOM     36  C   UNL     1       4.454   0.318   0.840  0.00  0.00    +0.032 C 
ENDBRANCH  31  35
ENDBRANCH   1  31
TORSDOF 6
