REMARK  Name = ZINC43337427
REMARK  7 active torsions:
REMARK  status: ('A' for Active; 'I' for Inactive)
REMARK    1  A    between atoms: C_1  and  C_2
REMARK    2  A    between atoms: C_5  and  O_9
REMARK    3  A    between atoms: O_9  and  C_10
REMARK    4  A    between atoms: C_10  and  C_12
REMARK    5  A    between atoms: C_10  and  C_17
REMARK    6  A    between atoms: C_17  and  C_19
REMARK    7  A    between atoms: C_17  and  N_20
REMARK                            x       y       z     vdW  Elec       q    Type
REMARK                         _______ _______ _______ _____ _____    ______ ____
ROOT
ATOM      1  C   UNL     1      -0.052  -4.772  -1.294  0.00  0.00    +0.224 C 
ENDROOT
BRANCH   1   2
ATOM      2  C   UNL     1       0.576  -6.140  -1.221  0.00  0.00    +0.143 A 
ATOM      3  C   UNL     1       1.334  -6.709  -2.175  0.00  0.00    +0.048 A 
ATOM      4  C   UNL     1       1.710  -7.984  -1.693  0.00  0.00    +0.041 A 
ATOM      5  C   UNL     1       1.159  -8.118  -0.473  0.00  0.00    +0.195 A 
ATOM      6  O   UNL     1       0.478  -6.996  -0.190  0.00  0.00    -0.464 OA
ENDBRANCH   1   2
BRANCH   1   7
ATOM      7  C   UNL     1      -1.529  -4.909  -1.672  0.00  0.00    -0.029 C 
ATOM      8  C   UNL     1      -1.646  -5.597  -3.033  0.00  0.00    -0.010 C 
BRANCH   7   9
ATOM      9  N   UNL     1      -2.141  -3.575  -1.743  0.00  0.00    +0.382 N 
ATOM     10  H   UNL     1      -1.665  -3.023  -2.440  0.00  0.00    -0.089 HD
ATOM     11  H   UNL     1      -3.115  -3.665  -1.992  0.00  0.00    -0.089 HD
ATOM     12  H   UNL     1      -2.064  -3.122  -0.845  0.00  0.00    -0.089 HD
ENDBRANCH   7   9
ENDBRANCH   1   7
BRANCH   1  13
ATOM     13  O   UNL     1       0.057  -4.130  -0.022  0.00  0.00    -0.482 OA
BRANCH  13  18
ATOM     14  C   UNL     1       0.565   1.480  -0.028  0.00  0.00    +0.044 C 
ATOM     15  C   UNL     1       0.429  -0.021  -0.026  0.00  0.00    -0.049 A 
ATOM     16  C   UNL     1       0.391  -0.712  -1.223  0.00  0.00    +0.007 A 
ATOM     17  C   UNL     1       0.267  -2.087  -1.225  0.00  0.00    +0.047 A 
ATOM     18  C   UNL     1       0.180  -2.776  -0.024  0.00  0.00    +0.135 A 
ATOM     19  C   UNL     1       0.218  -2.081   1.177  0.00  0.00    +0.060 A 
ATOM     20  C   UNL     1       0.349  -0.704   1.172  0.00  0.00    +0.022 A 
ATOM     21 BR   UNL     1       0.100  -3.015   2.817  0.00  0.00    -0.047 Br
ENDBRANCH  13  18
ENDBRANCH   1  13
TORSDOF 5
