REMARK  Name = ZINC00996101
REMARK  4 active torsions:
REMARK  status: ('A' for Active; 'I' for Inactive)
REMARK    1  A    between atoms: C_1  and  C_2
REMARK    2  A    between atoms: C_9  and  N_14
REMARK    3  A    between atoms: C_10  and  C_11
REMARK    4  A    between atoms: C_15  and  C_17
REMARK                            x       y       z     vdW  Elec       q    Type
REMARK                         _______ _______ _______ _____ _____    ______ ____
ROOT
ATOM      1  C   UNL     1      -1.435   3.621   2.530  0.00  0.00    +0.008 C 
ATOM      2  C   UNL     1      -0.938   3.098   1.181  0.00  0.00    -0.009 C 
ATOM      3  C   UNL     1      -0.735   1.582   1.262  0.00  0.00    +0.008 C 
ATOM      4  C   UNL     1      -0.013   1.086   0.008  0.00  0.00    +0.037 C 
ATOM      5  C   UNL     1      -0.755   1.593  -1.222  0.00  0.00    -0.023 A 
ATOM      6  C   UNL     1      -1.621   2.627  -1.135  0.00  0.00    -0.004 A 
ATOM      7  S   UNL     1      -2.225   2.852  -2.783  0.00  0.00    -0.077 S 
ATOM      8  C   UNL     1      -1.341   1.592  -3.580  0.00  0.00    +0.085 A 
ATOM      9  C   UNL     1      -0.600   1.027  -2.551  0.00  0.00    +0.068 A 
ATOM     10  C   UNL     1      -1.980   3.403   0.095  0.00  0.00    +0.046 C 
ENDROOT
BRANCH   9  11
ATOM     11  C   UNL     1       0.307  -0.099  -2.796  0.00  0.00    +0.244 C 
ATOM     12  O   UNL     1      -0.102  -1.241  -2.702  0.00  0.00    -0.270 OA
ATOM     13  N   UNL     1       1.593   0.132  -3.126  0.00  0.00    -0.325 N 
ATOM     14  H   UNL     1       1.919   1.042  -3.201  0.00  0.00    +0.145 HD
ATOM     15  H   UNL     1       2.193  -0.613  -3.288  0.00  0.00    +0.145 HD
ENDBRANCH   9  11
BRANCH   8  16
ATOM     16  N   UNL     1      -1.368   1.235  -4.917  0.00  0.00    -0.273 N 
ATOM     17  C   UNL     1      -2.159   1.906  -5.778  0.00  0.00    +0.284 C 
ATOM     18  O   UNL     1      -2.850   2.824  -5.380  0.00  0.00    -0.266 OA
ATOM     19  H   UNL     1      -0.817   0.502  -5.235  0.00  0.00    +0.156 HD
BRANCH  17  20
ATOM     20  C   UNL     1      -2.188   1.526  -7.200  0.00  0.00    +0.194 A 
ATOM     21  C   UNL     1      -2.992   2.217  -8.043  0.00  0.00    +0.060 A 
ATOM     22  C   UNL     1      -3.029   1.849  -9.460  0.00  0.00    -0.007 A 
ATOM     23  C   UNL     1      -3.834   2.520 -10.379  0.00  0.00    +0.009 A 
ATOM     24  C   UNL     1      -3.827   2.128 -11.701  0.00  0.00    +0.001 A 
ATOM     25  C   UNL     1      -3.027   1.076 -12.124  0.00  0.00    +0.001 A 
ATOM     26  C   UNL     1      -2.223   0.398 -11.231  0.00  0.00    +0.015 A 
ATOM     27  C   UNL     1      -2.214   0.776  -9.892  0.00  0.00    +0.067 A 
ATOM     28  C   UNL     1      -1.378   0.094  -8.893  0.00  0.00    +0.345 A 
ATOM     29  O   UNL     1      -0.662  -0.834  -9.221  0.00  0.00    -0.245 OA
ATOM     30  O   UNL     1      -1.409   0.508  -7.615  0.00  0.00    -0.417 OA
ENDBRANCH  17  20
ENDBRANCH   8  16
TORSDOF 3
