REMARK  Name = ZINC32738729
REMARK  9 active torsions:
REMARK  status: ('A' for Active; 'I' for Inactive)
REMARK    1  A    between atoms: C_1  and  C_2
REMARK    2  A    between atoms: C_5  and  S_24
REMARK    3  A    between atoms: C_7  and  N_8
REMARK    4  A    between atoms: C_9  and  C_11
REMARK    5  A    between atoms: C_11  and  S_12
REMARK    6  A    between atoms: S_12  and  C_13
REMARK    7  A    between atoms: S_24  and  N_27
REMARK    8  A    between atoms: N_27  and  C_28
REMARK    9  A    between atoms: N_27  and  C_29
REMARK                            x       y       z     vdW  Elec       q    Type
REMARK                         _______ _______ _______ _____ _____    ______ ____
ROOT
ATOM      1  N   UNL     1       2.357   3.887   0.004  0.00  0.00    -0.285 N 
ATOM      2  C   UNL     1       2.398   5.138   0.504  0.00  0.00    +0.227 C 
ATOM      3  O   UNL     1       1.419   5.606   1.046  0.00  0.00    -0.275 OA
ATOM      4  H   UNL     1       3.269   3.429  -0.406  0.00  0.00    +0.155 HD
ENDROOT
BRANCH   1  11
ATOM      5  C   UNL     1       2.485   1.044  -0.021  0.00  0.00    +0.045 C 
ATOM      6  C   UNL     1       1.171   1.783  -0.006  0.00  0.00    -0.029 A 
ATOM      7  C   UNL     1      -0.017   1.079  -0.005  0.00  0.00    +0.007 A 
ATOM      8  C   UNL     1      -1.223   1.756   0.003  0.00  0.00    +0.029 A 
ATOM      9  C   UNL     1      -1.243   3.139   0.021  0.00  0.00    +0.107 A 
ATOM     10  C   UNL     1      -0.058   3.848   0.019  0.00  0.00    +0.052 A 
ATOM     11  C   UNL     1       1.155   3.171   0.006  0.00  0.00    +0.038 A 
BRANCH   9  12
ATOM     12  S   UNL     1      -2.782   3.997   0.037  0.00  0.00    +0.060 S 
ATOM     13  O   UNL     1      -3.740   3.102   0.587  0.00  0.00    -0.153 OA
ATOM     14  O   UNL     1      -2.527   5.278   0.597  0.00  0.00    -0.153 OA
BRANCH  12  15
ATOM     15  N   UNL     1      -3.219   4.248  -1.540  0.00  0.00    -0.183 NA
ATOM     16  C   UNL     1      -4.030   3.251  -2.243  0.00  0.00    +0.131 C 
ATOM     17  C   UNL     1      -2.795   5.468  -2.233  0.00  0.00    +0.131 C 
ENDBRANCH  12  15
ENDBRANCH   9  12
ENDBRANCH   1  11
BRANCH   2  18
ATOM     18  C   UNL     1       3.659   5.954   0.390  0.00  0.00    +0.173 C 
BRANCH  18  19
ATOM     19  S   UNL     1       3.399   7.576   1.150  0.00  0.00    -0.078 S 
BRANCH  19  20
ATOM     20  C   UNL     1       4.984   8.298   0.881  0.00  0.00    +0.169 A 
ATOM     21  N   UNL     1       5.348   9.559   1.264  0.00  0.00    -0.202 NA
ATOM     22  H   UNL     1       6.069   6.701  -0.156  0.00  0.00    +0.168 HD
ATOM     23  C   UNL     1       6.664   9.742   0.883  0.00  0.00    +0.179 A 
ATOM     24  C   UNL     1       7.055   8.546   0.255  0.00  0.00    +0.087 A 
ATOM     25  N   UNL     1       5.989   7.706   0.285  0.00  0.00    -0.332 N 
ATOM     26  C   UNL     1       8.355   8.439  -0.247  0.00  0.00    +0.046 A 
ATOM     27  C   UNL     1       9.207   9.519  -0.091  0.00  0.00    +0.038 A 
ATOM     28  C   UNL     1       8.748  10.664   0.539  0.00  0.00    +0.128 A 
ATOM     29  N   UNL     1       7.516  10.746   1.001  0.00  0.00    -0.233 NA
ATOM     30 BR   UNL     1      10.980   9.435  -0.742  0.00  0.00    -0.049 Br
ENDBRANCH  19  20
ENDBRANCH  18  19
ENDBRANCH   2  18
TORSDOF 6
