REMARK  Name = ZINC06941889
REMARK  8 active torsions:
REMARK  status: ('A' for Active; 'I' for Inactive)
REMARK    1  A    between atoms: C_1  and  C_2
REMARK    2  A    between atoms: C_7  and  N_12
REMARK    3  A    between atoms: C_9  and  C_11
REMARK    4  A    between atoms: C_13  and  C_15
REMARK    5  A    between atoms: N_20  and  S_22
REMARK    6  A    between atoms: S_22  and  N_25
REMARK    7  A    between atoms: C_27  and  C_34
REMARK    8  A    between atoms: C_30  and  C_33
REMARK                            x       y       z     vdW  Elec       q    Type
REMARK                         _______ _______ _______ _____ _____    ______ ____
ROOT
ATOM      1  C   UNL     1       0.423   0.678   8.413  0.00  0.00    +0.091 C 
ATOM      2  C   UNL     1       1.530  -0.371   8.288  0.00  0.00    +0.015 C 
ATOM      3  C   UNL     1       1.185  -1.347   7.161  0.00  0.00    +0.018 C 
ATOM      4  C   UNL     1       1.090  -0.584   5.841  0.00  0.00    +0.110 C 
ATOM      5  N   UNL     1       0.135   0.522   5.995  0.00  0.00    -0.166 NA
ATOM      6  C   UNL     1       0.322   1.467   7.104  0.00  0.00    +0.123 C 
ENDROOT
BRANCH   1   8
ATOM      7  N   UNL     1       0.884   1.144  10.799  0.00  0.00    -0.312 N 
ATOM      8  C   UNL     1       0.746   1.619   9.545  0.00  0.00    +0.218 C 
ATOM      9  O   UNL     1       0.883   2.804   9.327  0.00  0.00    -0.275 OA
ATOM     10  H   UNL     1       0.774   0.196  10.973  0.00  0.00    +0.149 HD
BRANCH   7  16
ATOM     11  C   UNL     1       2.921   1.470  15.292  0.00  0.00    +0.008 C 
ATOM     12  C   UNL     1       2.224   2.242  14.169  0.00  0.00    -0.009 C 
ATOM     13  C   UNL     1       0.931   2.862  14.703  0.00  0.00    +0.003 C 
ATOM     14  C   UNL     1       0.234   3.634  13.581  0.00  0.00    +0.002 C 
ATOM     15  C   UNL     1      -0.095   2.679  12.432  0.00  0.00    +0.022 C 
ATOM     16  C   UNL     1       1.198   2.059  11.898  0.00  0.00    +0.076 C 
ATOM     17  C   UNL     1       1.895   1.287  13.021  0.00  0.00    +0.009 C 
ATOM     18  C   UNL     1       0.970   0.179  13.528  0.00  0.00    +0.009 C 
ENDBRANCH   7  16
ENDBRANCH   1   8
BRANCH   5  19
ATOM     19  S   UNL     1      -1.132   0.695   4.943  0.00  0.00    +0.100 S 
ATOM     20  O   UNL     1      -2.135   1.428   5.633  0.00  0.00    -0.141 OA
ATOM     21  O   UNL     1      -1.375  -0.589   4.385  0.00  0.00    -0.141 OA
BRANCH  19  22
ATOM     22  N   UNL     1      -0.610   1.660   3.703  0.00  0.00    -0.166 NA
ATOM     23  C   UNL     1      -0.759   3.120   3.776  0.00  0.00    +0.113 C 
ATOM     24  C   UNL     1      -1.491   3.604   2.520  0.00  0.00    +0.002 C 
ATOM     25  C   UNL     1      -0.746   3.110   1.278  0.00  0.00    +0.009 C 
ATOM     26  C   UNL     1      -0.729   1.579   1.267  0.00  0.00    +0.002 C 
ATOM     27  C   UNL     1       0.012   1.072   2.508  0.00  0.00    +0.113 C 
ATOM     28  C   UNL     1      -0.013   1.086   0.008  0.00  0.00    +0.009 C 
ATOM     29  C   UNL     1      -1.537   5.133   2.513  0.00  0.00    +0.009 C 
ENDBRANCH  19  22
ENDBRANCH   5  19
TORSDOF 4
