REMARK  Name = ZINC18196359
REMARK  4 active torsions:
REMARK  status: ('A' for Active; 'I' for Inactive)
REMARK    1  A    between atoms: C_3  and  C_6
REMARK    2  A    between atoms: C_11  and  C_21
REMARK    3  A    between atoms: C_18  and  O_19
REMARK    4  A    between atoms: C_26  and  O_27
REMARK                            x       y       z     vdW  Elec       q    Type
REMARK                         _______ _______ _______ _____ _____    ______ ____
ROOT
ATOM      1  C   UNL     1       5.304   1.584   4.835  0.00  0.00    +0.039 C 
ATOM      2  C   UNL     1       5.244   2.673   3.763  0.00  0.00    +0.060 C 
ATOM      3  C   UNL     1       4.022   2.467   2.896  0.00  0.00    +0.017 C 
ATOM      4  C   UNL     1       2.896   1.924   3.406  0.00  0.00    +0.024 C 
ATOM      5  C   UNL     1       1.645   1.721   2.579  0.00  0.00    +0.096 C 
ATOM      6  C   UNL     1       1.973   1.874   1.121  0.00  0.00    +0.067 A 
ATOM      7  C   UNL     1       3.155   2.415   0.687  0.00  0.00    +0.126 A 
ATOM      8  N   UNL     1       3.134   2.421  -0.659  0.00  0.00    -0.260 N 
ATOM      9  H   UNL     1       3.858   2.763  -1.258  0.00  0.00    +0.190 HD
ATOM     10  N   UNL     1       1.913   1.862  -1.071  0.00  0.00    -0.134 NA
ATOM     11  C   UNL     1       1.224   1.533  -0.001  0.00  0.00    +0.237 A 
ATOM     12  N   UNL     1       4.125   2.846   1.583  0.00  0.00    -0.303 N 
ATOM     13  C   UNL     1       2.837   1.514   4.750  0.00  0.00    +0.162 C 
ATOM     14  O   UNL     1       1.807   1.034   5.181  0.00  0.00    -0.292 OA
ATOM     15  C   UNL     1       4.020   1.656   5.668  0.00  0.00    +0.088 C 
ATOM     16  H   UNL     1       4.856   3.412   1.288  0.00  0.00    +0.153 HD
ENDROOT
BRANCH   5  17
ATOM     17  C   UNL     1       0.614   2.748   2.971  0.00  0.00    +0.009 A 
ATOM     18  C   UNL     1       0.890   4.094   2.830  0.00  0.00    +0.028 A 
ATOM     19  C   UNL     1      -0.056   5.037   3.189  0.00  0.00    +0.043 A 
ATOM     20  C   UNL     1      -1.281   4.635   3.690  0.00  0.00    +0.043 A 
ATOM     21  C   UNL     1      -1.562   3.289   3.833  0.00  0.00    +0.084 A 
ATOM     22  C   UNL     1      -0.616   2.341   3.468  0.00  0.00    +0.139 A 
ATOM     23 CL   UNL     1      -3.100   2.784   4.462  0.00  0.00    -0.080 Cl
ATOM     24 CL   UNL     1       0.295   6.728   3.012  0.00  0.00    -0.083 Cl
BRANCH  22  25
ATOM     25  O   UNL     1      -0.891   1.017   3.602  0.00  0.00    -0.505 OA
ATOM     26  H   UNL     1      -0.644   0.649   4.461  0.00  0.00    +0.292 HD
ENDBRANCH  22  25
ENDBRANCH   5  17
BRANCH   1  29
ATOM     27  C   UNL     1       8.543   1.416   6.835  0.00  0.00    +0.008 A 
ATOM     28  C   UNL     1       7.546   0.989   5.977  0.00  0.00    +0.011 A 
ATOM     29  C   UNL     1       6.499   1.813   5.724  0.00  0.00    -0.006 A 
ATOM     30  S   UNL     1       6.900   3.237   6.724  0.00  0.00    -0.101 S 
ATOM     31  C   UNL     1       8.439   2.641   7.406  0.00  0.00    +0.045 A 
ENDBRANCH   1  29
BRANCH  11  32
ATOM     32  O   UNL     1      -0.011   0.963   0.007  0.00  0.00    -0.491 OA
ATOM     33  H   UNL     1      -0.321   0.824  -0.933  0.00  0.00    +0.294 HD
ENDBRANCH  11  32
TORSDOF 4
