REMARK  Name = ZINC41158243
REMARK  8 active torsions:
REMARK  status: ('A' for Active; 'I' for Inactive)
REMARK    1  A    between atoms: C_1  and  C_2
REMARK    2  A    between atoms: C_7  and  C_14
REMARK    3  A    between atoms: C_14  and  N_15
REMARK    4  A    between atoms: N_15  and  S_16
REMARK    5  A    between atoms: S_16  and  C_19
REMARK    6  A    between atoms: C_22  and  C_25
REMARK    7  A    between atoms: C_25  and  C_26
REMARK    8  A    between atoms: C_25  and  C_27
REMARK                            x       y       z     vdW  Elec       q    Type
REMARK                         _______ _______ _______ _____ _____    ______ ____
ROOT
ATOM      1  C   UNL     1       0.096  -6.383   1.200  0.00  0.00    +0.146 C 
ENDROOT
BRANCH   1   8
ATOM      2  C   UNL     1      -0.018   1.503   0.010  0.00  0.00    +0.044 C 
ATOM      3  C   UNL     1       0.002  -0.004   0.002  0.00  0.00    -0.048 A 
ATOM      4  C   UNL     1       0.006  -0.684  -1.208  0.00  0.00    +0.004 A 
ATOM      5  C   UNL     1       0.024  -2.050  -1.238  0.00  0.00    +0.010 A 
ATOM      6  C   UNL     1       0.040  -2.769  -0.039  0.00  0.00    -0.001 A 
ATOM      7  C   UNL     1       0.060  -4.233  -0.034  0.00  0.00    +0.020 A 
ATOM      8  C   UNL     1       0.075  -4.877   1.159  0.00  0.00    +0.033 A 
ATOM      9  C   UNL     1       0.070  -4.142   2.364  0.00  0.00    +0.254 A 
ATOM     10  O   UNL     1       0.084  -4.740   3.426  0.00  0.00    -0.268 OA
ATOM     11  N   UNL     1       0.052  -2.797   2.370  0.00  0.00    -0.322 N 
ATOM     12  H   UNL     1       0.050  -2.323   3.216  0.00  0.00    +0.169 HD
ATOM     13  C   UNL     1       0.036  -2.083   1.190  0.00  0.00    +0.049 A 
ATOM     14  C   UNL     1       0.023  -0.692   1.196  0.00  0.00    +0.029 A 
ENDBRANCH   1   8
BRANCH   1  15
ATOM     15  N   UNL     1       1.479  -6.850   1.326  0.00  0.00    -0.185 NA
ATOM     16  H   UNL     1       2.213  -6.240   1.153  0.00  0.00    +0.148 HD
BRANCH  15  17
ATOM     17  S   UNL     1       1.788  -8.416   1.764  0.00  0.00    +0.059 S 
ATOM     18  O   UNL     1       3.201  -8.565   1.773  0.00  0.00    -0.153 OA
ATOM     19  O   UNL     1       0.986  -8.684   2.907  0.00  0.00    -0.153 OA
BRANCH  17  20
ATOM     20  C   UNL     1       1.181  -9.448   0.471  0.00  0.00    +0.105 A 
ATOM     21  C   UNL     1      -0.122  -9.906   0.506  0.00  0.00    +0.029 A 
ATOM     22  C   UNL     1      -0.598 -10.716  -0.509  0.00  0.00    +0.006 A 
ATOM     23  C   UNL     1       0.230 -11.067  -1.558  0.00  0.00    -0.045 A 
ATOM     24  C   UNL     1       1.534 -10.608  -1.594  0.00  0.00    +0.006 A 
ATOM     25  C   UNL     1       2.008  -9.796  -0.581  0.00  0.00    +0.029 A 
BRANCH  23  26
ATOM     26  C   UNL     1      -0.288 -11.950  -2.664  0.00  0.00    +0.013 C 
ATOM     27  C   UNL     1      -0.194 -11.206  -3.998  0.00  0.00    +0.012 C 
ATOM     28  C   UNL     1       0.552 -13.227  -2.732  0.00  0.00    +0.012 C 
ENDBRANCH  23  26
ENDBRANCH  17  20
ENDBRANCH  15  17
ENDBRANCH   1  15
TORSDOF 5
