REMARK  Name = ZINC40314043
REMARK  5 active torsions:
REMARK  status: ('A' for Active; 'I' for Inactive)
REMARK    1  A    between atoms: C_1  and  C_2
REMARK    2  A    between atoms: C_7  and  C_22
REMARK    3  A    between atoms: N_9  and  S_10
REMARK    4  A    between atoms: S_10  and  C_13
REMARK    5  A    between atoms: C_15  and  N_21
REMARK                            x       y       z     vdW  Elec       q    Type
REMARK                         _______ _______ _______ _____ _____    ______ ____
ROOT
ATOM      1  S   UNL     1       0.017  -1.547   2.036  0.00  0.00    +0.063 S 
ATOM      2  O   UNL     1      -0.225  -0.830   3.238  0.00  0.00    -0.153 OA
ATOM      3  O   UNL     1      -1.033  -1.966   1.175  0.00  0.00    -0.153 OA
ENDROOT
BRANCH   1  10
ATOM      4  C   UNL     1       0.476   0.765  -0.827  0.00  0.00    +0.026 C 
ATOM      5  C   UNL     1       0.936  -0.612  -0.344  0.00  0.00    +0.077 C 
ATOM      6  C   UNL     1       2.314  -0.929  -0.932  0.00  0.00    +0.020 C 
ATOM      7  C   UNL     1       3.342   0.057  -0.374  0.00  0.00    +0.003 C 
ATOM      8  C   UNL     1       3.421  -0.092   1.147  0.00  0.00    +0.020 C 
ATOM      9  C   UNL     1       2.055   0.235   1.760  0.00  0.00    +0.077 C 
ATOM     10  N   UNL     1       1.033  -0.612   1.123  0.00  0.00    -0.171 NA
ATOM     11  C   UNL     1       2.088  -0.043   3.264  0.00  0.00    +0.026 C 
ENDBRANCH   1  10
BRANCH   1  12
ATOM     12  C   UNL     1       0.909  -2.999   2.486  0.00  0.00    +0.126 A 
ATOM     13  C   UNL     1       1.242  -3.221   3.809  0.00  0.00    +0.055 A 
ATOM     14  C   UNL     1       1.944  -4.364   4.164  0.00  0.00    +0.062 A 
ATOM     15  C   UNL     1       2.310  -5.284   3.187  0.00  0.00    +0.145 A 
ATOM     16  C   UNL     1       1.974  -5.056   1.865  0.00  0.00    +0.062 A 
ATOM     17  C   UNL     1       1.269  -3.917   1.516  0.00  0.00    +0.070 A 
ATOM     18 CL   UNL     1       0.842  -3.636  -0.143  0.00  0.00    -0.081 Cl
ATOM     19  F   UNL     1       2.994  -6.398   3.528  0.00  0.00    -0.204 F 
BRANCH  14  20
ATOM     20  N   UNL     1       2.283  -4.591   5.502  0.00  0.00    -0.356 N 
ATOM     21  H   UNL     1       2.027  -3.949   6.183  0.00  0.00    +0.142 HD
ATOM     22  H   UNL     1       2.773  -5.391   5.749  0.00  0.00    +0.142 HD
ENDBRANCH  14  20
ENDBRANCH   1  12
TORSDOF 3
