REMARK  Name = ZINC35324534
REMARK  6 active torsions:
REMARK  status: ('A' for Active; 'I' for Inactive)
REMARK    1  A    between atoms: C_1  and  O_2
REMARK    2  A    between atoms: O_2  and  C_3
REMARK    3  A    between atoms: C_5  and  C_14
REMARK    4  A    between atoms: C_6  and  O_12
REMARK    5  A    between atoms: O_12  and  C_13
REMARK    6  A    between atoms: C_24  and  C_25
REMARK                            x       y       z     vdW  Elec       q    Type
REMARK                         _______ _______ _______ _____ _____    ______ ____
ROOT
ATOM      1  C   UNL     1       2.214   0.289  -4.078  0.00  0.00    +0.072 C 
ATOM      2  C   UNL     1       3.248   1.139  -3.329  0.00  0.00    +0.109 C 
ATOM      3  C   UNL     1       2.587   2.297  -2.637  0.00  0.00    +0.218 C 
ATOM      4  O   UNL     1       2.991   2.627  -1.542  0.00  0.00    -0.275 OA
ATOM      5  N   UNL     1       1.564   2.985  -3.179  0.00  0.00    -0.283 N 
ATOM      6  C   UNL     1       0.953   2.476  -4.353  0.00  0.00    +0.072 A 
ATOM      7  C   UNL     1       1.265   1.212  -4.775  0.00  0.00    +0.040 A 
ATOM      8  S   UNL     1       0.371   0.995  -6.159  0.00  0.00    +0.010 S 
ATOM      9  N   UNL     1      -0.430   2.466  -6.215  0.00  0.00    -0.208 NA
ATOM     10  C   UNL     1       0.015   3.122  -5.159  0.00  0.00    +0.101 A 
ATOM     11  H   UNL     1       1.252   3.810  -2.775  0.00  0.00    +0.155 HD
ENDROOT
BRANCH   1  14
ATOM     12  C   UNL     1       0.044  -0.776  -1.173  0.00  0.00    +0.166 A 
ATOM     13  C   UNL     1       0.740   0.013  -2.075  0.00  0.00    +0.057 A 
ATOM     14  C   UNL     1       1.460  -0.574  -3.100  0.00  0.00    +0.010 A 
ATOM     15  C   UNL     1       1.487  -1.953  -3.229  0.00  0.00    +0.169 A 
ATOM     16  C   UNL     1       0.791  -2.750  -2.328  0.00  0.00    +0.211 A 
ATOM     17  C   UNL     1       0.073  -2.161  -1.294  0.00  0.00    +0.211 A 
ATOM     18  O   UNL     1      -0.510  -3.147  -0.549  0.00  0.00    -0.449 OA
ATOM     19  C   UNL     1      -0.470  -4.326  -1.374  0.00  0.00    +0.467 C 
ATOM     20  O   UNL     1       0.658  -4.107  -2.236  0.00  0.00    -0.449 OA
BRANCH  12  22
ATOM     21  C   UNL     1      -0.648   1.231  -0.101  0.00  0.00    +0.277 C 
ATOM     22  O   UNL     1      -0.662  -0.197  -0.165  0.00  0.00    -0.491 OA
ENDBRANCH  12  22
BRANCH  15  23
ATOM     23  O   UNL     1       2.196  -2.527  -4.239  0.00  0.00    -0.491 OA
ATOM     24  C   UNL     1       3.562  -2.850  -3.970  0.00  0.00    +0.277 C 
ENDBRANCH  15  23
ENDBRANCH   1  14
BRANCH  10  25
ATOM     25  C   UNL     1      -0.461   4.491  -4.842  0.00  0.00    +0.003 A 
ATOM     26  C   UNL     1       0.443   5.466  -4.422  0.00  0.00    +0.010 A 
ATOM     27  C   UNL     1      -0.006   6.738  -4.130  0.00  0.00    +0.001 A 
ATOM     28  C   UNL     1      -1.349   7.046  -4.252  0.00  0.00    +0.000 A 
ATOM     29  C   UNL     1      -2.250   6.082  -4.668  0.00  0.00    +0.001 A 
ATOM     30  C   UNL     1      -1.812   4.808  -4.968  0.00  0.00    +0.010 A 
ENDBRANCH  10  25
TORSDOF 4
