REMARK  Name = ZINC50563740
REMARK  6 active torsions:
REMARK  status: ('A' for Active; 'I' for Inactive)
REMARK    1  A    between atoms: C_1  and  C_2
REMARK    2  A    between atoms: N_7  and  C_11
REMARK    3  A    between atoms: C_8  and  C_10
REMARK    4  A    between atoms: C_11  and  C_13
REMARK    5  A    between atoms: C_11  and  C_15
REMARK    6  A    between atoms: C_13  and  N_14
REMARK                            x       y       z     vdW  Elec       q    Type
REMARK                         _______ _______ _______ _____ _____    ______ ____
ROOT
ATOM      1  C   UNL     1       2.026  -2.662   2.619  0.00  0.00    +0.070 C 
ENDROOT
BRANCH   1   2
ATOM      2  C   UNL     1       1.998  -4.160   2.462  0.00  0.00    -0.027 A 
ATOM      3  C   UNL     1       3.177  -4.881   2.515  0.00  0.00    +0.054 A 
ATOM      4  C   UNL     1       3.154  -6.259   2.372  0.00  0.00    +0.168 A 
ATOM      5  C   UNL     1       1.942  -6.915   2.175  0.00  0.00    +0.184 A 
ATOM      6  C   UNL     1       0.764  -6.186   2.123  0.00  0.00    +0.087 A 
ATOM      7  C   UNL     1       0.794  -4.811   2.272  0.00  0.00    +0.029 A 
ATOM      8 CL   UNL     1      -0.750  -7.000   1.877  0.00  0.00    -0.080 Cl
ATOM      9  O   UNL     1       2.184  -8.255   2.065  0.00  0.00    -0.451 OA
ATOM     10  C   UNL     1       3.592  -8.370   1.788  0.00  0.00    +0.466 C 
ATOM     11  O   UNL     1       4.156  -7.187   2.385  0.00  0.00    -0.453 OA
ENDBRANCH   1   2
BRANCH   1  17
ATOM     12  C   UNL     1       0.751  -3.034  -2.117  0.00  0.00    +0.009 C 
ATOM     13  C   UNL     1       0.573  -2.230  -0.828  0.00  0.00    +0.003 C 
ATOM     14  C   UNL     1       0.981  -0.774  -1.073  0.00  0.00    +0.006 C 
ATOM     15  C   UNL     1       0.857   0.010   0.236  0.00  0.00    +0.016 C 
ATOM     16  C   UNL     1       1.732  -0.649   1.305  0.00  0.00    +0.085 C 
ATOM     17  N   UNL     1       1.301  -2.039   1.503  0.00  0.00    -0.294 NA
ATOM     18  C   UNL     1       1.455  -2.825   0.272  0.00  0.00    +0.057 C 
ATOM     19  C   UNL     1       2.918  -2.790  -0.174  0.00  0.00    +0.024 C 
ENDBRANCH   1  17
BRANCH   1  20
ATOM     20  C   UNL     1       1.360  -2.274   3.940  0.00  0.00    -0.063 C 
BRANCH  20  21
ATOM     21  N   UNL     1       1.254  -0.811   4.025  0.00  0.00    +0.379 N 
ATOM     22  H   UNL     1       2.150  -0.397   3.814  0.00  0.00    -0.090 HD
ATOM     23  H   UNL     1       0.568  -0.485   3.361  0.00  0.00    -0.090 HD
ATOM     24  H   UNL     1       0.973  -0.548   4.957  0.00  0.00    -0.090 HD
ENDBRANCH  20  21
ENDBRANCH   1  20
TORSDOF 4
