REMARK  Name = ZINC40841284
REMARK  12 active torsions:
REMARK  status: ('A' for Active; 'I' for Inactive)
REMARK    1  A    between atoms: C_1  and  O_2
REMARK    2  A    between atoms: O_2  and  C_3
REMARK    3  A    between atoms: C_5  and  C_13
REMARK    4  A    between atoms: C_7  and  O_11
REMARK    5  A    between atoms: C_8  and  O_9
REMARK    6  A    between atoms: O_9  and  C_10
REMARK    7  A    between atoms: O_11  and  C_12
REMARK    8  A    between atoms: N_14  and  N_15
REMARK    9  A    between atoms: C_16  and  C_18
REMARK   10  A    between atoms: C_18  and  O_19
REMARK   11  A    between atoms: O_19  and  C_20
REMARK   12  A    between atoms: C_23  and  C_27
REMARK                            x       y       z     vdW  Elec       q    Type
REMARK                         _______ _______ _______ _____ _____    ______ ____
ROOT
ATOM      1  N   UNL     1       3.543   0.550  -6.244  0.00  0.00    -0.204 N 
ATOM      2  C   UNL     1       4.141  -0.050  -7.292  0.00  0.00    +0.270 C 
ATOM      3  O   UNL     1       4.184  -1.260  -7.354  0.00  0.00    -0.270 OA
ATOM      4  H   UNL     1       3.509   1.518  -6.194  0.00  0.00    +0.177 HD
ENDROOT
BRANCH   1   6
ATOM      5  C   UNL     1       2.394   0.354  -4.217  0.00  0.00    +0.138 C 
ATOM      6  N   UNL     1       2.970  -0.224  -5.226  0.00  0.00    -0.188 NA
BRANCH   5   9
ATOM      7  C   UNL     1       0.606  -0.608  -1.056  0.00  0.00    +0.166 A 
ATOM      8  C   UNL     1       1.171   0.160  -2.059  0.00  0.00    +0.059 A 
ATOM      9  C   UNL     1       1.792  -0.461  -3.146  0.00  0.00    +0.002 A 
ATOM     10  C   UNL     1       1.839  -1.855  -3.217  0.00  0.00    +0.059 A 
ATOM     11  C   UNL     1       1.273  -2.617  -2.211  0.00  0.00    +0.166 A 
ATOM     12  C   UNL     1       0.660  -1.996  -1.127  0.00  0.00    +0.204 A 
BRANCH   7  14
ATOM     13  C   UNL     1      -0.017   1.425   0.010  0.00  0.00    +0.277 C 
ATOM     14  O   UNL     1       0.002  -0.004   0.002  0.00  0.00    -0.491 OA
ENDBRANCH   7  14
BRANCH  12  15
ATOM     15  O   UNL     1       0.109  -2.748  -0.136  0.00  0.00    -0.488 OA
ATOM     16  C   UNL     1      -1.263  -3.118  -0.290  0.00  0.00    +0.277 C 
ENDBRANCH  12  15
BRANCH  11  17
ATOM     17  O   UNL     1       1.319  -3.975  -2.279  0.00  0.00    -0.491 OA
ATOM     18  C   UNL     1       1.968  -4.546  -3.417  0.00  0.00    +0.277 C 
ENDBRANCH  11  17
ENDBRANCH   5   9
ENDBRANCH   1   6
BRANCH   2  19
ATOM     19  C   UNL     1       4.757   0.783  -8.386  0.00  0.00    +0.326 C 
BRANCH  19  20
ATOM     20  O   UNL     1       5.324  -0.076  -9.377  0.00  0.00    -0.482 OA
BRANCH  20  21
ATOM     21  C   UNL     1       5.924   0.520 -10.440  0.00  0.00    +0.135 A 
ATOM     22  C   UNL     1       5.970   1.905 -10.523  0.00  0.00    +0.047 A 
ATOM     23  C   UNL     1       6.578   2.513 -11.601  0.00  0.00    +0.012 A 
ATOM     24  C   UNL     1       7.148   1.736 -12.609  0.00  0.00    -0.017 A 
ATOM     25  C   UNL     1       7.101   0.346 -12.523  0.00  0.00    +0.027 A 
ATOM     26  C   UNL     1       6.496  -0.257 -11.440  0.00  0.00    +0.060 A 
ATOM     27 BR   UNL     1       6.438  -2.143 -11.318  0.00  0.00    -0.046 Br
BRANCH  24  28
ATOM     28  C   UNL     1       7.802   2.388 -13.770  0.00  0.00    -0.018 A 
ATOM     29  C   UNL     1       7.854   3.778 -13.854  0.00  0.00    +0.008 A 
ATOM     30  C   UNL     1       8.464   4.379 -14.937  0.00  0.00    +0.001 A 
ATOM     31  C   UNL     1       9.023   3.604 -15.937  0.00  0.00    +0.000 A 
ATOM     32  C   UNL     1       8.975   2.224 -15.858  0.00  0.00    +0.001 A 
ATOM     33  C   UNL     1       8.372   1.612 -14.777  0.00  0.00    +0.008 A 
ENDBRANCH  24  28
ENDBRANCH  20  21
ENDBRANCH  19  20
ENDBRANCH   2  19
TORSDOF 9
