REMARK  Name = ZINC12414056
REMARK  6 active torsions:
REMARK  status: ('A' for Active; 'I' for Inactive)
REMARK    1  A    between atoms: C_1  and  N_2
REMARK    2  A    between atoms: N_2  and  C_3
REMARK    3  A    between atoms: N_2  and  C_4
REMARK    4  A    between atoms: C_11  and  N_25
REMARK    5  A    between atoms: C_12  and  C_23
REMARK    6  A    between atoms: C_13  and  C_15
REMARK                            x       y       z     vdW  Elec       q    Type
REMARK                         _______ _______ _______ _____ _____    ______ ____
ROOT
ATOM      1  C   UNL     1       1.179   1.785  -0.001  0.00  0.00    +0.033 A 
ATOM      2  C   UNL     1       1.157   3.175   0.020  0.00  0.00    +0.023 A 
ATOM      3  C   UNL     1      -0.049   3.845   0.034  0.00  0.00    +0.010 A 
ATOM      4  C   UNL     1      -1.240   3.139   0.027  0.00  0.00    +0.008 A 
ATOM      5  C   UNL     1      -1.225   1.753   0.000  0.00  0.00    +0.136 A 
ATOM      6  C   UNL     1      -0.013   1.076  -0.008  0.00  0.00    +0.069 A 
ATOM      7  O   UNL     1      -2.381   1.045  -0.003  0.00  0.00    -0.441 OA
ATOM      8  C   UNL     1      -3.528   1.639  -0.374  0.00  0.00    +0.199 C 
ATOM      9  C   UNL     1      -3.670   2.986  -0.375  0.00  0.00    +0.098 C 
ATOM     10  C   UNL     1      -2.545   3.890   0.043  0.00  0.00    +0.103 C 
ENDROOT
BRANCH  10  11
ATOM     11  C   UNL     1      -2.810   4.400   1.436  0.00  0.00    +0.036 A 
ATOM     12  C   UNL     1      -2.927   3.510   2.489  0.00  0.00    +0.130 A 
ATOM     13  C   UNL     1      -3.165   3.980   3.770  0.00  0.00    +0.039 A 
ATOM     14  C   UNL     1      -3.297   5.338   3.995  0.00  0.00    +0.006 A 
ATOM     15  C   UNL     1      -3.186   6.227   2.943  0.00  0.00    +0.039 A 
ATOM     16  C   UNL     1      -2.943   5.760   1.662  0.00  0.00    +0.130 A 
ATOM     17  F   UNL     1      -2.834   6.629   0.634  0.00  0.00    -0.205 F 
ATOM     18  F   UNL     1      -2.804   2.183   2.269  0.00  0.00    -0.205 F 
ENDBRANCH  10  11
BRANCH   1  20
ATOM     19  C   UNL     1       2.423  -0.356   0.091  0.00  0.00    +0.129 C 
ATOM     20  N   UNL     1       2.399   1.105  -0.014  0.00  0.00    -0.336 N 
ATOM     21  C   UNL     1       3.653   1.852  -0.133  0.00  0.00    +0.129 C 
ENDBRANCH   1  20
BRANCH   8  22
ATOM     22  N   UNL     1      -4.587   0.857  -0.764  0.00  0.00    -0.328 N 
ATOM     23  H   UNL     1      -5.421   1.271  -1.035  0.00  0.00    +0.145 HD
ATOM     24  H   UNL     1      -4.500  -0.109  -0.769  0.00  0.00    +0.145 HD
ENDBRANCH   8  22
BRANCH   9  25
ATOM     25  C   UNL     1      -4.917   3.559  -0.782  0.00  0.00    +0.101 C 
ATOM     26  N   UNL     1      -5.907   4.014  -1.104  0.00  0.00    -0.191 NA
ENDBRANCH   9  25
TORSDOF 4
