REMARK  Name = ZINC67293061
REMARK  5 active torsions:
REMARK  status: ('A' for Active; 'I' for Inactive)
REMARK    1  A    between atoms: C_1  and  C_2
REMARK    2  A    between atoms: C_5  and  N_9
REMARK    3  A    between atoms: C_11  and  C_21
REMARK    4  A    between atoms: N_23  and  C_24
REMARK    5  A    between atoms: C_24  and  C_25
REMARK                            x       y       z     vdW  Elec       q    Type
REMARK                         _______ _______ _______ _____ _____    ______ ____
ROOT
ATOM      1  N   UNL     1       0.011  -4.155  -0.033  0.00  0.00    -0.324 N 
ATOM      2  C   UNL     1       0.755  -4.789  -0.912  0.00  0.00    +0.212 A 
ATOM      3  C   UNL     1       0.896  -6.258  -0.871  0.00  0.00    +0.097 A 
ATOM      4  C   UNL     1       1.183  -6.900  -2.068  0.00  0.00    +0.030 A 
ATOM      5  C   UNL     1       1.320  -6.064  -3.263  0.00  0.00    +0.020 A 
ATOM      6  C   UNL     1       1.342  -6.638  -4.540  0.00  0.00    +0.031 A 
ATOM      7  C   UNL     1       1.468  -5.830  -5.648  0.00  0.00    +0.042 A 
ATOM      8  C   UNL     1       1.574  -4.453  -5.504  0.00  0.00    +0.023 A 
ATOM      9  C   UNL     1       1.555  -3.873  -4.251  0.00  0.00    +0.048 A 
ATOM     10  C   UNL     1       1.430  -4.668  -3.122  0.00  0.00    +0.138 A 
ATOM     11  O   UNL     1       1.414  -4.114  -1.888  0.00  0.00    -0.439 OA
ATOM     12 CL   UNL     1       1.496  -6.536  -7.234  0.00  0.00    -0.084 Cl
ATOM     13  H   UNL     1      -0.470  -4.654   0.646  0.00  0.00    +0.169 HD
ENDROOT
BRANCH   1  18
ATOM     14  C   UNL     1      -0.391   1.473  -0.212  0.00  0.00    +0.044 C 
ATOM     15  C   UNL     1      -0.284  -0.029  -0.163  0.00  0.00    -0.049 A 
ATOM     16  C   UNL     1      -0.277  -0.757  -1.340  0.00  0.00    +0.005 A 
ATOM     17  C   UNL     1      -0.179  -2.132  -1.304  0.00  0.00    +0.027 A 
ATOM     18  C   UNL     1      -0.086  -2.791  -0.076  0.00  0.00    +0.060 A 
ATOM     19  C   UNL     1      -0.093  -2.050   1.109  0.00  0.00    +0.065 A 
ATOM     20  C   UNL     1      -0.186  -0.673   1.057  0.00  0.00    +0.025 A 
ATOM     21 CL   UNL     1       0.023  -2.857   2.642  0.00  0.00    -0.081 Cl
ENDBRANCH   1  18
BRANCH   3  22
ATOM     22  C   UNL     1       0.739  -7.010   0.386  0.00  0.00    +0.249 C 
ATOM     23  O   UNL     1       0.418  -6.430   1.406  0.00  0.00    -0.270 OA
ATOM     24  N   UNL     1       0.952  -8.341   0.406  0.00  0.00    -0.309 N 
ATOM     25  H   UNL     1       1.287  -8.790  -0.386  0.00  0.00    +0.149 HD
BRANCH  24  26
ATOM     26  C   UNL     1       0.677  -9.109   1.623  0.00  0.00    +0.136 C 
BRANCH  26  27
ATOM     27  C   UNL     1       1.000 -10.584   1.379  0.00  0.00    +0.135 C 
ATOM     28  C   UNL     1       0.600 -11.419   2.615  0.00  0.00    +0.035 C 
ATOM     29  C   UNL     1       1.762 -12.444   2.711  0.00  0.00    +0.031 C 
ATOM     30  C   UNL     1       2.954 -11.585   2.217  0.00  0.00    +0.160 C 
ATOM     31  O   UNL     1       2.409 -10.747   1.183  0.00  0.00    -0.375 OA
ENDBRANCH  26  27
ENDBRANCH  24  26
ENDBRANCH   3  22
TORSDOF 4
