REMARK  Name = ZINC38591177
REMARK  5 active torsions:
REMARK  status: ('A' for Active; 'I' for Inactive)
REMARK    1  A    between atoms: C_1  and  C_2
REMARK    2  A    between atoms: C_4  and  C_32
REMARK    3  A    between atoms: C_13  and  C_25
REMARK    4  A    between atoms: N_15  and  C_18
REMARK    5  A    between atoms: C_18  and  C_19
REMARK                            x       y       z     vdW  Elec       q    Type
REMARK                         _______ _______ _______ _____ _____    ______ ____
ROOT
ATOM      1  C   UNL     1       1.217   2.204   1.581  0.00  0.00    +0.044 C 
ATOM      2  C   UNL     1       1.118   0.718   1.346  0.00  0.00    -0.047 A 
ATOM      3  C   UNL     1       0.916   0.240   0.059  0.00  0.00    +0.007 A 
ATOM      4  C   UNL     1       0.827  -1.105  -0.169  0.00  0.00    -0.036 A 
ATOM      5  C   UNL     1       0.940  -1.996   0.897  0.00  0.00    +0.067 A 
ATOM      6  C   UNL     1       1.140  -1.524   2.205  0.00  0.00    +0.140 A 
ATOM      7  C   UNL     1       1.235  -0.147   2.410  0.00  0.00    +0.050 A 
ATOM      8  O   UNL     1       1.242  -2.356   3.266  0.00  0.00    -0.450 OA
ATOM      9  C   UNL     1       1.390  -3.680   3.063  0.00  0.00    +0.199 A 
ATOM     10  C   UNL     1       1.213  -4.262   1.841  0.00  0.00    +0.072 A 
ATOM     11  C   UNL     1       0.855  -3.460   0.666  0.00  0.00    +0.199 A 
ATOM     12  O   UNL     1       0.518  -3.949  -0.398  0.00  0.00    -0.287 OA
ATOM     13  C   UNL     1       1.449  -5.729   1.997  0.00  0.00    +0.145 C 
ATOM     14  N   UNL     1       1.784  -5.933   3.415  0.00  0.00    -0.281 N 
ATOM     15  C   UNL     1       1.748  -4.733   4.030  0.00  0.00    +0.283 C 
ATOM     16  O   UNL     1       1.977  -4.547   5.208  0.00  0.00    -0.267 OA
ATOM     17  C   UNL     1       0.607  -1.622  -1.568  0.00  0.00    +0.044 C 
ENDROOT
BRANCH  13  18
ATOM     18  C   UNL     1       2.596  -6.166   1.122  0.00  0.00    -0.022 A 
ATOM     19  C   UNL     1       3.893  -5.842   1.470  0.00  0.00    +0.007 A 
ATOM     20  C   UNL     1       4.945  -6.244   0.668  0.00  0.00    +0.015 A 
ATOM     21  C   UNL     1       4.699  -6.970  -0.483  0.00  0.00    +0.018 A 
ATOM     22  C   UNL     1       3.400  -7.293  -0.831  0.00  0.00    +0.015 A 
ATOM     23  C   UNL     1       2.349  -6.896  -0.026  0.00  0.00    +0.007 A 
ATOM     24 BR   UNL     1       6.138  -7.518  -1.581  0.00  0.00    -0.050 Br
ENDBRANCH  13  18
BRANCH  14  25
ATOM     25  C   UNL     1       2.102  -7.215   4.049  0.00  0.00    +0.140 C 
BRANCH  25  26
ATOM     26  C   UNL     1       0.805  -7.920   4.451  0.00  0.00    +0.136 C 
ATOM     27  C   UNL     1       1.119  -9.198   5.269  0.00  0.00    +0.035 C 
ATOM     28  C   UNL     1      -0.195  -9.360   6.080  0.00  0.00    +0.031 C 
ATOM     29  C   UNL     1      -0.611  -7.894   6.326  0.00  0.00    +0.160 C 
ATOM     30  O   UNL     1       0.038  -7.086   5.335  0.00  0.00    -0.375 OA
ENDBRANCH  25  26
ENDBRANCH  14  25
TORSDOF 3
