REMARK  Name = ZINC39934464
REMARK  7 active torsions:
REMARK  status: ('A' for Active; 'I' for Inactive)
REMARK    1  A    between atoms: C_3  and  C_6
REMARK    2  A    between atoms: C_10  and  C_14
REMARK    3  A    between atoms: C_14  and  N_15
REMARK    4  A    between atoms: N_18  and  C_21
REMARK    5  A    between atoms: C_21  and  C_22
REMARK    6  A    between atoms: N_24  and  C_25
REMARK    7  A    between atoms: C_25  and  C_26
REMARK                            x       y       z     vdW  Elec       q    Type
REMARK                         _______ _______ _______ _____ _____    ______ ____
ROOT
ATOM      1  N   UNL     1       6.796  -0.059   5.196  0.00  0.00    -0.293 NA
ATOM      2  C   UNL     1       6.409  -1.416   4.785  0.00  0.00    +0.100 C 
ATOM      3  C   UNL     1       5.708  -2.119   5.949  0.00  0.00    +0.100 C 
ATOM      4  N   UNL     1       6.612  -2.160   7.108  0.00  0.00    -0.292 NA
ATOM      5  C   UNL     1       6.999  -0.804   7.519  0.00  0.00    +0.100 C 
ATOM      6  C   UNL     1       7.700  -0.101   6.355  0.00  0.00    +0.100 C 
ENDROOT
BRANCH   1   7
ATOM      7  C   UNL     1       7.406   0.676   4.080  0.00  0.00    +0.158 C 
BRANCH   7  12
ATOM      8  C   UNL     1       3.665   1.643  -0.025  0.00  0.00    -0.009 C 
ATOM      9  C   UNL     1       4.518   1.361   1.034  0.00  0.00    +0.076 C 
ATOM     10  C   UNL     1       5.867   1.797   0.944  0.00  0.00    +0.112 C 
ATOM     11  N   UNL     1       6.725   1.561   1.914  0.00  0.00    -0.226 NA
ATOM     12  C   UNL     1       6.372   0.911   3.009  0.00  0.00    +0.138 C 
ATOM     13  N   UNL     1       5.152   0.462   3.198  0.00  0.00    -0.160 NA
ATOM     14  C   UNL     1       4.186   0.635   2.291  0.00  0.00    +0.272 C 
ATOM     15  O   UNL     1       3.059   0.210   2.488  0.00  0.00    -0.268 OA
ATOM     16  S   UNL     1       5.996   2.619  -0.625  0.00  0.00    -0.100 S 
ATOM     17  C   UNL     1       4.263   2.395  -1.193  0.00  0.00    +0.113 C 
BRANCH   8  20
ATOM     18  C   UNL     1      -0.016   1.358   0.009  0.00  0.00    +0.008 A 
ATOM     19  C   UNL     1       1.168   2.041   0.002  0.00  0.00    +0.016 A 
ATOM     20  C   UNL     1       2.323   1.248  -0.013  0.00  0.00    +0.017 A 
ATOM     21  S   UNL     1       1.635  -0.398  -0.016  0.00  0.00    -0.097 S 
ATOM     22  C   UNL     1       0.002  -0.004   0.002  0.00  0.00    +0.046 A 
ENDBRANCH   8  20
ENDBRANCH   7  12
ENDBRANCH   1   7
BRANCH   4  23
ATOM     23  C   UNL     1       6.002  -2.895   8.224  0.00  0.00    +0.180 C 
BRANCH  23  24
ATOM     24  C   UNL     1       7.036  -3.131   9.295  0.00  0.00    +0.227 C 
ATOM     25  O   UNL     1       8.169  -2.726   9.143  0.00  0.00    -0.274 OA
ATOM     26  N   UNL     1       6.702  -3.791  10.422  0.00  0.00    -0.312 N 
ATOM     27  H   UNL     1       5.795  -4.114  10.543  0.00  0.00    +0.149 HD
BRANCH  26  28
ATOM     28  C   UNL     1       7.707  -4.019  11.462  0.00  0.00    +0.135 C 
BRANCH  28  29
ATOM     29  C   UNL     1       7.072  -4.785  12.625  0.00  0.00    +0.135 C 
ATOM     30  C   UNL     1       8.111  -5.007  13.754  0.00  0.00    +0.035 C 
ATOM     31  C   UNL     1       7.178  -5.165  14.985  0.00  0.00    +0.031 C 
ATOM     32  C   UNL     1       6.018  -4.205  14.643  0.00  0.00    +0.160 C 
ATOM     33  O   UNL     1       6.026  -4.004  13.224  0.00  0.00    -0.375 OA
ENDBRANCH  28  29
ENDBRANCH  26  28
ENDBRANCH  23  24
ENDBRANCH   4  23
TORSDOF 7
