REMARK  Name = ZINC40390194
REMARK  5 active torsions:
REMARK  status: ('A' for Active; 'I' for Inactive)
REMARK    1  A    between atoms: C_8  and  C_17
REMARK    2  A    between atoms: N_9  and  C_10
REMARK    3  A    between atoms: C_10  and  C_11
REMARK    4  A    between atoms: C_17  and  S_18
REMARK    5  A    between atoms: S_18  and  C_19
REMARK                            x       y       z     vdW  Elec       q    Type
REMARK                         _______ _______ _______ _____ _____    ______ ____
ROOT
ATOM      1  C   UNL     1      -0.016   1.362   0.009  0.00  0.00    +0.002 A 
ATOM      2  C   UNL     1       1.167   2.086   0.002  0.00  0.00    +0.002 A 
ATOM      3  C   UNL     1       2.383   1.437  -0.013  0.00  0.00    +0.028 A 
ATOM      4  C   UNL     1       2.422   0.049  -0.021  0.00  0.00    +0.069 A 
ATOM      5  C   UNL     1       1.223  -0.684  -0.013  0.00  0.00    +0.089 A 
ATOM      6  C   UNL     1       0.002  -0.004   0.002  0.00  0.00    +0.030 A 
ATOM      7  N   UNL     1       1.563  -1.998  -0.024  0.00  0.00    -0.231 NA
ATOM      8  C   UNL     1       2.858  -2.115  -0.037  0.00  0.00    +0.121 A 
ATOM      9  N   UNL     1       3.439  -0.885  -0.036  0.00  0.00    -0.324 N 
ENDROOT
BRANCH   9  10
ATOM     10  C   UNL     1       4.876  -0.603  -0.050  0.00  0.00    +0.155 C 
BRANCH  10  11
ATOM     11  C   UNL     1       5.391  -0.512   1.388  0.00  0.00    +0.138 C 
ATOM     12  C   UNL     1       6.878  -0.096   1.387  0.00  0.00    +0.035 C 
ATOM     13  C   UNL     1       7.466  -0.969   2.529  0.00  0.00    +0.031 C 
ATOM     14  C   UNL     1       6.612  -2.254   2.385  0.00  0.00    +0.160 C 
ATOM     15  O   UNL     1       5.300  -1.795   2.019  0.00  0.00    -0.375 OA
ENDBRANCH  10  11
ENDBRANCH   9  10
BRANCH   8  16
ATOM     16  C   UNL     1       3.607  -3.423  -0.051  0.00  0.00    +0.148 C 
BRANCH  16  17
ATOM     17  S   UNL     1       3.891  -3.939  -1.767  0.00  0.00    -0.117 S 
BRANCH  17  18
ATOM     18  C   UNL     1       4.764  -5.462  -1.615  0.00  0.00    +0.008 A 
ATOM     19  C   UNL     1       5.059  -5.973  -0.357  0.00  0.00    +0.016 A 
ATOM     20  C   UNL     1       5.744  -7.167  -0.242  0.00  0.00    +0.021 A 
ATOM     21  C   UNL     1       6.136  -7.854  -1.377  0.00  0.00    +0.041 A 
ATOM     22  C   UNL     1       5.844  -7.347  -2.631  0.00  0.00    +0.021 A 
ATOM     23  C   UNL     1       5.155  -6.157  -2.754  0.00  0.00    +0.016 A 
ATOM     24 CL   UNL     1       6.997  -9.354  -1.228  0.00  0.00    -0.084 Cl
ENDBRANCH  17  18
ENDBRANCH  16  17
ENDBRANCH   8  16
TORSDOF 5
