REMARK  Name = ZINC00674963
REMARK  5 active torsions:
REMARK  status: ('A' for Active; 'I' for Inactive)
REMARK    1  A    between atoms: C_1  and  O_2
REMARK    2  A    between atoms: O_2  and  C_3
REMARK    3  A    between atoms: C_10  and  C_13
REMARK    4  A    between atoms: N_15  and  N_16
REMARK    5  A    between atoms: C_17  and  C_19
REMARK                            x       y       z     vdW  Elec       q    Type
REMARK                         _______ _______ _______ _____ _____    ______ ____
ROOT
ATOM      1  C   UNL     1       5.900   2.676  -0.038  0.00  0.00    +0.268 C 
ATOM      2  O   UNL     1       5.662   3.869  -0.031  0.00  0.00    -0.268 OA
ATOM      3  N   UNL     1       4.888   1.786  -0.034  0.00  0.00    -0.230 N 
ATOM      4  H   UNL     1       5.078   0.835  -0.040  0.00  0.00    +0.173 HD
ENDROOT
BRANCH   1  12
ATOM      5  C   UNL     1      12.016   0.720  -0.103  0.00  0.00    +0.121 A 
ATOM      6  C   UNL     1      12.091   2.113  -0.096  0.00  0.00    +0.046 A 
ATOM      7  C   UNL     1      10.976   2.884  -0.083  0.00  0.00    +0.014 A 
ATOM      8  C   UNL     1       9.684   2.296  -0.075  0.00  0.00    +0.008 A 
ATOM      9  C   UNL     1       9.635   0.881  -0.081  0.00  0.00    +0.025 A 
ATOM     10  C   UNL     1      10.774   0.106  -0.095  0.00  0.00    +0.061 A 
ATOM     11  S   UNL     1       7.895   0.527  -0.068  0.00  0.00    -0.082 S 
ATOM     12  C   UNL     1       7.290   2.205  -0.053  0.00  0.00    +0.095 A 
ATOM     13  C   UNL     1       8.434   2.942  -0.066  0.00  0.00    +0.068 A 
ATOM     14 CL   UNL     1       8.352   4.676  -0.066  0.00  0.00    -0.082 Cl
BRANCH   5  16
ATOM     15  C   UNL     1      14.393   0.678  -0.124  0.00  0.00    +0.277 C 
ATOM     16  O   UNL     1      13.150  -0.028  -0.117  0.00  0.00    -0.495 OA
ENDBRANCH   5  16
ENDBRANCH   1  12
BRANCH   3  17
ATOM     17  N   UNL     1       3.561   2.235  -0.019  0.00  0.00    -0.230 N 
ATOM     18  C   UNL     1       2.548   1.345  -0.014  0.00  0.00    +0.267 C 
ATOM     19  O   UNL     1       2.787   0.152  -0.022  0.00  0.00    -0.268 OA
ATOM     20  H   UNL     1       3.371   3.186  -0.013  0.00  0.00    +0.173 HD
BRANCH  18  21
ATOM     21  C   UNL     1       1.160   1.815   0.001  0.00  0.00    +0.075 A 
ATOM     22  C   UNL     1      -0.013   1.076   0.008  0.00  0.00    +0.021 A 
ATOM     23  C   UNL     1      -1.193   1.776   0.017  0.00  0.00    +0.008 A 
ATOM     24  C   UNL     1      -1.159   3.135   0.029  0.00  0.00    +0.046 A 
ATOM     25  S   UNL     1       0.539   3.487   0.015  0.00  0.00    -0.092 S 
ENDBRANCH  18  21
ENDBRANCH   3  17
TORSDOF 4
