REMARK  Name = ZINC20092756
REMARK  5 active torsions:
REMARK  status: ('A' for Active; 'I' for Inactive)
REMARK    1  A    between atoms: C_3  and  N_31
REMARK    2  A    between atoms: C_6  and  C_7
REMARK    3  A    between atoms: C_7  and  S_8
REMARK    4  A    between atoms: S_8  and  C_9
REMARK    5  A    between atoms: C_14  and  C_24
REMARK                            x       y       z     vdW  Elec       q    Type
REMARK                         _______ _______ _______ _____ _____    ______ ____
ROOT
ATOM      1  C   UNL     1      -7.085   5.164   1.609  0.00  0.00    +0.211 A 
ATOM      2  N   UNL     1      -7.676   5.498   0.453  0.00  0.00    -0.187 NA
ATOM      3  C   UNL     1      -8.794   6.125   0.701  0.00  0.00    +0.219 A 
ATOM      4  N   UNL     1      -8.945   6.202   2.046  0.00  0.00    -0.220 N 
ATOM      5  N   UNL     1      -7.835   5.575   2.609  0.00  0.00    -0.141 NA
ATOM      6  C   UNL     1     -10.091   6.833   2.689  0.00  0.00    +0.175 C 
ATOM      7  C   UNL     1     -10.863   7.656   1.682  0.00  0.00    +0.041 C 
ATOM      8  C   UNL     1     -10.659   7.538   0.352  0.00  0.00    +0.020 C 
ATOM      9  N   UNL     1      -9.732   6.664  -0.164  0.00  0.00    -0.287 N 
ATOM     10  C   UNL     1     -11.445   8.374  -0.631  0.00  0.00    +0.052 C 
ATOM     11  C   UNL     1     -12.832   8.674  -0.059  0.00  0.00    +0.014 C 
ATOM     12  C   UNL     1     -12.655   9.407   1.275  0.00  0.00    +0.080 C 
ATOM     13  C   UNL     1     -11.814   8.560   2.189  0.00  0.00    +0.163 C 
ATOM     14  O   UNL     1     -11.959   8.658   3.391  0.00  0.00    -0.292 OA
ATOM     15  H   UNL     1      -9.720   6.390  -1.229  0.00  0.00    +0.155 HD
ENDROOT
BRANCH   6  16
ATOM     16  C   UNL     1     -10.992   5.769   3.261  0.00  0.00    -0.018 A 
ATOM     17  C   UNL     1     -11.560   4.823   2.427  0.00  0.00    +0.007 A 
ATOM     18  C   UNL     1     -12.382   3.844   2.952  0.00  0.00    +0.015 A 
ATOM     19  C   UNL     1     -12.646   3.817   4.309  0.00  0.00    +0.018 A 
ATOM     20  C   UNL     1     -12.082   4.766   5.142  0.00  0.00    +0.015 A 
ATOM     21  C   UNL     1     -11.255   5.741   4.618  0.00  0.00    +0.007 A 
ATOM     22 BR   UNL     1     -13.777   2.481   5.026  0.00  0.00    -0.050 Br
ENDBRANCH   6  16
BRANCH   1  23
ATOM     23  S   UNL     1      -5.553   4.307   1.764  0.00  0.00    -0.080 S 
BRANCH  23  24
ATOM     24  C   UNL     1      -5.034   4.022   0.050  0.00  0.00    +0.112 C 
BRANCH  24  30
ATOM     25  C   UNL     1      -3.700   1.904   0.030  0.00  0.00    +0.007 A 
ATOM     26  C   UNL     1      -2.494   1.229   0.021  0.00  0.00    +0.033 A 
ATOM     27  C   UNL     1      -1.306   1.936   0.019  0.00  0.00    +0.126 A 
ATOM     28  C   UNL     1      -1.325   3.319   0.032  0.00  0.00    +0.033 A 
ATOM     29  C   UNL     1      -2.531   3.993   0.037  0.00  0.00    +0.007 A 
ATOM     30  C   UNL     1      -3.719   3.286   0.038  0.00  0.00    -0.037 A 
BRANCH  27  31
ATOM     31  N   UNL     1      -0.014   1.214   0.009  0.00  0.00    +0.056 N 
ATOM     32  O   UNL     1       0.002  -0.004   0.002  0.00  0.00    -0.126 OA
ATOM     33  O   UNL     1       1.032   1.837   0.002  0.00  0.00    -0.126 OA
ENDBRANCH  27  31
ENDBRANCH  24  30
ENDBRANCH  23  24
ENDBRANCH   1  23
TORSDOF 5
