REMARK  Name = ZINC02953760
REMARK  7 active torsions:
REMARK  status: ('A' for Active; 'I' for Inactive)
REMARK    1  A    between atoms: C_1  and  C_2
REMARK    2  A    between atoms: C_2  and  C_4
REMARK    3  A    between atoms: C_2  and  N_9
REMARK    4  A    between atoms: N_9  and  C_10
REMARK    5  A    between atoms: N_9  and  C_16
REMARK    6  A    between atoms: C_16  and  N_18
REMARK    7  A    between atoms: N_18  and  C_19
REMARK                            x       y       z     vdW  Elec       q    Type
REMARK                         _______ _______ _______ _____ _____    ______ ____
ROOT
ATOM      1  N   UNL     1       4.588   3.680  -0.107  0.00  0.00    -0.302 N 
ENDROOT
BRANCH   1   2
ATOM      2  C   UNL     1       4.200   4.778   0.782  0.00  0.00    +0.076 C 
ATOM      3  C   UNL     1       3.530   4.207   2.034  0.00  0.00    +0.022 C 
ATOM      4  C   UNL     1       3.124   5.353   2.963  0.00  0.00    +0.002 C 
ATOM      5  C   UNL     1       2.144   6.276   2.236  0.00  0.00    +0.000 C 
ATOM      6  C   UNL     1       2.814   6.847   0.985  0.00  0.00    +0.002 C 
ATOM      7  C   UNL     1       3.220   5.701   0.056  0.00  0.00    +0.022 C 
ENDBRANCH   1   2
BRANCH   1   9
ATOM      8  C   UNL     1       5.905   3.196  -2.110  0.00  0.00    +0.034 C 
ATOM      9  C   UNL     1       5.951   3.617  -0.640  0.00  0.00    +0.109 C 
BRANCH   9  10
ATOM     10  C   UNL     1       6.751   2.610   0.146  0.00  0.00    +0.010 A 
ATOM     11  C   UNL     1       8.084   2.582   0.390  0.00  0.00    +0.013 A 
ATOM     12  C   UNL     1       8.605   1.550   1.149  0.00  0.00    +0.008 A 
ATOM     13  C   UNL     1       7.769   0.592   1.617  0.00  0.00    +0.045 A 
ATOM     14  S   UNL     1       6.190   1.141   0.990  0.00  0.00    -0.100 S 
ENDBRANCH   9  10
ENDBRANCH   1   9
BRANCH   1  15
ATOM     15  C   UNL     1       3.691   2.729  -0.435  0.00  0.00    +0.138 C 
ATOM     16  S   UNL     1       2.061   2.881   0.065  0.00  0.00    -0.018 S 
BRANCH  15  17
ATOM     17  N   UNL     1       4.077   1.659  -1.158  0.00  0.00    -0.297 N 
ATOM     18  H   UNL     1       5.021   1.489  -1.305  0.00  0.00    +0.154 HD
BRANCH  17  19
ATOM     19  C   UNL     1       3.117   0.794  -1.695  0.00  0.00    +0.034 A 
ATOM     20  C   UNL     1       1.878   0.662  -1.081  0.00  0.00    +0.026 A 
ATOM     21  C   UNL     1       0.932  -0.192  -1.612  0.00  0.00    +0.041 A 
ATOM     22  C   UNL     1       1.217  -0.917  -2.756  0.00  0.00    +0.142 A 
ATOM     23  C   UNL     1       2.452  -0.788  -3.371  0.00  0.00    +0.078 A 
ATOM     24  C   UNL     1       3.402   0.066  -2.842  0.00  0.00    +0.046 A 
ATOM     25 CL   UNL     1       2.807  -1.699  -4.806  0.00  0.00    -0.081 Cl
ATOM     26  F   UNL     1       0.290  -1.752  -3.275  0.00  0.00    -0.204 F 
ENDBRANCH  17  19
ENDBRANCH  15  17
ENDBRANCH   1  15
TORSDOF 6
