REMARK  Name = ZINC15956808
REMARK  13 active torsions:
REMARK  status: ('A' for Active; 'I' for Inactive)
REMARK    1  A    between atoms: C_1  and  C_2
REMARK    2  A    between atoms: C_2  and  C_4
REMARK    3  A    between atoms: C_4  and  O_38
REMARK    4  A    between atoms: C_9  and  C_37
REMARK    5  A    between atoms: N_21  and  O_22
REMARK    6  A    between atoms: O_22  and  C_23
REMARK    7  A    between atoms: C_23  and  C_24
REMARK    8  A    between atoms: N_26  and  C_27
REMARK    9  A    between atoms: C_27  and  C_28
REMARK   10  A    between atoms: C_28  and  C_29
REMARK   11  A    between atoms: C_29  and  C_30
REMARK   12  A    between atoms: C_30  and  C_31
REMARK   13  A    between atoms: C_35  and  C_36
REMARK                            x       y       z     vdW  Elec       q    Type
REMARK                         _______ _______ _______ _____ _____    ______ ____
ROOT
ATOM      1  C   UNL     1       5.927   5.207   0.922  0.00  0.00    +0.129 C 
ATOM      2  C   UNL     1       4.930   6.391   0.854  0.00  0.00    +0.043 C 
ATOM      3  C   UNL     1       3.785   5.951  -0.098  0.00  0.00    +0.008 C 
ATOM      4  C   UNL     1       3.903   4.420  -0.082  0.00  0.00    +0.002 C 
ATOM      5  C   UNL     1       5.436   4.221  -0.145  0.00  0.00    +0.007 C 
ATOM      6  C   UNL     1       5.740   2.763   0.108  0.00  0.00    +0.010 C 
ATOM      7  C   UNL     1       5.018   1.881  -0.909  0.00  0.00    +0.005 C 
ATOM      8  C   UNL     1       3.540   2.188  -1.118  0.00  0.00    +0.002 C 
ATOM      9  C   UNL     1       3.256   3.678  -1.221  0.00  0.00    -0.003 C 
ATOM     10  C   UNL     1       1.767   3.991  -1.330  0.00  0.00    +0.008 C 
ATOM     11  C   UNL     1       1.022   3.408  -0.129  0.00  0.00    +0.031 C 
ATOM     12  C   UNL     1       1.244   1.906  -0.158  0.00  0.00    -0.062 C 
ATOM     13  C   UNL     1       0.170   1.128  -0.181  0.00  0.00    +0.026 C 
ATOM     14  C   UNL     1       0.309  -0.338  -0.241  0.00  0.00    +0.080 C 
ATOM     15  N   UNL     1      -0.672  -1.101  -0.606  0.00  0.00    -0.089 NA
ATOM     16  C   UNL     1       1.659  -0.904   0.152  0.00  0.00    +0.059 C 
ATOM     17  C   UNL     1       2.726  -0.078  -0.565  0.00  0.00    +0.017 C 
ATOM     18  C   UNL     1       2.654   1.398  -0.168  0.00  0.00    -0.007 C 
ATOM     19  C   UNL     1       3.172   1.486   1.267  0.00  0.00    +0.016 C 
ATOM     20  C   UNL     1       6.016   4.651  -1.492  0.00  0.00    +0.015 C 
ENDROOT
BRANCH   1  22
ATOM     21  C   UNL     1       8.510   4.852   1.015  0.00  0.00    +0.089 C 
ATOM     22  C   UNL     1       7.320   5.674   0.592  0.00  0.00    +0.162 C 
ATOM     23  O   UNL     1       7.483   6.707  -0.012  0.00  0.00    -0.295 OA
ENDBRANCH   1  22
BRANCH   1  24
ATOM     24  O   UNL     1       5.894   4.599   2.211  0.00  0.00    -0.381 OA
ATOM     25  H   UNL     1       6.194   5.176   2.926  0.00  0.00    +0.211 HD
ENDBRANCH   1  24
BRANCH  15  26
ATOM     26  O   UNL     1      -0.497  -2.506  -0.650  0.00  0.00    -0.384 OA
BRANCH  26  27
ATOM     27  C   UNL     1      -1.660  -3.223  -1.069  0.00  0.00    +0.358 C 
BRANCH  27  28
ATOM     28  C   UNL     1      -1.362  -4.700  -1.079  0.00  0.00    +0.253 C 
ATOM     29  O   UNL     1      -0.263  -5.100  -0.759  0.00  0.00    -0.272 OA
ATOM     30  N   UNL     1      -2.318  -5.578  -1.444  0.00  0.00    -0.312 N 
ATOM     31  H   UNL     1      -3.197  -5.259  -1.700  0.00  0.00    +0.149 HD
BRANCH  30  32
ATOM     32  C   UNL     1      -2.029  -7.014  -1.454  0.00  0.00    +0.104 C 
BRANCH  32  33
ATOM     33  C   UNL     1      -3.273  -7.782  -1.902  0.00  0.00    +0.019 C 
BRANCH  33  34
ATOM     34  C   UNL     1      -2.971  -9.282  -1.913  0.00  0.00    +0.013 C 
BRANCH  34  35
ATOM     35  C   UNL     1      -4.216 -10.050  -2.361  0.00  0.00    +0.125 C 
BRANCH  35  36
ATOM     36  C   UNL     1      -3.918 -11.527  -2.371  0.00  0.00    +0.356 C 
ATOM     37  O   UNL     1      -2.823 -11.925  -2.053  0.00  0.00    -0.246 OA
ATOM     38  O   UNL     1      -4.870 -12.402  -2.735  0.00  0.00    -0.246 OA
ENDBRANCH  35  36
ENDBRANCH  34  35
ENDBRANCH  33  34
ENDBRANCH  32  33
ENDBRANCH  30  32
ENDBRANCH  27  28
ENDBRANCH  26  27
ENDBRANCH  15  26
TORSDOF 10
