REMARK  Name = ZINC41077750
REMARK  10 active torsions:
REMARK  status: ('A' for Active; 'I' for Inactive)
REMARK    1  A    between atoms: C_1  and  C_2
REMARK    2  A    between atoms: C_6  and  C_34
REMARK    3  A    between atoms: C_7  and  O_8
REMARK    4  A    between atoms: O_8  and  C_9
REMARK    5  A    between atoms: C_9  and  C_10
REMARK    6  A    between atoms: C_10  and  O_11
REMARK    7  A    between atoms: O_11  and  C_12
REMARK    8  A    between atoms: C_15  and  C_18
REMARK    9  A    between atoms: C_28  and  S_30
REMARK   10  A    between atoms: S_30  and  C_33
REMARK                            x       y       z     vdW  Elec       q    Type
REMARK                         _______ _______ _______ _____ _____    ______ ____
ROOT
ATOM      1  C   UNL     1      -0.663   3.755   4.805  0.00  0.00    +0.121 A 
ATOM      2  C   UNL     1      -0.787   3.066   6.008  0.00  0.00    +0.046 A 
ATOM      3  C   UNL     1      -0.382   3.648   7.176  0.00  0.00    +0.011 A 
ATOM      4  C   UNL     1       0.159   4.941   7.161  0.00  0.00    -0.024 A 
ATOM      5  C   UNL     1       0.281   5.630   5.945  0.00  0.00    +0.011 A 
ATOM      6  C   UNL     1      -0.122   5.036   4.783  0.00  0.00    +0.046 A 
ENDROOT
BRANCH   4   7
ATOM      7  C   UNL     1       0.595   5.571   8.409  0.00  0.00    +0.024 C 
ATOM      8  C   UNL     1       1.712   6.375   8.422  0.00  0.00    +0.081 C 
ATOM      9  C   UNL     1       2.087   7.179   9.620  0.00  0.00    +0.153 C 
ATOM     10  N   UNL     1       1.862   6.788  10.845  0.00  0.00    -0.283 NA
ATOM     11  N   UNL     1       2.711   8.404   9.299  0.00  0.00    -0.150 N 
ATOM     12  C   UNL     1       3.331   8.500   8.072  0.00  0.00    +0.182 C 
ATOM     13  N   UNL     1       3.335   7.614   7.107  0.00  0.00    -0.152 NA
ATOM     14  C   UNL     1       2.610   6.484   7.246  0.00  0.00    +0.273 C 
ATOM     15  O   UNL     1       2.687   5.581   6.428  0.00  0.00    -0.268 OA
ATOM     16  S   UNL     1       4.072  10.109   8.155  0.00  0.00    -0.015 S 
ATOM     17  C   UNL     1       3.429  10.580   9.755  0.00  0.00    +0.235 C 
ATOM     18  N   UNL     1       2.767   9.517  10.111  0.00  0.00    -0.145 NA
ATOM     19  H   UNL     1       2.127   7.350  11.590  0.00  0.00    +0.188 HD
BRANCH  17  20
ATOM     20  S   UNL     1       3.639  12.096  10.629  0.00  0.00    +0.019 S 
ATOM     21  O   UNL     1       3.757  13.085   9.616  0.00  0.00    -0.168 OA
ATOM     22  O   UNL     1       2.563  12.132  11.556  0.00  0.00    -0.168 OA
ATOM     23  C   UNL     1       5.215  11.912  11.509  0.00  0.00    +0.202 C 
ENDBRANCH  17  20
ENDBRANCH   4   7
BRANCH   1  24
ATOM     24  O   UNL     1      -1.068   3.172   3.648  0.00  0.00    -0.489 OA
BRANCH  24  25
ATOM     25  C   UNL     1      -1.615   1.855   3.742  0.00  0.00    +0.270 C 
BRANCH  25  26
ATOM     26  C   UNL     1      -2.011   1.367   2.347  0.00  0.00    +0.270 C 
BRANCH  26  27
ATOM     27  O   UNL     1      -0.840   1.234   1.539  0.00  0.00    -0.488 OA
BRANCH  27  34
ATOM     28  C   UNL     1      -1.264   3.200  -0.445  0.00  0.00    +0.047 C 
ATOM     29  C   UNL     1      -1.230   1.726  -0.756  0.00  0.00    -0.009 A 
ATOM     30  C   UNL     1      -1.404   1.290  -2.055  0.00  0.00    +0.007 A 
ATOM     31  C   UNL     1      -1.373  -0.062  -2.341  0.00  0.00    +0.001 A 
ATOM     32  C   UNL     1      -1.167  -0.981  -1.329  0.00  0.00    +0.007 A 
ATOM     33  C   UNL     1      -0.992  -0.550  -0.028  0.00  0.00    -0.009 A 
ATOM     34  C   UNL     1      -1.018   0.807   0.261  0.00  0.00    +0.126 A 
ATOM     35  C   UNL     1      -0.768  -1.552   1.075  0.00  0.00    +0.047 C 
ENDBRANCH  27  34
ENDBRANCH  26  27
ENDBRANCH  25  26
ENDBRANCH  24  25
ENDBRANCH   1  24
TORSDOF 7
