REMARK  Name = ZINC55617534
REMARK  6 active torsions:
REMARK  status: ('A' for Active; 'I' for Inactive)
REMARK    1  A    between atoms: C_1  and  C_2
REMARK    2  A    between atoms: C_2  and  C_4
REMARK    3  A    between atoms: C_2  and  N_15
REMARK    4  A    between atoms: N_15  and  C_16
REMARK    5  A    between atoms: C_19  and  O_23
REMARK    6  A    between atoms: O_23  and  C_24
REMARK                            x       y       z     vdW  Elec       q    Type
REMARK                         _______ _______ _______ _____ _____    ______ ____
ROOT
ATOM      1  C   UNL     1      -0.015   1.522   0.018  0.00  0.00    +0.038 C 
ATOM      2  C   UNL     1       0.002  -0.008   0.003  0.00  0.00    +0.154 C 
ENDROOT
BRANCH   2   3
ATOM      3  C   UNL     1       0.597  -0.491  -1.294  0.00  0.00    +0.236 C 
ATOM      4  O   UNL     1      -0.127  -0.781  -2.223  0.00  0.00    -0.274 OA
ATOM      5  N   UNL     1       1.934  -0.601  -1.423  0.00  0.00    -0.295 N 
ATOM      6  C   UNL     1       2.531  -0.964  -2.716  0.00  0.00    +0.113 C 
ATOM      7  C   UNL     1       3.368   0.226  -3.212  0.00  0.00    +0.061 C 
ATOM      8  C   UNL     1       4.149   0.774  -2.062  0.00  0.00    -0.004 A 
ATOM      9  C   UNL     1       3.947   0.555  -0.734  0.00  0.00    -0.020 A 
ATOM     10  C   UNL     1       4.818   1.197   0.145  0.00  0.00    +0.013 A 
ATOM     11  C   UNL     1       5.806   1.986  -0.337  0.00  0.00    +0.046 A 
ATOM     12  S   UNL     1       5.550   1.861  -2.100  0.00  0.00    -0.101 S 
ATOM     13  C   UNL     1       2.816  -0.354  -0.274  0.00  0.00    +0.143 C 
ENDBRANCH   2   3
BRANCH   2  14
ATOM     14  N   UNL     1      -1.367  -0.513   0.131  0.00  0.00    -0.333 N 
ATOM     15  H   UNL     1      -1.876  -0.741  -0.663  0.00  0.00    +0.147 HD
BRANCH  14  16
ATOM     16  C   UNL     1      -1.942  -0.665   1.397  0.00  0.00    +0.029 A 
ATOM     17  C   UNL     1      -1.217  -0.332   2.534  0.00  0.00    +0.026 A 
ATOM     18  C   UNL     1      -1.785  -0.481   3.784  0.00  0.00    +0.049 A 
ATOM     19  C   UNL     1      -3.079  -0.965   3.905  0.00  0.00    +0.138 A 
ATOM     20  C   UNL     1      -3.805  -1.298   2.770  0.00  0.00    +0.084 A 
ATOM     21  C   UNL     1      -3.240  -1.143   1.518  0.00  0.00    +0.046 A 
ATOM     22 CL   UNL     1      -5.425  -1.903   2.923  0.00  0.00    -0.080 Cl
BRANCH  19  23
ATOM     23  O   UNL     1      -3.637  -1.112   5.137  0.00  0.00    -0.494 OA
ATOM     24  C   UNL     1      -2.832  -0.751   6.261  0.00  0.00    +0.277 C 
ENDBRANCH  19  23
ENDBRANCH  14  16
ENDBRANCH   2  14
TORSDOF 4
