REMARK  Name = ZINC12691524
REMARK  8 active torsions:
REMARK  status: ('A' for Active; 'I' for Inactive)
REMARK    1  A    between atoms: C_1  and  C_2
REMARK    2  A    between atoms: C_7  and  C_8
REMARK    3  A    between atoms: C_8  and  C_9
REMARK    4  A    between atoms: C_8  and  C_10
REMARK    5  A    between atoms: C_11  and  C_16
REMARK    6  A    between atoms: C_16  and  O_17
REMARK    7  A    between atoms: O_17  and  C_18
REMARK    8  A    between atoms: C_18  and  C_20
REMARK                            x       y       z     vdW  Elec       q    Type
REMARK                         _______ _______ _______ _____ _____    ______ ____
ROOT
ATOM      1  C   UNL     1      -7.897   2.986  -6.830  0.00  0.00    +0.044 C 
ATOM      2  C   UNL     1      -6.885   2.663  -5.761  0.00  0.00    -0.044 A 
ATOM      3  C   UNL     1      -7.248   1.864  -4.696  0.00  0.00    +0.050 A 
ATOM      4  C   UNL     1      -6.322   1.567  -3.705  0.00  0.00    +0.140 A 
ATOM      5  C   UNL     1      -5.016   2.078  -3.804  0.00  0.00    +0.024 A 
ATOM      6  C   UNL     1      -4.660   2.877  -4.894  0.00  0.00    +0.016 A 
ATOM      7  C   UNL     1      -5.595   3.163  -5.863  0.00  0.00    -0.041 A 
ATOM      8  C   UNL     1      -4.045   1.754  -2.755  0.00  0.00    +0.007 A 
ATOM      9  C   UNL     1      -4.454   0.979  -1.719  0.00  0.00    +0.099 A 
ATOM     10  C   UNL     1      -5.783   0.505  -1.681  0.00  0.00    +0.338 A 
ATOM     11  O   UNL     1      -6.138  -0.191  -0.747  0.00  0.00    -0.245 OA
ATOM     12  O   UNL     1      -6.666   0.801  -2.648  0.00  0.00    -0.422 OA
ENDROOT
BRANCH   7  13
ATOM     13  C   UNL     1      -5.216   4.024  -7.040  0.00  0.00    +0.013 C 
ATOM     14  C   UNL     1      -4.655   5.356  -6.539  0.00  0.00    +0.012 C 
ATOM     15  C   UNL     1      -4.155   3.305  -7.876  0.00  0.00    +0.012 C 
ENDBRANCH   7  13
BRANCH   8  16
ATOM     16  C   UNL     1      -2.631   2.274  -2.821  0.00  0.00    +0.268 C 
BRANCH  16  17
ATOM     17  O   UNL     1      -1.891   1.811  -1.661  0.00  0.00    -0.460 OA
BRANCH  17  18
ATOM     18  C   UNL     1      -0.606   2.189  -1.568  0.00  0.00    +0.312 C 
ATOM     19  O   UNL     1      -0.117   2.883  -2.427  0.00  0.00    -0.250 OA
BRANCH  18  20
ATOM     20  C   UNL     1       0.226   1.747  -0.392  0.00  0.00    +0.115 C 
ATOM     21  C   UNL     1       1.644   2.307  -0.530  0.00  0.00    +0.018 C 
ATOM     22  C   UNL     1       2.480   1.886   0.680  0.00  0.00    +0.020 C 
ATOM     23  C   UNL     1       2.567   0.357   0.730  0.00  0.00    +0.109 C 
ATOM     24  N   UNL     1       1.205  -0.194   0.716  0.00  0.00    -0.285 N 
ATOM     25  C   UNL     1       0.287   0.217  -0.355  0.00  0.00    +0.124 C 
ATOM     26  C   UNL     1       0.806  -1.060   1.668  0.00  0.00    +0.300 C 
ATOM     27  O   UNL     1       1.601  -1.465   2.495  0.00  0.00    -0.253 OA
ATOM     28  N   UNL     1      -0.475  -1.478   1.704  0.00  0.00    -0.313 N 
ATOM     29  H   UNL     1      -1.091  -1.216   1.002  0.00  0.00    +0.146 HD
ATOM     30  H   UNL     1      -0.781  -2.041   2.433  0.00  0.00    +0.146 HD
ENDBRANCH  18  20
ENDBRANCH  17  18
ENDBRANCH  16  17
ENDBRANCH   8  16
TORSDOF 5
