REMARK  Name = ZINC21327455
REMARK  6 active torsions:
REMARK  status: ('A' for Active; 'I' for Inactive)
REMARK    1  A    between atoms: C_5  and  N_7
REMARK    2  A    between atoms: C_8  and  C_10
REMARK    3  A    between atoms: C_10  and  S_11
REMARK    4  A    between atoms: S_11  and  C_12
REMARK    5  A    between atoms: N_16  and  N_17
REMARK    6  A    between atoms: N_18  and  N_19
REMARK                            x       y       z     vdW  Elec       q    Type
REMARK                         _______ _______ _______ _____ _____    ______ ____
ROOT
ATOM      1  C   UNL     1      -2.072   1.795  -1.017  0.00  0.00    +0.210 A 
ATOM      2  N   UNL     1      -2.402   2.248  -2.203  0.00  0.00    -0.119 NA
ATOM      3  N   UNL     1      -1.245   2.278  -2.993  0.00  0.00    -0.109 NA
ATOM      4  C   UNL     1      -0.245   1.848  -2.263  0.00  0.00    +0.254 A 
ATOM      5  N   UNL     1      -0.731   1.533  -1.024  0.00  0.00    -0.211 N 
ATOM      6  N   UNL     1       1.075   1.730  -2.675  0.00  0.00    -0.204 N 
ATOM      7  H   UNL     1       1.837   1.352  -1.978  0.00  0.00    +0.177 HD
ENDROOT
BRANCH   6   8
ATOM      8  N   UNL     1       1.436   2.091  -3.980  0.00  0.00    -0.189 NA
ATOM      9  C   UNL     1       2.653   1.981  -4.361  0.00  0.00    +0.037 C 
ATOM     10  C   UNL     1       3.815   1.488  -3.523  0.00  0.00    +0.052 C 
ATOM     11  C   UNL     1       5.069   1.546  -4.420  0.00  0.00    +0.006 C 
ATOM     12  C   UNL     1       4.705   2.607  -5.490  0.00  0.00    +0.006 C 
ATOM     13  C   UNL     1       3.201   2.329  -5.734  0.00  0.00    +0.052 C 
ENDBRANCH   6   8
BRANCH   5  14
ATOM     14  N   UNL     1      -0.003   1.046   0.024  0.00  0.00    -0.294 N 
ATOM     15  H   UNL     1       1.077   0.871  -0.091  0.00  0.00    +0.163 HD
ATOM     16  H   UNL     1      -0.496   0.831   0.983  0.00  0.00    +0.163 HD
ENDBRANCH   5  14
BRANCH   1  17
ATOM     17  S   UNL     1      -3.165   1.566   0.345  0.00  0.00    -0.075 S 
BRANCH  17  18
ATOM     18  C   UNL     1      -4.779   2.094  -0.293  0.00  0.00    +0.173 C 
BRANCH  18  20
ATOM     19  N   UNL     1      -7.101   2.280   0.538  0.00  0.00    -0.284 N 
ATOM     20  C   UNL     1      -5.819   1.946   0.787  0.00  0.00    +0.228 C 
ATOM     21  O   UNL     1      -5.503   1.526   1.880  0.00  0.00    -0.275 OA
ATOM     22  H   UNL     1      -7.375   2.730  -0.428  0.00  0.00    +0.155 HD
BRANCH  19  27
ATOM     23  C   UNL     1      -8.749   1.976   3.812  0.00  0.00    +0.002 A 
ATOM     24  C   UNL     1     -10.027   1.612   3.430  0.00  0.00    +0.002 A 
ATOM     25  C   UNL     1     -10.337   1.469   2.090  0.00  0.00    +0.022 A 
ATOM     26  C   UNL     1      -9.369   1.690   1.128  0.00  0.00    +0.062 A 
ATOM     27  C   UNL     1      -8.084   2.056   1.509  0.00  0.00    +0.052 A 
ATOM     28  C   UNL     1      -7.776   2.193   2.856  0.00  0.00    +0.025 A 
ATOM     29 CL   UNL     1      -9.758   1.510  -0.554  0.00  0.00    -0.082 Cl
ENDBRANCH  19  27
ENDBRANCH  18  20
ENDBRANCH  17  18
ENDBRANCH   1  17
TORSDOF 6
