REMARK  Name = ZINC39914302
REMARK  9 active torsions:
REMARK  status: ('A' for Active; 'I' for Inactive)
REMARK    1  A    between atoms: C_1  and  C_2
REMARK    2  A    between atoms: C_2  and  C_3
REMARK    3  A    between atoms: C_3  and  C_4
REMARK    4  A    between atoms: C_4  and  N_5
REMARK    5  A    between atoms: C_6  and  C_25
REMARK    6  A    between atoms: C_9  and  C_16
REMARK    7  A    between atoms: C_19  and  C_23
REMARK    8  A    between atoms: C_21  and  O_22
REMARK    9  A    between atoms: C_28  and  C_31
REMARK                            x       y       z     vdW  Elec       q    Type
REMARK                         _______ _______ _______ _____ _____    ______ ____
ROOT
ATOM      1  N   UNL     1      -2.787  -2.571   0.015  0.00  0.00    -0.285 N 
ATOM      2  C   UNL     1      -3.585  -2.869   1.211  0.00  0.00    +0.141 C 
ATOM      3  C   UNL     1      -4.917  -3.359   0.712  0.00  0.00    +0.035 A 
ATOM      4  C   UNL     1      -6.194  -3.831   1.031  0.00  0.00    +0.102 A 
ATOM      5  N   UNL     1      -6.825  -4.060  -0.105  0.00  0.00    -0.173 NA
ATOM      6  N   UNL     1      -6.072  -3.779  -1.108  0.00  0.00    -0.272 N 
ATOM      7  H   UNL     1      -6.328  -3.869  -2.039  0.00  0.00    +0.189 HD
ATOM      8  C   UNL     1      -4.858  -3.332  -0.668  0.00  0.00    +0.126 A 
ATOM      9  C   UNL     1      -3.537  -2.837  -1.070  0.00  0.00    +0.265 C 
ATOM     10  O   UNL     1      -3.170  -2.691  -2.220  0.00  0.00    -0.268 OA
ENDROOT
BRANCH   4  11
ATOM     11  C   UNL     1      -6.740  -4.038   2.395  0.00  0.00    +0.045 A 
ATOM     12  C   UNL     1      -5.959  -3.748   3.512  0.00  0.00    +0.034 A 
ATOM     13  C   UNL     1      -6.471  -3.942   4.780  0.00  0.00    +0.045 A 
ATOM     14  C   UNL     1      -7.759  -4.423   4.945  0.00  0.00    -0.029 A 
ATOM     15  C   UNL     1      -8.541  -4.714   3.843  0.00  0.00    +0.050 A 
ATOM     16  C   UNL     1      -8.041  -4.519   2.566  0.00  0.00    +0.126 A 
ATOM     17  C   UNL     1      -8.309  -4.633   6.332  0.00  0.00    +0.045 C 
ATOM     18 CL   UNL     1      -5.497  -3.580   6.171  0.00  0.00    -0.083 Cl
BRANCH  16  19
ATOM     19  O   UNL     1      -8.811  -4.798   1.482  0.00  0.00    -0.506 OA
ATOM     20  H   UNL     1      -8.729  -5.708   1.165  0.00  0.00    +0.292 HD
ENDBRANCH  16  19
ENDBRANCH   4  11
BRANCH   2  21
ATOM     21  C   UNL     1      -2.911  -3.940   2.030  0.00  0.00    -0.022 A 
ATOM     22  C   UNL     1      -2.300  -5.009   1.402  0.00  0.00    +0.006 A 
ATOM     23  C   UNL     1      -1.681  -5.991   2.153  0.00  0.00    +0.004 A 
ATOM     24  C   UNL     1      -1.674  -5.904   3.533  0.00  0.00    -0.050 A 
ATOM     25  C   UNL     1      -2.284  -4.834   4.161  0.00  0.00    +0.004 A 
ATOM     26  C   UNL     1      -2.899  -3.850   3.409  0.00  0.00    +0.006 A 
ATOM     27  C   UNL     1      -1.001  -6.975   4.351  0.00  0.00    +0.044 C 
ENDBRANCH   2  21
BRANCH   1  28
ATOM     28  C   UNL     1      -1.413  -2.063   0.004  0.00  0.00    +0.109 C 
BRANCH  28  29
ATOM     29  C   UNL     1      -1.433  -0.534   0.013  0.00  0.00    +0.019 C 
BRANCH  29  31
ATOM     30  C   UNL     1      -0.019   1.526   0.010  0.00  0.00    +0.004 C 
ATOM     31  C   UNL     1       0.002  -0.004   0.002  0.00  0.00    -0.002 C 
ENDBRANCH  29  31
ENDBRANCH  28  29
ENDBRANCH   1  28
TORSDOF 6
