REMARK  Name = ZINC36540281
REMARK  12 active torsions:
REMARK  status: ('A' for Active; 'I' for Inactive)
REMARK    1  A    between atoms: C_1  and  C_2
REMARK    2  A    between atoms: C_2  and  C_3
REMARK    3  A    between atoms: C_3  and  C_4
REMARK    4  A    between atoms: C_4  and  C_5
REMARK    5  A    between atoms: N_7  and  C_8
REMARK    6  A    between atoms: N_7  and  C_9
REMARK    7  A    between atoms: C_9  and  C_11
REMARK    8  A    between atoms: C_9  and  C_20
REMARK    9  A    between atoms: C_12  and  O_19
REMARK   10  A    between atoms: C_14  and  O_18
REMARK   11  A    between atoms: C_16  and  O_17
REMARK   12  A    between atoms: N_22  and  C_23
REMARK                            x       y       z     vdW  Elec       q    Type
REMARK                         _______ _______ _______ _____ _____    ______ ____
ROOT
ATOM      1  C   UNL     1       2.275  -4.570   4.199  0.00  0.00    +0.199 C 
ENDROOT
BRANCH   1   2
ATOM      2  C   UNL     1       1.131  -5.542   4.321  0.00  0.00    +0.065 A 
ATOM      3  C   UNL     1       1.377  -6.907   4.315  0.00  0.00    +0.129 A 
ATOM      4  C   UNL     1       0.323  -7.802   4.427  0.00  0.00    +0.091 A 
ATOM      5  C   UNL     1      -0.976  -7.332   4.546  0.00  0.00    +0.124 A 
ATOM      6  C   UNL     1      -1.222  -5.968   4.553  0.00  0.00    +0.091 A 
ATOM      7  C   UNL     1      -0.168  -5.072   4.445  0.00  0.00    +0.129 A 
BRANCH   7   8
ATOM      8  O   UNL     1      -0.409  -3.735   4.457  0.00  0.00    -0.506 OA
ATOM      9  H   UNL     1      -0.565  -3.356   3.581  0.00  0.00    +0.292 HD
ENDBRANCH   7   8
BRANCH   5  10
ATOM     10  O   UNL     1      -2.008  -8.209   4.655  0.00  0.00    -0.507 OA
ATOM     11  H   UNL     1      -2.223  -8.453   5.566  0.00  0.00    +0.292 HD
ENDBRANCH   5  10
BRANCH   3  12
ATOM     12  O   UNL     1       2.650  -7.367   4.198  0.00  0.00    -0.506 OA
ATOM     13  H   UNL     1       3.113  -7.463   5.042  0.00  0.00    +0.292 HD
ENDBRANCH   3  12
ENDBRANCH   1   2
BRANCH   1  16
ATOM     14  C   UNL     1       1.982  -2.199   3.717  0.00  0.00    +0.216 C 
ATOM     15  O   UNL     1       2.376  -1.953   4.837  0.00  0.00    -0.276 OA
ATOM     16  N   UNL     1       1.895  -3.478   3.300  0.00  0.00    -0.289 N 
ATOM     17  C   UNL     1       1.419  -3.776   1.946  0.00  0.00    +0.133 C 
BRANCH  14  18
ATOM     18  C   UNL     1       1.591  -1.076   2.792  0.00  0.00    +0.096 C 
BRANCH  18  19
ATOM     19  C   UNL     1       1.782   0.263   3.506  0.00  0.00    +0.009 C 
BRANCH  19  21
ATOM     20  C   UNL     1       1.576   2.743   3.280  0.00  0.00    +0.004 C 
ATOM     21  C   UNL     1       1.385   1.404   2.566  0.00  0.00    -0.003 C 
ENDBRANCH  19  21
ENDBRANCH  18  19
ENDBRANCH  14  18
ENDBRANCH   1  16
BRANCH   1  22
ATOM     22  C   UNL     1       3.482  -5.281   3.643  0.00  0.00    +0.239 C 
ATOM     23  O   UNL     1       3.657  -5.332   2.444  0.00  0.00    -0.273 OA
ATOM     24  N   UNL     1       4.367  -5.861   4.478  0.00  0.00    -0.311 N 
ATOM     25  H   UNL     1       4.196  -5.873   5.433  0.00  0.00    +0.149 HD
BRANCH  24  26
ATOM     26  C   UNL     1       5.586  -6.473   3.944  0.00  0.00    +0.073 C 
ATOM     27  C   UNL     1       5.285  -7.907   3.503  0.00  0.00    +0.022 C 
ATOM     28  C   UNL     1       6.559  -8.546   2.945  0.00  0.00    +0.002 C 
ATOM     29  C   UNL     1       7.638  -8.562   4.029  0.00  0.00    +0.000 C 
ATOM     30  C   UNL     1       7.939  -7.128   4.470  0.00  0.00    +0.002 C 
ATOM     31  C   UNL     1       6.665  -6.489   5.028  0.00  0.00    +0.022 C 
ENDBRANCH  24  26
ENDBRANCH   1  22
TORSDOF 10
