REMARK  Name = ZINC36005389
REMARK  17 active torsions:
REMARK  status: ('A' for Active; 'I' for Inactive)
REMARK    1  A    between atoms: C_1  and  C_2
REMARK    2  A    between atoms: C_2  and  O_3
REMARK    3  A    between atoms: O_3  and  C_4
REMARK    4  A    between atoms: C_4  and  C_6
REMARK    5  A    between atoms: C_7  and  C_25
REMARK    6  A    between atoms: N_8  and  C_24
REMARK    7  A    between atoms: C_12  and  C_14
REMARK    8  A    between atoms: C_17  and  C_20
REMARK    9  A    between atoms: C_20  and  C_21
REMARK   10  A    between atoms: C_20  and  C_22
REMARK   11  A    between atoms: C_20  and  C_23
REMARK   12  A    between atoms: C_25  and  N_26
REMARK   13  A    between atoms: C_30  and  C_33
REMARK   14  A    between atoms: N_36  and  C_37
REMARK   15  A    between atoms: C_37  and  C_38
REMARK   16  A    between atoms: C_37  and  C_39
REMARK   17  A    between atoms: C_37  and  C_40
REMARK                            x       y       z     vdW  Elec       q    Type
REMARK                         _______ _______ _______ _____ _____    ______ ____
ROOT
ATOM      1  C   UNL     1       1.935  -2.369   2.460  0.00  0.00    +0.080 C 
ATOM      2  C   UNL     1       1.993  -3.694   2.717  0.00  0.00    +0.041 C 
ATOM      3  N   UNL     1       2.802  -4.187   3.700  0.00  0.00    -0.260 N 
ATOM      4  C   UNL     1       3.583  -3.421   4.473  0.00  0.00    +0.307 C 
ATOM      5  O   UNL     1       4.269  -3.951   5.324  0.00  0.00    -0.252 OA
ATOM      6  N   UNL     1       3.633  -2.081   4.337  0.00  0.00    -0.288 N 
ATOM      7  C   UNL     1       2.801  -1.450   3.297  0.00  0.00    +0.144 C 
ATOM      8  C   UNL     1       2.816  -5.634   3.924  0.00  0.00    +0.139 C 
ATOM      9  H   UNL     1       4.206  -1.545   4.907  0.00  0.00    +0.151 HD
ENDROOT
BRANCH   7  10
ATOM     10  C   UNL     1       1.899  -0.451   3.974  0.00  0.00    -0.022 A 
ATOM     11  C   UNL     1       1.208  -0.806   5.117  0.00  0.00    +0.006 A 
ATOM     12  C   UNL     1       0.381   0.111   5.738  0.00  0.00    +0.004 A 
ATOM     13  C   UNL     1       0.245   1.384   5.216  0.00  0.00    -0.042 A 
ATOM     14  C   UNL     1       0.937   1.740   4.073  0.00  0.00    +0.004 A 
ATOM     15  C   UNL     1       1.768   0.824   3.455  0.00  0.00    +0.006 A 
BRANCH  13  16
ATOM     16  C   UNL     1      -0.658   2.383   5.892  0.00  0.00    -0.013 C 
ATOM     17  C   UNL     1      -0.174   2.621   7.324  0.00  0.00    +0.015 C 
ATOM     18  C   UNL     1      -0.628   3.703   5.118  0.00  0.00    +0.015 C 
ATOM     19  C   UNL     1      -2.088   1.841   5.921  0.00  0.00    +0.015 C 
ENDBRANCH  13  16
ENDBRANCH   7  10
BRANCH   1  20
ATOM     20  C   UNL     1       1.098  -1.858   1.441  0.00  0.00    +0.339 C 
ATOM     21  O   UNL     1       1.580  -1.489   0.386  0.00  0.00    -0.245 OA
BRANCH  20  22
ATOM     22  O   UNL     1      -0.234  -1.779   1.639  0.00  0.00    -0.462 OA
BRANCH  22  24
ATOM     23  C   UNL     1      -2.494  -1.240   0.972  0.00  0.00    +0.048 C 
ATOM     24  C   UNL     1      -1.019  -1.252   0.567  0.00  0.00    +0.229 C 
ENDBRANCH  22  24
ENDBRANCH  20  22
ENDBRANCH   1  20
BRANCH   2  25
ATOM     25  C   UNL     1       1.152  -4.644   1.904  0.00  0.00    +0.136 C 
BRANCH  25  26
ATOM     26  N   UNL     1       2.027  -5.522   1.116  0.00  0.00    -0.294 NA
ATOM     27  C   UNL     1       2.773  -4.756   0.109  0.00  0.00    +0.104 C 
ATOM     28  C   UNL     1       3.801  -5.670  -0.565  0.00  0.00    +0.125 C 
ATOM     29  N   UNL     1       3.104  -6.858  -1.079  0.00  0.00    -0.280 N 
ATOM     30  C   UNL     1       2.227  -7.601  -0.162  0.00  0.00    +0.088 C 
ATOM     31  C   UNL     1       1.260  -6.611   0.496  0.00  0.00    +0.107 C 
ATOM     32  C   UNL     1       1.438  -8.653  -0.945  0.00  0.00    +0.029 C 
ATOM     33  C   UNL     1       3.265  -7.256  -2.357  0.00  0.00    +0.303 C 
ATOM     34  O   UNL     1       2.616  -8.189  -2.790  0.00  0.00    -0.253 OA
ATOM     35  N   UNL     1       4.145  -6.620  -3.155  0.00  0.00    -0.294 N 
ATOM     36  H   UNL     1       4.714  -5.923  -2.792  0.00  0.00    +0.151 HD
BRANCH  35  37
ATOM     37  C   UNL     1       4.244  -6.982  -4.571  0.00  0.00    +0.028 C 
ATOM     38  C   UNL     1       2.894  -6.750  -5.252  0.00  0.00    +0.031 C 
ATOM     39  C   UNL     1       5.311  -6.116  -5.245  0.00  0.00    +0.031 C 
ATOM     40  C   UNL     1       4.631  -8.457  -4.695  0.00  0.00    +0.031 C 
ENDBRANCH  35  37
ENDBRANCH  25  26
ENDBRANCH   2  25
TORSDOF 8
