REMARK  Name = ZINC08590208
REMARK  9 active torsions:
REMARK  status: ('A' for Active; 'I' for Inactive)
REMARK    1  A    between atoms: C_1  and  C_2
REMARK    2  A    between atoms: C_2  and  C_3
REMARK    3  A    between atoms: C_3  and  C_5
REMARK    4  A    between atoms: C_3  and  N_20
REMARK    5  A    between atoms: C_9  and  N_10
REMARK    6  A    between atoms: N_16  and  C_19
REMARK    7  A    between atoms: N_23  and  C_24
REMARK    8  A    between atoms: C_29  and  O_30
REMARK    9  A    between atoms: O_30  and  C_31
REMARK                            x       y       z     vdW  Elec       q    Type
REMARK                         _______ _______ _______ _____ _____    ______ ____
ROOT
ATOM      1  C   UNL     1       0.946  -0.829   1.423  0.00  0.00    +0.107 C 
ENDROOT
BRANCH   1   2
ATOM      2  C   UNL     1       0.768  -2.312   1.619  0.00  0.00    +0.007 A 
ATOM      3  C   UNL     1      -0.107  -3.025   0.805  0.00  0.00    -0.034 A 
ATOM      4  C   UNL     1      -0.217  -4.362   1.044  0.00  0.00    -0.021 A 
ATOM      5  S   UNL     1       0.894  -4.643   2.393  0.00  0.00    -0.077 S 
ATOM      6  C   UNL     1       1.467  -2.961   2.590  0.00  0.00    +0.090 A 
ATOM      7  C   UNL     1      -1.087  -5.332   0.315  0.00  0.00    -0.036 C 
ATOM      8  N   UNL     1      -2.086  -4.569  -0.457  0.00  0.00    +0.381 N 
ATOM      9  C   UNL     1      -1.408  -3.527  -1.239  0.00  0.00    -0.074 C 
ATOM     10  C   UNL     1      -0.930  -2.400  -0.319  0.00  0.00    +0.018 C 
ATOM     11  C   UNL     1      -2.800  -5.477  -1.366  0.00  0.00    -0.096 C 
ATOM     12  H   UNL     1      -2.745  -4.141   0.176  0.00  0.00    -0.082 HD
BRANCH   6  13
ATOM     13  N   UNL     1       2.392  -2.446   3.504  0.00  0.00    -0.317 N 
ATOM     14  C   UNL     1       2.242  -1.296   4.226  0.00  0.00    +0.092 A 
ATOM     15  C   UNL     1       3.340  -1.135   4.994  0.00  0.00    +0.019 A 
ATOM     16  C   UNL     1       4.199  -2.222   4.737  0.00  0.00    +0.019 A 
ATOM     17  C   UNL     1       3.592  -3.011   3.827  0.00  0.00    +0.092 A 
ENDBRANCH   6  13
ENDBRANCH   1   2
BRANCH   1  18
ATOM     18  N   UNL     1       2.362  -0.483   1.572  0.00  0.00    -0.292 N 
ATOM     19  C   UNL     1       2.713   0.723   2.060  0.00  0.00    +0.304 C 
ATOM     20  O   UNL     1       1.855   1.524   2.378  0.00  0.00    -0.252 OA
ATOM     21  N   UNL     1       4.016   1.041   2.197  0.00  0.00    -0.266 N 
ATOM     22  H   UNL     1       3.046  -1.122   1.318  0.00  0.00    +0.151 HD
ATOM     23  H   UNL     1       4.700   0.432   1.878  0.00  0.00    +0.156 HD
BRANCH  21  24
ATOM     24  C   UNL     1       4.382   2.252   2.801  0.00  0.00    +0.078 A 
ATOM     25  C   UNL     1       3.593   2.794   3.805  0.00  0.00    +0.047 A 
ATOM     26  C   UNL     1       3.957   3.989   4.400  0.00  0.00    +0.043 A 
ATOM     27  C   UNL     1       5.106   4.645   3.995  0.00  0.00    +0.024 A 
ATOM     28  C   UNL     1       5.896   4.110   2.994  0.00  0.00    +0.049 A 
ATOM     29  C   UNL     1       5.541   2.911   2.398  0.00  0.00    +0.141 A 
ATOM     30 CL   UNL     1       2.969   4.667   5.656  0.00  0.00    -0.083 Cl
BRANCH  29  31
ATOM     31  O   UNL     1       6.320   2.381   1.417  0.00  0.00    -0.493 OA
ATOM     32  C   UNL     1       7.494   3.111   1.055  0.00  0.00    +0.277 C 
ENDBRANCH  29  31
ENDBRANCH  21  24
ENDBRANCH   1  18
BRANCH   1  34
ATOM     33  C   UNL     1       0.731   1.051  -0.209  0.00  0.00    +0.006 C 
ATOM     34  C   UNL     1       0.470  -0.439   0.022  0.00  0.00    +0.024 C 
ENDBRANCH   1  34
TORSDOF 6
