REMARK  Name = ZINC39686595
REMARK  10 active torsions:
REMARK  status: ('A' for Active; 'I' for Inactive)
REMARK    1  A    between atoms: C_1  and  C_2
REMARK    2  A    between atoms: C_2  and  C_4
REMARK    3  A    between atoms: C_2  and  N_13
REMARK    4  A    between atoms: C_4  and  C_5
REMARK    5  A    between atoms: C_10  and  O_11
REMARK    6  A    between atoms: O_11  and  C_12
REMARK    7  A    between atoms: C_14  and  C_16
REMARK    8  A    between atoms: C_27  and  C_29
REMARK    9  A    between atoms: C_29  and  O_30
REMARK   10  A    between atoms: O_30  and  C_31
REMARK                            x       y       z     vdW  Elec       q    Type
REMARK                         _______ _______ _______ _____ _____    ______ ____
ROOT
ATOM      1  C   UNL     1      -3.442  -1.177   1.191  0.00  0.00    +0.100 C 
ATOM      2  C   UNL     1      -4.400  -0.149   0.548  0.00  0.00    +0.121 C 
ATOM      3  N   UNL     1      -5.639  -0.235   1.355  0.00  0.00    -0.297 N 
ATOM      4  C   UNL     1      -5.161  -0.393   2.749  0.00  0.00    +0.115 C 
ATOM      5  C   UNL     1      -3.945  -1.333   2.637  0.00  0.00    -0.004 C 
ATOM      6  C   UNL     1      -2.859  -0.911   3.622  0.00  0.00    -0.010 C 
ATOM      7  C   UNL     1      -3.360  -1.131   5.052  0.00  0.00    -0.082 C 
ATOM      8  N   UNL     1      -3.699  -2.546   5.242  0.00  0.00    +0.379 N 
ATOM      9  C   UNL     1      -4.807  -2.920   4.356  0.00  0.00    -0.082 C 
ATOM     10  C   UNL     1      -4.367  -2.776   2.896  0.00  0.00    -0.010 C 
ATOM     11  C   UNL     1      -6.914  -0.183   0.920  0.00  0.00    +0.253 C 
ATOM     12  O   UNL     1      -7.829  -0.268   1.712  0.00  0.00    -0.272 OA
ATOM     13  H   UNL     1      -2.893  -3.115   5.029  0.00  0.00    -0.086 HD
ATOM     14  H   UNL     1      -3.970  -2.700   6.202  0.00  0.00    -0.086 HD
ENDROOT
BRANCH   1  16
ATOM     15  N   UNL     1      -1.017  -1.459   0.799  0.00  0.00    -0.312 N 
ATOM     16  C   UNL     1      -2.029  -0.655   1.181  0.00  0.00    +0.218 C 
ATOM     17  O   UNL     1      -1.802   0.488   1.516  0.00  0.00    -0.275 OA
ATOM     18  H   UNL     1      -1.198  -2.374   0.531  0.00  0.00    +0.149 HD
BRANCH  15  20
ATOM     19  C   UNL     1       0.626  -0.232  -0.534  0.00  0.00    +0.028 C 
ATOM     20  C   UNL     1       0.358  -0.952   0.789  0.00  0.00    +0.074 C 
BRANCH  20  21
ATOM     21  C   UNL     1       1.334  -2.121   0.940  0.00  0.00    +0.060 C 
BRANCH  21  22
ATOM     22  C   UNL     1       1.153  -2.754   2.295  0.00  0.00    -0.004 A 
ATOM     23  C   UNL     1       1.957  -2.370   3.351  0.00  0.00    +0.007 A 
ATOM     24  C   UNL     1       1.792  -2.951   4.594  0.00  0.00    +0.000 A 
ATOM     25  C   UNL     1       0.822  -3.918   4.785  0.00  0.00    +0.004 A 
ATOM     26  C   UNL     1       0.015  -4.306   3.733  0.00  0.00    +0.046 A 
ATOM     27  C   UNL     1       0.175  -3.720   2.485  0.00  0.00    +0.123 A 
BRANCH  27  28
ATOM     28  O   UNL     1      -0.621  -4.095   1.450  0.00  0.00    -0.495 OA
ATOM     29  C   UNL     1      -1.606  -5.095   1.718  0.00  0.00    +0.277 C 
ENDBRANCH  27  28
ENDBRANCH  21  22
ENDBRANCH  20  21
ENDBRANCH  15  20
ENDBRANCH   1  16
BRANCH  11  30
ATOM     30  C   UNL     1      -7.202  -0.019  -0.550  0.00  0.00    +0.324 C 
BRANCH  30  31
ATOM     31  O   UNL     1      -8.616   0.009  -0.758  0.00  0.00    -0.483 OA
BRANCH  31  32
ATOM     32  C   UNL     1      -9.049   0.153  -2.038  0.00  0.00    +0.123 A 
ATOM     33  C   UNL     1      -8.131   0.259  -3.074  0.00  0.00    +0.046 A 
ATOM     34  C   UNL     1      -8.573   0.404  -4.374  0.00  0.00    +0.005 A 
ATOM     35  C   UNL     1      -9.928   0.444  -4.646  0.00  0.00    +0.020 A 
ATOM     36  C   UNL     1     -10.845   0.339  -3.615  0.00  0.00    +0.044 A 
ATOM     37  C   UNL     1     -10.408   0.188  -2.312  0.00  0.00    +0.065 A 
ATOM     38 CL   UNL     1     -12.546   0.390  -3.959  0.00  0.00    -0.083 Cl
ENDBRANCH  31  32
ENDBRANCH  30  31
ENDBRANCH  11  30
TORSDOF 8
