REMARK  Name = ZINC09453601
REMARK  9 active torsions:
REMARK  status: ('A' for Active; 'I' for Inactive)
REMARK    1  A    between atoms: C_1  and  C_2
REMARK    2  A    between atoms: C_2  and  C_3
REMARK    3  A    between atoms: C_3  and  N_4
REMARK    4  A    between atoms: C_13  and  C_15
REMARK    5  A    between atoms: C_15  and  O_17
REMARK    6  A    between atoms: O_17  and  C_18
REMARK    7  A    between atoms: C_18  and  C_20
REMARK    8  A    between atoms: C_18  and  C_21
REMARK    9  A    between atoms: N_23  and  C_24
REMARK                            x       y       z     vdW  Elec       q    Type
REMARK                         _______ _______ _______ _____ _____    ______ ____
ROOT
ATOM      1  C   UNL     1       1.489   6.028   2.565  0.00  0.00    +0.361 C 
ATOM      2  O   UNL     1       1.582   7.238   2.624  0.00  0.00    -0.243 OA
ENDROOT
BRANCH   1  12
ATOM      3  N   UNL     1      -0.759   3.491   1.279  0.00  0.00    -0.228 N 
ATOM      4  C   UNL     1      -1.795   4.121   0.689  0.00  0.00    +0.275 A 
ATOM      5  O   UNL     1      -2.695   3.486   0.170  0.00  0.00    -0.266 OA
ATOM      6  C   UNL     1      -1.815   5.590   0.691  0.00  0.00    +0.050 A 
ATOM      7  C   UNL     1      -2.840   6.333   0.114  0.00  0.00    +0.014 A 
ATOM      8  C   UNL     1      -2.782   7.710   0.154  0.00  0.00    +0.001 A 
ATOM      9  C   UNL     1      -1.714   8.357   0.762  0.00  0.00    +0.001 A 
ATOM     10  C   UNL     1      -0.689   7.639   1.339  0.00  0.00    +0.011 A 
ATOM     11  C   UNL     1      -0.728   6.250   1.310  0.00  0.00    +0.021 A 
ATOM     12  C   UNL     1       0.325   5.410   1.903  0.00  0.00    +0.176 A 
ATOM     13  N   UNL     1       0.217   4.104   1.835  0.00  0.00    -0.161 NA
BRANCH   3  14
ATOM     14  C   UNL     1      -0.746   2.026   1.279  0.00  0.00    +0.147 C 
BRANCH  14  16
ATOM     15  C   UNL     1      -0.018  -0.008   0.024  0.00  0.00    +0.005 C 
ATOM     16  C   UNL     1      -0.031   1.522   0.024  0.00  0.00    +0.020 C 
ENDBRANCH  14  16
ENDBRANCH   3  14
ENDBRANCH   1  12
BRANCH   1  17
ATOM     17  O   UNL     1       2.449   5.252   3.105  0.00  0.00    -0.448 OA
BRANCH  17  18
ATOM     18  C   UNL     1       3.565   5.929   3.740  0.00  0.00    +0.259 C 
ATOM     19  C   UNL     1       4.668   6.173   2.708  0.00  0.00    +0.062 C 
BRANCH  18  20
ATOM     20  C   UNL     1       4.103   5.072   4.857  0.00  0.00    +0.258 C 
ATOM     21  O   UNL     1       3.656   3.959   5.036  0.00  0.00    -0.271 OA
ATOM     22  N   UNL     1       5.081   5.542   5.656  0.00  0.00    -0.282 N 
ATOM     23  H   UNL     1       5.485   6.405   5.472  0.00  0.00    +0.155 HD
BRANCH  22  24
ATOM     24  C   UNL     1       5.513   4.786   6.752  0.00  0.00    +0.034 A 
ATOM     25  C   UNL     1       5.909   5.421   7.922  0.00  0.00    +0.024 A 
ATOM     26  C   UNL     1       6.330   4.672   9.004  0.00  0.00    +0.017 A 
ATOM     27  C   UNL     1       6.369   3.292   8.918  0.00  0.00    +0.018 A 
ATOM     28  C   UNL     1       5.981   2.657   7.751  0.00  0.00    +0.017 A 
ATOM     29  C   UNL     1       5.553   3.401   6.669  0.00  0.00    +0.024 A 
ATOM     30 BR   UNL     1       6.953   2.270  10.398  0.00  0.00    -0.050 Br
ENDBRANCH  22  24
ENDBRANCH  18  20
ENDBRANCH  17  18
ENDBRANCH   1  17
TORSDOF 7
