REMARK  Name = ZINC39851985
REMARK  2 active torsions:
REMARK  status: ('A' for Active; 'I' for Inactive)
REMARK    1  A    between atoms: C_1  and  C_2
REMARK    2  A    between atoms: C_6  and  C_7
REMARK                            x       y       z     vdW  Elec       q    Type
REMARK                         _______ _______ _______ _____ _____    ______ ____
ROOT
ATOM      1  C   UNL     1      -0.018   1.503   0.010  0.00  0.00    +0.048 C 
ATOM      2  C   UNL     1       0.002  -0.004   0.002  0.00  0.00    +0.005 A 
ATOM      3  C   UNL     1       0.008  -0.832  -1.122  0.00  0.00    +0.023 A 
ATOM      4  C   UNL     1       0.028  -2.117  -0.677  0.00  0.00    +0.112 A 
ATOM      5  O   UNL     1       0.035  -2.105   0.657  0.00  0.00    -0.454 OA
ATOM      6  C   UNL     1       0.024  -0.827   1.094  0.00  0.00    +0.193 A 
ATOM      7  C   UNL     1       0.038  -3.315  -1.594  0.00  0.00    +0.075 C 
ATOM      8  C   UNL     1      -0.430  -2.880  -2.986  0.00  0.00    +0.010 C 
ATOM      9  C   UNL     1       0.365  -1.650  -3.440  0.00  0.00    +0.034 C 
ATOM     10  C   UNL     1      -0.004  -0.458  -2.570  0.00  0.00    +0.090 C 
ATOM     11  S   UNL     1      -1.627   0.222  -3.056  0.00  0.00    -0.138 S 
ATOM     12  C   UNL     1      -1.272   1.938  -3.585  0.00  0.00    +0.081 C 
ATOM     13  C   UNL     1       0.191   1.954  -4.096  0.00  0.00    +0.081 C 
ATOM     14  S   UNL     1       1.133   0.943  -2.886  0.00  0.00    -0.138 S 
ENDROOT
BRANCH   6  15
ATOM     15  C   UNL     1       0.032  -0.397   2.496  0.00  0.00    +0.285 C 
ATOM     16  O   UNL     1       0.018   0.789   2.768  0.00  0.00    -0.266 OA
ATOM     17  N   UNL     1       0.054  -1.315   3.482  0.00  0.00    -0.263 N 
ATOM     18  C   UNL     1       0.061  -0.906   4.815  0.00  0.00    +0.144 A 
ATOM     19  C   UNL     1       0.090  -1.859   5.829  0.00  0.00    +0.082 A 
ATOM     20  C   UNL     1       0.097  -1.439   7.147  0.00  0.00    +0.045 A 
ATOM     21  C   UNL     1       0.074  -0.075   7.408  0.00  0.00    +0.061 A 
ATOM     22  C   UNL     1       0.046   0.816   6.352  0.00  0.00    +0.133 A 
ATOM     23  N   UNL     1       0.046   0.385   5.104  0.00  0.00    -0.237 NA
ATOM     24 CL   UNL     1       0.081   0.506   9.044  0.00  0.00    -0.082 Cl
ATOM     25 CL   UNL     1       0.116  -3.552   5.444  0.00  0.00    -0.080 Cl
ATOM     26  H   UNL     1       0.065  -2.260   3.265  0.00  0.00    +0.157 HD
ENDBRANCH   6  15
TORSDOF 1
