REMARK  Name = ZINC39738407
REMARK  8 active torsions:
REMARK  status: ('A' for Active; 'I' for Inactive)
REMARK    1  A    between atoms: C_1  and  C_2
REMARK    2  A    between atoms: C_2  and  C_4
REMARK    3  A    between atoms: C_2  and  N_7
REMARK    4  A    between atoms: C_4  and  C_5
REMARK    5  A    between atoms: C_4  and  C_6
REMARK    6  A    between atoms: N_7  and  C_8
REMARK    7  A    between atoms: C_8  and  C_9
REMARK    8  A    between atoms: C_22  and  C_24
REMARK                            x       y       z     vdW  Elec       q    Type
REMARK                         _______ _______ _______ _____ _____    ______ ____
ROOT
ATOM      1  C   UNL     1       0.620  -0.579  -3.634  0.00  0.00    +0.203 C 
ATOM      2  O   UNL     1       1.665  -1.186  -3.538  0.00  0.00    -0.277 OA
ATOM      3  N   UNL     1       0.089  -0.339  -4.849  0.00  0.00    -0.259 N 
ATOM      4  C   UNL     1      -1.116   0.366  -4.974  0.00  0.00    +0.058 A 
ATOM      5  C   UNL     1      -2.318  -0.218  -4.611  0.00  0.00    +0.025 A 
ATOM      6  C   UNL     1      -3.499   0.485  -4.764  0.00  0.00    +0.002 A 
ATOM      7  C   UNL     1      -3.485   1.768  -5.279  0.00  0.00    +0.002 A 
ATOM      8  C   UNL     1      -2.288   2.362  -5.636  0.00  0.00    +0.025 A 
ATOM      9  C   UNL     1      -1.100   1.669  -5.475  0.00  0.00    +0.055 A 
ATOM     10  N   UNL     1       0.128   2.269  -5.776  0.00  0.00    -0.284 N 
ATOM     11  C   UNL     1       1.044   1.617  -6.526  0.00  0.00    +0.219 C 
ATOM     12  O   UNL     1       2.135   2.114  -6.709  0.00  0.00    -0.275 OA
ATOM     13  C   UNL     1       0.719   0.279  -7.134  0.00  0.00    +0.128 C 
ATOM     14  C   UNL     1       0.763  -0.805  -6.062  0.00  0.00    +0.194 C 
ATOM     15  H   UNL     1       0.323   3.159  -5.445  0.00  0.00    +0.155 HD
ENDROOT
BRANCH  14  16
ATOM     16  C   UNL     1       0.059  -2.059  -6.585  0.00  0.00    +0.409 C 
ATOM     17  F   UNL     1      -1.275  -1.758  -6.878  0.00  0.00    -0.169 F 
ATOM     18  F   UNL     1       0.702  -2.506  -7.744  0.00  0.00    -0.169 F 
ATOM     19  F   UNL     1       0.107  -3.062  -5.609  0.00  0.00    -0.169 F 
ENDBRANCH  14  16
BRANCH   1  20
ATOM     20  C   UNL     1      -0.086  -0.093  -2.394  0.00  0.00    +0.016 C 
BRANCH  20  21
ATOM     21  N   UNL     1       0.690  -0.478  -1.207  0.00  0.00    +0.387 N 
ATOM     22  H   UNL     1       1.608  -0.063  -1.256  0.00  0.00    -0.085 HD
ATOM     23  H   UNL     1       0.776  -1.482  -1.172  0.00  0.00    -0.085 HD
BRANCH  21  25
ATOM     24  C   UNL     1      -0.019   1.526   0.010  0.00  0.00    -0.013 C 
ATOM     25  C   UNL     1       0.002  -0.004   0.002  0.00  0.00    -0.072 C 
BRANCH  25  26
ATOM     26  C   UNL     1       0.742  -0.511   1.242  0.00  0.00    -0.032 C 
ATOM     27  C   UNL     1       2.136   0.118   1.296  0.00  0.00    +0.005 C 
ATOM     28  C   UNL     1      -0.042  -0.124   2.497  0.00  0.00    +0.005 C 
ENDBRANCH  25  26
ENDBRANCH  21  25
ENDBRANCH  20  21
ENDBRANCH   1  20
TORSDOF 5
