REMARK  Name = ZINC02124328
REMARK  9 active torsions:
REMARK  status: ('A' for Active; 'I' for Inactive)
REMARK    1  A    between atoms: C_1  and  N_2
REMARK    2  A    between atoms: C_5  and  C_12
REMARK    3  A    between atoms: C_5  and  C_22
REMARK    4  A    between atoms: N_8  and  C_11
REMARK    5  A    between atoms: C_12  and  C_13
REMARK    6  A    between atoms: C_16  and  O_21
REMARK    7  A    between atoms: C_17  and  O_19
REMARK    8  A    between atoms: O_19  and  C_20
REMARK    9  A    between atoms: C_22  and  N_66
REMARK                            x       y       z     vdW  Elec       q    Type
REMARK                         _______ _______ _______ _____ _____    ______ ____
ROOT
ATOM      1  C   UNL     1       4.054  -0.901  -3.364  0.00  0.00    +0.143 C 
ATOM      2  N   UNL     1       3.801   0.483  -2.957  0.00  0.00    -0.228 N 
ATOM      3  C   UNL     1       4.414   0.964  -1.855  0.00  0.00    +0.236 C 
ATOM      4  O   UNL     1       5.167   0.274  -1.202  0.00  0.00    -0.274 OA
ATOM      5  C   UNL     1       4.128   2.402  -1.464  0.00  0.00    +0.113 C 
ATOM      6  C   UNL     1       3.169   3.162  -2.362  0.00  0.00    +0.236 C 
ATOM      7  O   UNL     1       2.876   4.316  -2.134  0.00  0.00    -0.274 OA
ATOM      8  N   UNL     1       2.655   2.506  -3.423  0.00  0.00    -0.228 N 
ATOM      9  C   UNL     1       2.968   1.232  -3.689  0.00  0.00    +0.317 C 
ATOM     10  O   UNL     1       2.459   0.719  -4.665  0.00  0.00    -0.252 OA
ATOM     11  C   UNL     1       1.726   3.209  -4.311  0.00  0.00    +0.143 C 
ENDROOT
BRANCH   5  12
ATOM     12  C   UNL     1       3.555   2.404  -0.046  0.00  0.00    +0.059 C 
BRANCH  12  13
ATOM     13  C   UNL     1       2.284   1.595  -0.015  0.00  0.00    -0.042 A 
ATOM     14  C   UNL     1       2.335   0.240   0.256  0.00  0.00    +0.007 A 
ATOM     15  C   UNL     1       1.172  -0.506   0.284  0.00  0.00    +0.049 A 
ATOM     16  C   UNL     1      -0.049   0.103   0.040  0.00  0.00    +0.158 A 
ATOM     17  C   UNL     1      -0.100   1.466  -0.232  0.00  0.00    +0.162 A 
ATOM     18  C   UNL     1       1.069   2.209  -0.259  0.00  0.00    +0.053 A 
BRANCH  17  19
ATOM     19  O   UNL     1      -1.295   2.068  -0.478  0.00  0.00    -0.491 OA
ATOM     20  C   UNL     1      -1.272   3.470  -0.750  0.00  0.00    +0.277 C 
ENDBRANCH  17  19
BRANCH  16  21
ATOM     21  O   UNL     1      -1.194  -0.630   0.067  0.00  0.00    -0.503 OA
ATOM     22  H   UNL     1      -1.437  -1.012  -0.788  0.00  0.00    +0.292 HD
ENDBRANCH  16  21
ENDBRANCH  12  13
ENDBRANCH   5  12
BRANCH   5  23
ATOM     23  C   UNL     1       5.455   3.162  -1.440  0.00  0.00    -0.053 C 
BRANCH  23  37
ATOM     24  C   UNL     1       5.870   2.067  -3.557  0.00  0.00    -0.074 C 
ATOM     25  C   UNL     1       6.434   2.221  -4.960  0.00  0.00    -0.007 C 
ATOM     26  C   UNL     1       5.736   3.362  -5.707  0.00  0.00    +0.011 C 
ATOM     27  C   UNL     1       5.905   4.633  -4.867  0.00  0.00    +0.020 C 
ATOM     28  C   UNL     1       5.223   4.401  -3.509  0.00  0.00    -0.069 C 
ATOM     29  C   UNL     1       7.376   4.863  -4.603  0.00  0.00    +0.023 A 
ATOM     30  C   UNL     1       7.780   6.143  -4.390  0.00  0.00    +0.022 A 
ATOM     31  C   UNL     1       9.115   6.425  -4.078  0.00  0.00    +0.007 A 
ATOM     32  C   UNL     1       9.998   5.391  -3.971  0.00  0.00    +0.070 A 
ATOM     33  C   UNL     1       9.549   4.084  -4.199  0.00  0.00    +0.251 A 
ATOM     34  O   UNL     1      10.321   3.148  -4.059  0.00  0.00    -0.268 OA
ATOM     35  N   UNL     1       8.268   3.845  -4.573  0.00  0.00    -0.312 N 
ATOM     36  C   UNL     1       7.933   2.471  -4.946  0.00  0.00    +0.126 C 
ATOM     37  N   UNL     1       5.978   3.336  -2.811  0.00  0.00    +0.381 N 
ATOM     38  H   UNL     1       6.967   3.608  -2.759  0.00  0.00    -0.082 HD
ENDBRANCH  23  37
ENDBRANCH   5  23
TORSDOF 6
