REMARK  Name = ZINC14832218
REMARK  9 active torsions:
REMARK  status: ('A' for Active; 'I' for Inactive)
REMARK    1  A    between atoms: C_1  and  C_2
REMARK    2  A    between atoms: C_2  and  C_3
REMARK    3  A    between atoms: C_3  and  C_5
REMARK    4  A    between atoms: C_3  and  C_6
REMARK    5  A    between atoms: C_9  and  O_13
REMARK    6  A    between atoms: O_13  and  C_14
REMARK    7  A    between atoms: C_14  and  C_15
REMARK    8  A    between atoms: N_17  and  N_18
REMARK    9  A    between atoms: C_19  and  C_21
REMARK                            x       y       z     vdW  Elec       q    Type
REMARK                         _______ _______ _______ _____ _____    ______ ____
ROOT
ATOM      1  C   UNL     1      -4.067   1.999   9.150  0.00  0.00    +0.267 C 
ATOM      2  O   UNL     1      -4.202   3.199   9.260  0.00  0.00    -0.271 OA
ATOM      3  N   UNL     1      -4.584   1.173  10.081  0.00  0.00    -0.231 N 
ATOM      4  H   UNL     1      -4.476   0.213   9.992  0.00  0.00    +0.173 HD
ENDROOT
BRANCH   3   5
ATOM      5  N   UNL     1      -5.278   1.702  11.178  0.00  0.00    -0.230 N 
ATOM      6  C   UNL     1      -5.795   0.876  12.109  0.00  0.00    +0.262 C 
ATOM      7  O   UNL     1      -5.659  -0.327  11.998  0.00  0.00    -0.269 OA
ATOM      8  H   UNL     1      -5.386   2.661  11.266  0.00  0.00    +0.173 HD
BRANCH   6   9
ATOM      9  C   UNL     1      -6.527   1.433  13.265  0.00  0.00    +0.057 A 
ATOM     10  C   UNL     1      -6.684   2.815  13.396  0.00  0.00    +0.016 A 
ATOM     11  C   UNL     1      -7.369   3.329  14.476  0.00  0.00    +0.021 A 
ATOM     12  C   UNL     1      -7.900   2.478  15.432  0.00  0.00    +0.042 A 
ATOM     13  C   UNL     1      -7.748   1.108  15.310  0.00  0.00    +0.040 A 
ATOM     14  C   UNL     1      -7.069   0.580  14.229  0.00  0.00    +0.054 A 
ATOM     15 CL   UNL     1      -6.885  -1.139  14.073  0.00  0.00    -0.083 Cl
ATOM     16 CL   UNL     1      -8.760   3.135  16.790  0.00  0.00    -0.083 Cl
ENDBRANCH   6   9
ENDBRANCH   3   5
BRANCH   1  17
ATOM     17  C   UNL     1      -3.320   1.430   7.970  0.00  0.00    +0.326 C 
BRANCH  17  18
ATOM     18  O   UNL     1      -2.873   2.497   7.131  0.00  0.00    -0.482 OA
BRANCH  18  22
ATOM     19  C   UNL     1      -0.761   1.454   3.743  0.00  0.00    -0.043 A 
ATOM     20  C   UNL     1      -1.223   0.471   4.599  0.00  0.00    +0.007 A 
ATOM     21  C   UNL     1      -1.931   0.817   5.733  0.00  0.00    +0.047 A 
ATOM     22  C   UNL     1      -2.177   2.153   6.015  0.00  0.00    +0.135 A 
ATOM     23  C   UNL     1      -1.712   3.138   5.155  0.00  0.00    +0.060 A 
ATOM     24  C   UNL     1      -1.000   2.786   4.024  0.00  0.00    +0.022 A 
ATOM     25 BR   UNL     1      -2.046   4.961   5.535  0.00  0.00    -0.047 Br
BRANCH  19  26
ATOM     26  C   UNL     1       0.011   1.072   2.506  0.00  0.00    +0.016 C 
ATOM     27  C   UNL     1       1.405   1.701   2.561  0.00  0.00    +0.012 C 
BRANCH  26  29
ATOM     28  C   UNL     1      -0.013   1.086   0.008  0.00  0.00    +0.004 C 
ATOM     29  C   UNL     1      -0.729   1.579   1.267  0.00  0.00    +0.004 C 
ENDBRANCH  26  29
ENDBRANCH  19  26
ENDBRANCH  18  22
ENDBRANCH  17  18
ENDBRANCH   1  17
TORSDOF 7
