REMARK  Name = ZINC33810214
REMARK  5 active torsions:
REMARK  status: ('A' for Active; 'I' for Inactive)
REMARK    1  A    between atoms: C_1  and  C_2
REMARK    2  A    between atoms: C_5  and  C_8
REMARK    3  A    between atoms: C_8  and  S_9
REMARK    4  A    between atoms: S_9  and  C_10
REMARK    5  A    between atoms: C_17  and  C_27
REMARK                            x       y       z     vdW  Elec       q    Type
REMARK                         _______ _______ _______ _____ _____    ______ ____
ROOT
ATOM      1  C   UNL     1       6.282   1.679   3.519  0.00  0.00    +0.171 A 
ATOM      2  N   UNL     1       5.334   2.271   2.739  0.00  0.00    -0.208 NA
ATOM      3  C   UNL     1       4.130   1.651   2.531  0.00  0.00    +0.135 A 
ATOM      4  C   UNL     1       3.893   0.445   3.113  0.00  0.00    +0.069 A 
ATOM      5  C   UNL     1       4.902  -0.137   3.910  0.00  0.00    +0.258 A 
ATOM      6  O   UNL     1       4.717  -1.224   4.440  0.00  0.00    -0.267 OA
ATOM      7  N   UNL     1       6.065   0.509   4.083  0.00  0.00    -0.302 N 
ATOM      8  C   UNL     1       2.584  -0.262   2.916  0.00  0.00    +0.092 C 
ATOM      9  C   UNL     1       1.841   0.286   1.725  0.00  0.00    +0.024 C 
ATOM     10  C   UNL     1       2.162   1.487   1.198  0.00  0.00    +0.017 C 
ATOM     11  N   UNL     1       3.172   2.237   1.738  0.00  0.00    -0.302 N 
ATOM     12  C   UNL     1       1.426   2.033  -0.001  0.00  0.00    +0.051 C 
ATOM     13  C   UNL     1      -0.019   1.528   0.010  0.00  0.00    +0.014 C 
ATOM     14  C   UNL     1       0.002  -0.004   0.002  0.00  0.00    +0.080 C 
ATOM     15  C   UNL     1       0.803  -0.489   1.179  0.00  0.00    +0.162 C 
ATOM     16  O   UNL     1       0.547  -1.572   1.668  0.00  0.00    -0.292 OA
ATOM     17  H   UNL     1       3.213   3.317   1.532  0.00  0.00    +0.153 HD
ATOM     18  H   UNL     1       6.844   0.047   4.707  0.00  0.00    +0.171 HD
ENDROOT
BRANCH   8  19
ATOM     19  C   UNL     1       1.737  -0.085   4.150  0.00  0.00    -0.035 A 
ATOM     20  C   UNL     1       1.353   1.182   4.549  0.00  0.00    +0.005 A 
ATOM     21  C   UNL     1       0.572   1.344   5.678  0.00  0.00    +0.015 A 
ATOM     22  C   UNL     1       0.184   0.239   6.415  0.00  0.00    +0.018 A 
ATOM     23  C   UNL     1       0.573  -1.028   6.018  0.00  0.00    +0.015 A 
ATOM     24  C   UNL     1       1.349  -1.189   4.886  0.00  0.00    +0.005 A 
ATOM     25 BR   UNL     1      -0.878   0.461   7.964  0.00  0.00    -0.050 Br
ENDBRANCH   8  19
BRANCH   1  26
ATOM     26  S   UNL     1       7.824   2.492   3.775  0.00  0.00    -0.083 S 
BRANCH  26  27
ATOM     27  C   UNL     1       8.642   1.283   4.845  0.00  0.00    +0.112 C 
BRANCH  27  32
ATOM     28  C   UNL     1      13.920   3.189   6.222  0.00  0.00    +0.044 C 
ATOM     29  C   UNL     1      12.544   2.692   5.863  0.00  0.00    -0.050 A 
ATOM     30  C   UNL     1      11.463   3.013   6.662  0.00  0.00    +0.003 A 
ATOM     31  C   UNL     1      10.200   2.557   6.333  0.00  0.00    +0.005 A 
ATOM     32  C   UNL     1      10.018   1.780   5.204  0.00  0.00    -0.037 A 
ATOM     33  C   UNL     1      11.101   1.455   4.408  0.00  0.00    +0.005 A 
ATOM     34  C   UNL     1      12.363   1.915   4.735  0.00  0.00    +0.003 A 
ENDBRANCH  27  32
ENDBRANCH  26  27
ENDBRANCH   1  26
TORSDOF 4
