REMARK  Name = ZINC13120355
REMARK  11 active torsions:
REMARK  status: ('A' for Active; 'I' for Inactive)
REMARK    1  A    between atoms: C_1  and  C_2
REMARK    2  A    between atoms: C_2  and  C_4
REMARK    3  A    between atoms: C_2  and  N_65
REMARK    4  A    between atoms: C_15  and  C_16
REMARK    5  A    between atoms: C_15  and  N_65
REMARK    6  A    between atoms: C_16  and  C_18
REMARK    7  A    between atoms: C_16  and  C_28
REMARK    8  A    between atoms: C_22  and  O_26
REMARK    9  A    between atoms: C_23  and  O_24
REMARK   10  A    between atoms: O_24  and  C_25
REMARK   11  A    between atoms: O_26  and  C_27
REMARK                            x       y       z     vdW  Elec       q    Type
REMARK                         _______ _______ _______ _____ _____    ______ ____
ROOT
ATOM      1  C   UNL     1       5.423   3.147   0.231  0.00  0.00    +0.038 C 
ENDROOT
BRANCH   1   2
ATOM      2  C   UNL     1       4.062   3.000  -0.399  0.00  0.00    -0.017 A 
ATOM      3  C   UNL     1       3.328   3.979  -0.950  0.00  0.00    +0.087 A 
ATOM      4  N   UNL     1       2.148   3.469  -1.420  0.00  0.00    -0.360 N 
ATOM      5  H   UNL     1       1.454   3.985  -1.860  0.00  0.00    +0.165 HD
ATOM      6  C   UNL     1       2.092   2.115  -1.175  0.00  0.00    +0.047 A 
ATOM      7  C   UNL     1       3.289   1.762  -0.525  0.00  0.00    +0.003 A 
ATOM      8  C   UNL     1       3.513   0.436  -0.151  0.00  0.00    +0.010 A 
ATOM      9  C   UNL     1       2.567  -0.513  -0.418  0.00  0.00    +0.001 A 
ATOM     10  C   UNL     1       1.388  -0.171  -1.065  0.00  0.00    +0.002 A 
ATOM     11  C   UNL     1       1.144   1.133  -1.438  0.00  0.00    +0.026 A 
ENDBRANCH   1   2
BRANCH   1  12
ATOM     12  C   UNL     1       6.396   3.673  -0.792  0.00  0.00    +0.004 A 
ATOM     13  C   UNL     1       6.169   4.896  -1.397  0.00  0.00    +0.008 A 
ATOM     14  C   UNL     1       7.062   5.383  -2.333  0.00  0.00    +0.004 A 
ATOM     15  C   UNL     1       8.180   4.646  -2.676  0.00  0.00    +0.049 A 
ATOM     16  C   UNL     1       8.411   3.418  -2.078  0.00  0.00    +0.162 A 
ATOM     17  C   UNL     1       7.514   2.929  -1.132  0.00  0.00    +0.165 A 
BRANCH  17  18
ATOM     18  O   UNL     1       7.736   1.724  -0.542  0.00  0.00    -0.491 OA
ATOM     19  C   UNL     1       7.180   0.575  -1.184  0.00  0.00    +0.277 C 
ENDBRANCH  17  18
BRANCH  16  20
ATOM     20  O   UNL     1       9.511   2.692  -2.414  0.00  0.00    -0.491 OA
ATOM     21  C   UNL     1      10.386   3.256  -3.392  0.00  0.00    +0.277 C 
ENDBRANCH  16  20
ENDBRANCH   1  12
BRANCH   1  22
ATOM     22  C   UNL     1       5.340   4.124   1.405  0.00  0.00    -0.069 C 
BRANCH  22  23
ATOM     23  N   UNL     1       4.480   3.546   2.455  0.00  0.00    +0.387 N 
ATOM     24  H   UNL     1       3.542   3.380   2.072  0.00  0.00    -0.085 HD
ATOM     25  H   UNL     1       4.883   2.656   2.771  0.00  0.00    -0.085 HD
BRANCH  23  27
ATOM     26  C   UNL     1       3.271   5.489   3.342  0.00  0.00    -0.004 C 
ATOM     27  C   UNL     1       4.381   4.469   3.602  0.00  0.00    +0.013 C 
BRANCH  27  28
ATOM     28  C   UNL     1       4.058   3.680   4.845  0.00  0.00    +0.206 C 
ATOM     29  O   UNL     1       3.460   2.629   4.757  0.00  0.00    -0.277 OA
ATOM     30  N   UNL     1       4.433   4.144   6.053  0.00  0.00    -0.272 N 
ATOM     31  C   UNL     1       5.065   5.444   6.295  0.00  0.00    +0.118 C 
ATOM     32  C   UNL     1       5.295   5.504   7.814  0.00  0.00    +0.056 C 
ATOM     33  C   UNL     1       4.758   4.189   8.333  0.00  0.00    -0.024 A 
ATOM     34  C   UNL     1       4.272   3.457   7.261  0.00  0.00    +0.039 A 
ATOM     35  C   UNL     1       3.726   2.194   7.494  0.00  0.00    +0.024 A 
ATOM     36  C   UNL     1       3.664   1.689   8.776  0.00  0.00    +0.002 A 
ATOM     37  C   UNL     1       4.146   2.429   9.839  0.00  0.00    +0.000 A 
ATOM     38  C   UNL     1       4.694   3.679   9.615  0.00  0.00    +0.005 A 
ENDBRANCH  27  28
ENDBRANCH  23  27
ENDBRANCH  22  23
ENDBRANCH   1  22
TORSDOF 8
