REMARK  Name = ZINC05125541
REMARK  8 active torsions:
REMARK  status: ('A' for Active; 'I' for Inactive)
REMARK    1  A    between atoms: C_1  and  C_2
REMARK    2  A    between atoms: C_5  and  C_8
REMARK    3  A    between atoms: C_11  and  C_13
REMARK    4  A    between atoms: C_13  and  C_24
REMARK    5  A    between atoms: C_14  and  C_15
REMARK    6  A    between atoms: C_18  and  O_22
REMARK    7  A    between atoms: C_19  and  O_21
REMARK    8  A    between atoms: O_22  and  C_23
REMARK                            x       y       z     vdW  Elec       q    Type
REMARK                         _______ _______ _______ _____ _____    ______ ____
ROOT
ATOM      1  C   UNL     1      -1.238  -2.117  -0.101  0.00  0.00    +0.084 C 
ATOM      2  C   UNL     1      -1.256  -0.757   0.009  0.00  0.00    +0.029 C 
ENDROOT
BRANCH   2   3
ATOM      3  C   UNL     1      -0.013  -0.027   0.277  0.00  0.00    -0.020 A 
ATOM      4  C   UNL     1       0.203   1.230  -0.304  0.00  0.00    +0.012 A 
ATOM      5  C   UNL     1       1.371   1.913  -0.051  0.00  0.00    +0.050 A 
ATOM      6  C   UNL     1       2.337   1.361   0.779  0.00  0.00    +0.161 A 
ATOM      7  C   UNL     1       2.131   0.111   1.362  0.00  0.00    +0.159 A 
ATOM      8  C   UNL     1       0.963  -0.583   1.114  0.00  0.00    +0.057 A 
BRANCH   7   9
ATOM      9  O   UNL     1       3.080  -0.426   2.174  0.00  0.00    -0.503 OA
ATOM     10  H   UNL     1       3.733  -0.969   1.712  0.00  0.00    +0.292 HD
ENDBRANCH   7   9
BRANCH   6  11
ATOM     11  O   UNL     1       3.488   2.040   1.025  0.00  0.00    -0.491 OA
ATOM     12  C   UNL     1       3.635   3.315   0.396  0.00  0.00    +0.277 C 
ENDBRANCH   6  11
ENDBRANCH   2   3
BRANCH   1  16
ATOM     13  C   UNL     1      -3.917  -4.676  -0.399  0.00  0.00    +0.079 A 
ATOM     14  C   UNL     1      -4.999  -3.835  -0.366  0.00  0.00    +0.075 A 
ATOM     15  S   UNL     1      -4.184  -2.252  -0.203  0.00  0.00    -0.074 S 
ATOM     16  C   UNL     1      -2.505  -2.865  -0.204  0.00  0.00    +0.119 A 
ATOM     17  N   UNL     1      -2.701  -4.171  -0.318  0.00  0.00    -0.238 NA
BRANCH  13  22
ATOM     18  C   UNL     1      -4.673 -10.364  -0.887  0.00  0.00    +0.044 C 
ATOM     19  C   UNL     1      -4.475  -8.876  -0.760  0.00  0.00    -0.050 A 
ATOM     20  C   UNL     1      -3.196  -8.355  -0.675  0.00  0.00    +0.004 A 
ATOM     21  C   UNL     1      -3.009  -6.993  -0.558  0.00  0.00    +0.010 A 
ATOM     22  C   UNL     1      -4.112  -6.141  -0.525  0.00  0.00    +0.001 A 
ATOM     23  C   UNL     1      -5.398  -6.672  -0.605  0.00  0.00    +0.010 A 
ATOM     24  C   UNL     1      -5.573  -8.035  -0.727  0.00  0.00    +0.004 A 
ENDBRANCH  13  22
ENDBRANCH   1  16
BRANCH   1  25
ATOM     25  C   UNL     1       0.010  -2.818  -0.116  0.00  0.00    +0.102 C 
ATOM     26  N   UNL     1       1.001  -3.373  -0.129  0.00  0.00    -0.191 NA
ENDBRANCH   1  25
TORSDOF 6
