REMARK  Name = ZINC61979961
REMARK  7 active torsions:
REMARK  status: ('A' for Active; 'I' for Inactive)
REMARK    1  A    between atoms: C_1  and  C_2
REMARK    2  A    between atoms: C_2  and  C_3
REMARK    3  A    between atoms: C_2  and  C_4
REMARK    4  A    between atoms: C_4  and  C_6
REMARK    5  A    between atoms: N_8  and  C_9
REMARK    6  A    between atoms: N_8  and  C_10
REMARK    7  A    between atoms: C_13  and  C_16
REMARK                            x       y       z     vdW  Elec       q    Type
REMARK                         _______ _______ _______ _____ _____    ______ ____
ROOT
ATOM      1  C   UNL     1      -2.104  -0.261  -1.147  0.00  0.00    +0.233 C 
ATOM      2  O   UNL     1      -1.920   0.903  -1.432  0.00  0.00    -0.274 OA
ATOM      3  N   UNL     1      -2.782  -1.063  -1.992  0.00  0.00    -0.274 N 
ATOM      4  C   UNL     1      -3.075  -2.447  -1.611  0.00  0.00    +0.138 C 
ENDROOT
BRANCH   3   5
ATOM      5  C   UNL     1      -3.204  -0.576  -3.229  0.00  0.00    +0.036 A 
ATOM      6  C   UNL     1      -3.066   0.776  -3.526  0.00  0.00    +0.025 A 
ATOM      7  C   UNL     1      -3.482   1.262  -4.745  0.00  0.00    +0.020 A 
ATOM      8  C   UNL     1      -4.043   0.393  -5.686  0.00  0.00    +0.052 A 
ATOM      9  C   UNL     1      -4.180  -0.965  -5.385  0.00  0.00    +0.020 A 
ATOM     10  C   UNL     1      -3.757  -1.444  -4.165  0.00  0.00    +0.025 A 
BRANCH   8  11
ATOM     11  C   UNL     1      -4.478   0.894  -6.955  0.00  0.00    +0.099 C 
ATOM     12  N   UNL     1      -4.822   1.292  -7.963  0.00  0.00    -0.191 NA
ENDBRANCH   8  11
ENDBRANCH   3   5
BRANCH   1  13
ATOM     13  C   UNL     1      -1.574  -0.811   0.152  0.00  0.00    +0.145 C 
ATOM     14 BR   UNL     1      -2.635  -0.099   1.646  0.00  0.00    -0.078 Br
BRANCH  13  16
ATOM     15  C   UNL     1      -0.024   1.123   0.461  0.00  0.00    +0.009 C 
ATOM     16  C   UNL     1      -0.111  -0.398   0.322  0.00  0.00    +0.005 C 
ATOM     17  C   UNL     1       0.463  -1.058   1.577  0.00  0.00    +0.009 C 
ENDBRANCH  13  16
ENDBRANCH   1  13
TORSDOF 4
