REMARK  Name = ZINC15805417
REMARK  10 active torsions:
REMARK  status: ('A' for Active; 'I' for Inactive)
REMARK    1  A    between atoms: C_1  and  C_2
REMARK    2  A    between atoms: C_2  and  C_3
REMARK    3  A    between atoms: C_3  and  C_4
REMARK    4  A    between atoms: C_6  and  O_26
REMARK    5  A    between atoms: C_8  and  S_10
REMARK    6  A    between atoms: S_10  and  C_11
REMARK    7  A    between atoms: C_11  and  C_13
REMARK    8  A    between atoms: C_11  and  C_14
REMARK    9  A    between atoms: N_16  and  C_17
REMARK   10  A    between atoms: C_20  and  C_24
REMARK                            x       y       z     vdW  Elec       q    Type
REMARK                         _______ _______ _______ _____ _____    ______ ____
ROOT
ATOM      1  C   UNL     1      -1.257   7.758  -0.159  0.00  0.00    +0.137 C 
ATOM      2  C   UNL     1      -1.061   8.368   1.230  0.00  0.00    +0.029 C 
ENDROOT
BRANCH   1   3
ATOM      3  C   UNL     1      -1.245   6.255  -0.054  0.00  0.00    +0.230 C 
ATOM      4  O   UNL     1      -2.289   5.638  -0.048  0.00  0.00    -0.274 OA
ATOM      5  N   UNL     1      -0.072   5.595   0.033  0.00  0.00    -0.285 N 
ATOM      6  H   UNL     1       0.759   6.090   0.095  0.00  0.00    +0.155 HD
BRANCH   5   7
ATOM      7  C   UNL     1      -0.055   4.200   0.034  0.00  0.00    +0.035 A 
ATOM      8  C   UNL     1       0.988   3.518  -0.585  0.00  0.00    +0.024 A 
ATOM      9  C   UNL     1       1.009   2.142  -0.587  0.00  0.00    +0.022 A 
ATOM     10  C   UNL     1      -0.020   1.428   0.035  0.00  0.00    +0.070 A 
ATOM     11  C   UNL     1      -1.070   2.116   0.651  0.00  0.00    +0.060 A 
ATOM     12  C   UNL     1      -1.081   3.494   0.654  0.00  0.00    +0.044 A 
ATOM     13 CL   UNL     1      -2.355   1.235   1.418  0.00  0.00    -0.082 Cl
BRANCH  10  14
ATOM     14  C   UNL     1      -0.001  -0.004   0.035  0.00  0.00    +0.101 C 
ATOM     15  N   UNL     1       0.014  -1.140   0.036  0.00  0.00    -0.191 NA
ENDBRANCH  10  14
ENDBRANCH   5   7
ENDBRANCH   1   3
BRANCH   1  16
ATOM     16  S   UNL     1      -2.845   8.302  -0.838  0.00  0.00    -0.073 S 
BRANCH  16  21
ATOM     17  C   UNL     1      -3.293  12.120  -1.601  0.00  0.00    +0.049 A 
ATOM     18  C   UNL     1      -2.076  12.660  -1.230  0.00  0.00    +0.090 A 
ATOM     19  C   UNL     1      -1.093  11.807  -0.729  0.00  0.00    +0.216 A 
ATOM     20  N   UNL     1      -1.357  10.511  -0.625  0.00  0.00    -0.187 NA
ATOM     21  C   UNL     1      -2.536  10.030  -0.992  0.00  0.00    +0.192 A 
ATOM     22  N   UNL     1      -3.487  10.816  -1.476  0.00  0.00    -0.227 NA
BRANCH  19  23
ATOM     23  O   UNL     1       0.114  12.296  -0.353  0.00  0.00    -0.492 OA
ATOM     24  H   UNL     1       0.771  12.309  -1.062  0.00  0.00    +0.294 HD
ENDBRANCH  19  23
BRANCH  17  25
ATOM     25  C   UNL     1      -4.384  13.003  -2.148  0.00  0.00    +0.055 C 
BRANCH  25  27
ATOM     26  C   UNL     1      -5.944  13.369  -4.066  0.00  0.00    +0.004 C 
ATOM     27  C   UNL     1      -4.836  12.472  -3.510  0.00  0.00    +0.003 C 
ENDBRANCH  25  27
ENDBRANCH  17  25
ENDBRANCH  16  21
ENDBRANCH   1  16
TORSDOF 8
