REMARK  Name = ZINC13065212
REMARK  13 active torsions:
REMARK  status: ('A' for Active; 'I' for Inactive)
REMARK    1  A    between atoms: C_1  and  C_2
REMARK    2  A    between atoms: C_2  and  C_3
REMARK    3  A    between atoms: C_3  and  C_5
REMARK    4  A    between atoms: C_3  and  N_76
REMARK    5  A    between atoms: N_9  and  C_10
REMARK    6  A    between atoms: C_16  and  C_17
REMARK    7  A    between atoms: C_16  and  N_76
REMARK    8  A    between atoms: C_22  and  O_23
REMARK    9  A    between atoms: O_23  and  C_24
REMARK   10  A    between atoms: C_25  and  C_26
REMARK   11  A    between atoms: C_25  and  N_76
REMARK   12  A    between atoms: C_29  and  C_39
REMARK   13  A    between atoms: C_32  and  C_38
REMARK                            x       y       z     vdW  Elec       q    Type
REMARK                         _______ _______ _______ _____ _____    ______ ____
ROOT
ATOM      1  N   UNL     1      -1.167   1.315  -1.110  0.00  0.00    +0.392 N 
ATOM      2  H   UNL     1      -1.987   0.888  -0.664  0.00  0.00    -0.080 HD
ENDROOT
BRANCH   1   3
ATOM      3  C   UNL     1      -1.425   2.756  -1.309  0.00  0.00    +0.003 C 
BRANCH   3   4
ATOM      4  C   UNL     1      -0.354   3.371  -2.173  0.00  0.00    +0.138 A 
ATOM      5  N   UNL     1       0.116   2.889  -3.298  0.00  0.00    -0.115 NA
ATOM      6  N   UNL     1       1.016   3.701  -3.733  0.00  0.00    -0.023 NA
ATOM      7  N   UNL     1       1.139   4.685  -2.911  0.00  0.00    -0.044 NA
ATOM      8  N   UNL     1       0.311   4.517  -1.936  0.00  0.00    -0.228 N 
BRANCH   8   9
ATOM      9  C   UNL     1       0.128   5.407  -0.787  0.00  0.00    +0.111 C 
ATOM     10  C   UNL     1      -0.298   6.792  -1.278  0.00  0.00    +0.027 C 
ATOM     11  C   UNL     1      -0.490   7.722  -0.078  0.00  0.00    +0.002 C 
ATOM     12  C   UNL     1       0.827   7.837   0.693  0.00  0.00    +0.000 C 
ATOM     13  C   UNL     1       1.253   6.452   1.184  0.00  0.00    +0.002 C 
ATOM     14  C   UNL     1       1.444   5.522  -0.016  0.00  0.00    +0.027 C 
ENDBRANCH   8   9
ENDBRANCH   3   4
BRANCH   3  16
ATOM     15  C   UNL     1      -3.887   2.417  -1.055  0.00  0.00    +0.002 C 
ATOM     16  C   UNL     1      -2.786   2.924  -1.988  0.00  0.00    -0.011 C 
ENDBRANCH   3  16
ENDBRANCH   1   3
BRANCH   1  17
ATOM     17  C   UNL     1       0.009   1.129  -0.233  0.00  0.00    -0.038 C 
BRANCH  17  18
ATOM     18  C   UNL     1      -0.386   1.463   1.183  0.00  0.00    -0.022 A 
ATOM     19  C   UNL     1       0.023   2.654   1.752  0.00  0.00    +0.005 A 
ATOM     20  C   UNL     1      -0.343   2.963   3.048  0.00  0.00    +0.000 A 
ATOM     21  C   UNL     1      -1.110   2.078   3.783  0.00  0.00    +0.004 A 
ATOM     22  C   UNL     1      -1.517   0.884   3.220  0.00  0.00    +0.046 A 
ATOM     23  C   UNL     1      -1.156   0.573   1.917  0.00  0.00    +0.121 A 
BRANCH  23  24
ATOM     24  O   UNL     1      -1.554  -0.601   1.361  0.00  0.00    -0.495 OA
ATOM     25  C   UNL     1      -2.345  -1.469   2.177  0.00  0.00    +0.277 C 
ENDBRANCH  23  24
ENDBRANCH  17  18
ENDBRANCH   1  17
BRANCH   1  26
ATOM     26  C   UNL     1      -0.933   0.659  -2.413  0.00  0.00    -0.036 C 
BRANCH  26  27
ATOM     27  C   UNL     1      -1.157  -0.823  -2.255  0.00  0.00    +0.001 A 
ATOM     28  C   UNL     1      -2.372  -1.357  -2.537  0.00  0.00    +0.017 A 
ATOM     29  C   UNL     1      -2.555  -2.800  -2.377  0.00  0.00    +0.002 A 
ATOM     30  C   UNL     1      -3.783  -3.409  -2.658  0.00  0.00    -0.041 A 
ATOM     31  C   UNL     1      -3.923  -4.758  -2.494  0.00  0.00    +0.004 A 
ATOM     32  C   UNL     1      -2.857  -5.531  -2.051  0.00  0.00    +0.005 A 
ATOM     33  C   UNL     1      -1.639  -4.952  -1.768  0.00  0.00    -0.026 A 
ATOM     34  C   UNL     1      -1.473  -3.580  -1.927  0.00  0.00    +0.052 A 
ATOM     35  N   UNL     1      -0.265  -2.976  -1.653  0.00  0.00    -0.322 N 
ATOM     36  H   UNL     1       0.480  -3.514  -1.343  0.00  0.00    +0.169 HD
ATOM     37  C   UNL     1      -0.104  -1.650  -1.807  0.00  0.00    +0.251 A 
ATOM     38  O   UNL     1       0.978  -1.149  -1.554  0.00  0.00    -0.268 OA
ATOM     39  C   UNL     1      -0.491  -5.803  -1.288  0.00  0.00    +0.046 C 
ATOM     40  C   UNL     1      -4.946  -2.581  -3.139  0.00  0.00    +0.044 C 
ENDBRANCH  26  27
ENDBRANCH   1  26
TORSDOF 9
