REMARK  Name = ZINC03190513
REMARK  8 active torsions:
REMARK  status: ('A' for Active; 'I' for Inactive)
REMARK    1  A    between atoms: C_1  and  C_2
REMARK    2  A    between atoms: C_2  and  N_3
REMARK    3  A    between atoms: P_10  and  N_23
REMARK    4  A    between atoms: N_12  and  C_15
REMARK    5  A    between atoms: N_23  and  C_24
REMARK    6  A    between atoms: N_23  and  C_26
REMARK    7  A    between atoms: C_24  and  C_25
REMARK    8  A    between atoms: C_26  and  C_27
REMARK                            x       y       z     vdW  Elec       q    Type
REMARK                         _______ _______ _______ _____ _____    ______ ____
ROOT
ATOM      1  N   UNL     1       3.135   0.152   0.497  0.00  0.00    -0.254 N 
ATOM      2  C   UNL     1       4.275  -0.213  -0.207  0.00  0.00    +0.052 A 
ATOM      3  C   UNL     1       4.854  -1.466  -0.062  0.00  0.00    +0.073 A 
ATOM      4  C   UNL     1       5.995  -1.791  -0.783  0.00  0.00    +0.164 A 
ATOM      5  C   UNL     1       6.566  -0.870  -1.655  0.00  0.00    +0.163 A 
ATOM      6  C   UNL     1       5.990   0.388  -1.805  0.00  0.00    +0.062 A 
ATOM      7  C   UNL     1       4.870   0.694  -1.089  0.00  0.00    +0.039 A 
ATOM      8  P   UNL     1       4.027   2.311  -1.202  0.00  0.00    +0.114 P 
ATOM      9  S   UNL     1       5.226   3.650  -0.711  0.00  0.00    -0.024 S 
ATOM     10  N   UNL     1       2.687   2.398  -0.216  0.00  0.00    -0.212 N 
ATOM     11  C   UNL     1       2.443   1.278   0.504  0.00  0.00    +0.318 C 
ATOM     12  O   UNL     1       1.474   1.310   1.238  0.00  0.00    -0.251 OA
ATOM     13  O   UNL     1       7.681  -1.180  -2.369  0.00  0.00    -0.485 OA
ATOM     14  C   UNL     1       8.441  -2.308  -1.920  0.00  0.00    +0.270 C 
ATOM     15  C   UNL     1       7.465  -3.458  -1.631  0.00  0.00    +0.270 C 
ATOM     16  O   UNL     1       6.548  -3.025  -0.621  0.00  0.00    -0.485 OA
ENDROOT
BRANCH  10  17
ATOM     17  C   UNL     1       1.881   3.539  -0.134  0.00  0.00    +0.045 A 
ATOM     18  C   UNL     1       0.532   3.418   0.173  0.00  0.00    +0.025 A 
ATOM     19  C   UNL     1      -0.262   4.545   0.248  0.00  0.00    +0.023 A 
ATOM     20  C   UNL     1       0.287   5.796   0.028  0.00  0.00    +0.059 A 
ATOM     21  C   UNL     1       1.631   5.921  -0.278  0.00  0.00    +0.061 A 
ATOM     22  C   UNL     1       2.430   4.795  -0.359  0.00  0.00    +0.045 A 
ATOM     23 CL   UNL     1       2.316   7.491  -0.559  0.00  0.00    -0.082 Cl
ATOM     24 CL   UNL     1      -0.713   7.212   0.130  0.00  0.00    -0.082 Cl
ENDBRANCH  10  17
BRANCH   1  26
ATOM     25  C   UNL     1       1.709  -1.833   0.591  0.00  0.00    +0.025 C 
ATOM     26  C   UNL     1       2.611  -0.888   1.386  0.00  0.00    +0.112 C 
ENDBRANCH   1  26
BRANCH   8  27
ATOM     27  N   UNL     1       3.549   2.567  -2.796  0.00  0.00    -0.260 NA
BRANCH  27  28
ATOM     28  C   UNL     1       4.714   2.717  -3.678  0.00  0.00    +0.087 C 
ATOM     29  C   UNL     1       5.280   4.131  -3.538  0.00  0.00    +0.021 C 
ENDBRANCH  27  28
BRANCH  27  30
ATOM     30  C   UNL     1       2.672   1.484  -3.262  0.00  0.00    +0.087 C 
ATOM     31  C   UNL     1       1.273   1.671  -2.671  0.00  0.00    +0.021 C 
ENDBRANCH  27  30
ENDBRANCH   8  27
TORSDOF 5
