REMARK  Name = ZINC09042220
REMARK  8 active torsions:
REMARK  status: ('A' for Active; 'I' for Inactive)
REMARK    1  A    between atoms: C_1  and  C_2
REMARK    2  A    between atoms: C_2  and  N_58
REMARK    3  A    between atoms: C_15  and  C_17
REMARK    4  A    between atoms: C_18  and  O_34
REMARK    5  A    between atoms: C_20  and  O_33
REMARK    6  A    between atoms: N_21  and  C_24
REMARK    7  A    between atoms: C_24  and  C_26
REMARK    8  A    between atoms: C_24  and  C_27
REMARK                            x       y       z     vdW  Elec       q    Type
REMARK                         _______ _______ _______ _____ _____    ______ ____
ROOT
ATOM      1  C   UNL     1       5.084  -2.955  -1.447  0.00  0.00    +0.071 A 
ATOM      2  C   UNL     1       6.447  -3.044  -1.221  0.00  0.00    +0.224 A 
ATOM      3  N   UNL     1       7.288  -3.117  -2.258  0.00  0.00    -0.161 NA
ATOM      4  C   UNL     1       6.847  -3.096  -3.496  0.00  0.00    +0.302 A 
ATOM      5  N   UNL     1       5.521  -3.005  -3.773  0.00  0.00    -0.255 N 
ATOM      6  C   UNL     1       4.622  -2.933  -2.769  0.00  0.00    +0.263 A 
ATOM      7  O   UNL     1       3.428  -2.851  -3.009  0.00  0.00    -0.267 OA
ENDROOT
BRANCH   1  20
ATOM      8  C   UNL     1       2.020  -3.766   0.556  0.00  0.00    -0.073 C 
ATOM      9  C   UNL     1       1.165  -2.547   0.182  0.00  0.00    +0.019 C 
ATOM     10  C   UNL     1       2.098  -1.394  -0.090  0.00  0.00    -0.022 A 
ATOM     11  C   UNL     1       1.790   0.027  -0.175  0.00  0.00    +0.003 A 
ATOM     12  C   UNL     1       0.624   0.785  -0.051  0.00  0.00    +0.010 A 
ATOM     13  C   UNL     1       0.676   2.143  -0.190  0.00  0.00    +0.001 A 
ATOM     14  C   UNL     1       1.882   2.779  -0.453  0.00  0.00    +0.002 A 
ATOM     15  C   UNL     1       3.045   2.053  -0.581  0.00  0.00    +0.026 A 
ATOM     16  C   UNL     1       3.016   0.669  -0.444  0.00  0.00    +0.047 A 
ATOM     17  N   UNL     1       3.984  -0.310  -0.514  0.00  0.00    -0.359 N 
ATOM     18  H   UNL     1       4.925  -0.152  -0.688  0.00  0.00    +0.166 HD
ATOM     19  C   UNL     1       3.422  -1.535  -0.302  0.00  0.00    +0.011 A 
ATOM     20  C   UNL     1       4.117  -2.877  -0.293  0.00  0.00    +0.021 C 
ATOM     21  N   UNL     1       3.085  -3.929  -0.459  0.00  0.00    +0.388 N 
ATOM     22  H   UNL     1       2.669  -3.841  -1.394  0.00  0.00    -0.080 HD
BRANCH  21  24
ATOM     23  C   UNL     1       4.181  -5.505   1.101  0.00  0.00    -0.017 C 
ATOM     24  C   UNL     1       3.702  -5.265  -0.332  0.00  0.00    -0.081 C 
ENDBRANCH  21  24
ENDBRANCH   1  20
BRANCH   5  25
ATOM     25  C   UNL     1       5.065  -2.985  -5.165  0.00  0.00    +0.122 C 
ATOM     26  C   UNL     1       5.619  -1.742  -5.865  0.00  0.00    +0.036 C 
BRANCH  25  27
ATOM     27  C   UNL     1       5.556  -4.221  -5.873  0.00  0.00    -0.025 A 
ATOM     28  C   UNL     1       5.930  -4.154  -7.202  0.00  0.00    +0.005 A 
ATOM     29  C   UNL     1       6.385  -5.287  -7.851  0.00  0.00    +0.000 A 
ATOM     30  C   UNL     1       6.457  -6.489  -7.172  0.00  0.00    +0.000 A 
ATOM     31  C   UNL     1       6.078  -6.557  -5.845  0.00  0.00    +0.000 A 
ATOM     32  C   UNL     1       5.628  -5.423  -5.195  0.00  0.00    +0.005 A 
ENDBRANCH  25  27
ENDBRANCH   5  25
BRANCH   4  33
ATOM     33  O   UNL     1       7.731  -3.167  -4.512  0.00  0.00    -0.479 OA
ATOM     34  H   UNL     1       8.667  -3.231  -4.277  0.00  0.00    +0.295 HD
ENDBRANCH   4  33
BRANCH   2  35
ATOM     35  O   UNL     1       6.925  -3.061   0.045  0.00  0.00    -0.492 OA
ATOM     36  H   UNL     1       7.888  -3.125   0.100  0.00  0.00    +0.294 HD
ENDBRANCH   2  35
TORSDOF 6
