REMARK  Name = ZINC13638218
REMARK  8 active torsions:
REMARK  status: ('A' for Active; 'I' for Inactive)
REMARK    1  A    between atoms: C_1  and  N_2
REMARK    2  A    between atoms: N_2  and  C_3
REMARK    3  A    between atoms: N_2  and  S_4
REMARK    4  A    between atoms: S_4  and  C_7
REMARK    5  A    between atoms: C_11  and  N_13
REMARK    6  A    between atoms: N_15  and  N_16
REMARK    7  A    between atoms: C_17  and  C_18
REMARK    8  A    between atoms: C_23  and  O_24
REMARK                            x       y       z     vdW  Elec       q    Type
REMARK                         _______ _______ _______ _____ _____    ______ ____
ROOT
ATOM      1  N   UNL     1      -1.394  -3.587  -4.340  0.00  0.00    -0.294 N 
ATOM      2  C   UNL     1      -2.307  -4.517  -4.760  0.00  0.00    +0.163 C 
ATOM      3  N   UNL     1      -1.881  -5.684  -5.332  0.00  0.00    -0.258 N 
ATOM      4  S   UNL     1      -3.931  -4.229  -4.575  0.00  0.00    -0.014 SA
ATOM      5  H   UNL     1      -0.496  -3.864  -4.098  0.00  0.00    +0.154 HD
ATOM      6  H   UNL     1      -0.932  -5.853  -5.441  0.00  0.00    +0.191 HD
ENDROOT
BRANCH   1  11
ATOM      7  C   UNL     1      -1.578  -0.100  -3.190  0.00  0.00    +0.107 A 
ATOM      8  C   UNL     1      -2.472   0.429  -4.103  0.00  0.00    +0.028 A 
ATOM      9  C   UNL     1      -3.008  -0.371  -5.095  0.00  0.00    +0.004 A 
ATOM     10  C   UNL     1      -2.653  -1.704  -5.176  0.00  0.00    +0.023 A 
ATOM     11  C   UNL     1      -1.756  -2.238  -4.261  0.00  0.00    +0.035 A 
ATOM     12  C   UNL     1      -1.215  -1.430  -3.269  0.00  0.00    +0.051 A 
BRANCH   7  13
ATOM     13  S   UNL     1      -0.898   0.925  -1.929  0.00  0.00    +0.060 S 
ATOM     14  O   UNL     1      -0.502   0.060  -0.872  0.00  0.00    -0.153 OA
ATOM     15  O   UNL     1      -1.814   1.994  -1.736  0.00  0.00    -0.153 OA
BRANCH  13  17
ATOM     16  C   UNL     1       0.435   2.875  -3.246  0.00  0.00    +0.131 C 
ATOM     17  N   UNL     1       0.489   1.594  -2.537  0.00  0.00    -0.183 NA
ATOM     18  C   UNL     1       1.771   0.905  -2.366  0.00  0.00    +0.131 C 
ENDBRANCH  13  17
ENDBRANCH   7  13
ENDBRANCH   1  11
BRANCH   3  19
ATOM     19  N   UNL     1      -2.815  -6.636  -5.762  0.00  0.00    -0.180 NA
ATOM     20  C   UNL     1      -2.410  -7.743  -6.305  0.00  0.00    +0.144 C 
BRANCH  20  21
ATOM     21  C   UNL     1      -3.393  -8.744  -6.757  0.00  0.00    +0.037 A 
ATOM     22  C   UNL     1      -2.962  -9.940  -7.336  0.00  0.00    +0.028 A 
ATOM     23  C   UNL     1      -3.887 -10.873  -7.757  0.00  0.00    +0.019 A 
ATOM     24  C   UNL     1      -5.242 -10.628  -7.607  0.00  0.00    +0.019 A 
ATOM     25  C   UNL     1      -5.681  -9.449  -7.035  0.00  0.00    +0.047 A 
ATOM     26  C   UNL     1      -4.765  -8.504  -6.602  0.00  0.00    +0.126 A 
ATOM     27 BR   UNL     1      -3.303 -12.491  -8.541  0.00  0.00    -0.050 Br
BRANCH  26  28
ATOM     28  O   UNL     1      -5.195  -7.348  -6.035  0.00  0.00    -0.506 OA
ATOM     29  H   UNL     1      -5.343  -6.631  -6.667  0.00  0.00    +0.292 HD
ENDBRANCH  26  28
ENDBRANCH  20  21
ENDBRANCH   3  19
TORSDOF 6
