REMARK  Name = ZINC17082686
REMARK  4 active torsions:
REMARK  status: ('A' for Active; 'I' for Inactive)
REMARK    1  A    between atoms: C_1  and  O_2
REMARK    2  A    between atoms: O_2  and  C_3
REMARK    3  A    between atoms: C_8  and  C_9
REMARK    4  A    between atoms: C_14  and  C_24
REMARK                            x       y       z     vdW  Elec       q    Type
REMARK                         _______ _______ _______ _____ _____    ______ ____
ROOT
ATOM      1  C   UNL     1       0.052  -2.828   0.005  0.00  0.00    +0.035 C 
ATOM      2  C   UNL     1       1.111  -3.713  -0.653  0.00  0.00    +0.060 C 
ATOM      3  C   UNL     1       0.469  -4.538  -1.756  0.00  0.00    +0.017 C 
ATOM      4  C   UNL     1      -0.771  -5.029  -1.611  0.00  0.00    +0.033 C 
ATOM      5  C   UNL     1      -1.529  -5.964  -2.524  0.00  0.00    +0.152 C 
ATOM      6  S   UNL     1      -0.515  -6.743  -3.793  0.00  0.00    -0.107 S 
ATOM      7  C   UNL     1       0.059  -5.405  -4.784  0.00  0.00    +0.030 A 
ATOM      8  C   UNL     1      -0.263  -5.313  -6.128  0.00  0.00    +0.016 A 
ATOM      9  C   UNL     1       0.193  -4.225  -6.854  0.00  0.00    +0.001 A 
ATOM     10  C   UNL     1       0.950  -3.243  -6.242  0.00  0.00    +0.002 A 
ATOM     11  C   UNL     1       1.278  -3.342  -4.899  0.00  0.00    +0.024 A 
ATOM     12  C   UNL     1       0.841  -4.442  -4.180  0.00  0.00    +0.045 A 
ATOM     13  N   UNL     1       1.215  -4.680  -2.870  0.00  0.00    -0.317 N 
ATOM     14  C   UNL     1      -1.531  -4.661  -0.469  0.00  0.00    +0.163 C 
ATOM     15  O   UNL     1      -2.656  -5.106  -0.357  0.00  0.00    -0.292 OA
ATOM     16  C   UNL     1      -1.016  -3.751   0.601  0.00  0.00    +0.088 C 
ATOM     17  H   UNL     1       2.126  -4.986  -2.736  0.00  0.00    +0.152 HD
ENDROOT
BRANCH   1  23
ATOM     18  C   UNL     1       0.626  -0.618   1.042  0.00  0.00    +0.124 A 
ATOM     19  C   UNL     1       1.202   0.139   2.051  0.00  0.00    +0.046 A 
ATOM     20  C   UNL     1       1.835  -0.488   3.107  0.00  0.00    +0.004 A 
ATOM     21  C   UNL     1       1.895  -1.869   3.158  0.00  0.00    +0.001 A 
ATOM     22  C   UNL     1       1.321  -2.625   2.153  0.00  0.00    +0.007 A 
ATOM     23  C   UNL     1       0.682  -2.003   1.097  0.00  0.00    -0.002 A 
BRANCH  18  25
ATOM     24  C   UNL     1      -0.017   1.425   0.010  0.00  0.00    +0.277 C 
ATOM     25  O   UNL     1       0.002  -0.004   0.002  0.00  0.00    -0.495 OA
ENDBRANCH  18  25
ENDBRANCH   1  23
BRANCH   5  26
ATOM     26  C   UNL     1      -2.626  -5.185  -3.203  0.00  0.00    +0.123 A 
ATOM     27  C   UNL     1      -3.944  -5.439  -3.112  0.00  0.00    +0.046 A 
ATOM     28  C   UNL     1      -4.604  -4.470  -3.902  0.00  0.00    +0.041 A 
ATOM     29  C   UNL     1      -3.650  -3.682  -4.429  0.00  0.00    +0.195 A 
ATOM     30  O   UNL     1      -2.454  -4.116  -3.998  0.00  0.00    -0.466 OA
ENDBRANCH   5  26
TORSDOF 3
