REMARK  Name = ZINC08338879
REMARK  6 active torsions:
REMARK  status: ('A' for Active; 'I' for Inactive)
REMARK    1  A    between atoms: C_1  and  C_2
REMARK    2  A    between atoms: C_2  and  C_4
REMARK    3  A    between atoms: C_2  and  N_17
REMARK    4  A    between atoms: N_6  and  C_7
REMARK    5  A    between atoms: C_11  and  S_13
REMARK    6  A    between atoms: S_13  and  N_16
REMARK                            x       y       z     vdW  Elec       q    Type
REMARK                         _______ _______ _______ _____ _____    ______ ____
ROOT
ATOM      1  C   UNL     1      -1.411  -0.527   0.012  0.00  0.00    +0.203 C 
ATOM      2  O   UNL     1      -1.787  -1.242   0.917  0.00  0.00    -0.277 OA
ATOM      3  N   UNL     1      -2.256  -0.206  -0.988  0.00  0.00    -0.287 N 
ATOM      4  H   UNL     1      -1.977   0.418  -1.677  0.00  0.00    +0.155 HD
ENDROOT
BRANCH   3   5
ATOM      5  C   UNL     1      -3.534  -0.773  -1.034  0.00  0.00    +0.035 A 
ATOM      6  C   UNL     1      -4.114  -1.085  -2.257  0.00  0.00    +0.023 A 
ATOM      7  C   UNL     1      -5.375  -1.644  -2.299  0.00  0.00    +0.004 A 
ATOM      8  C   UNL     1      -6.062  -1.895  -1.124  0.00  0.00    +0.028 A 
ATOM      9  C   UNL     1      -5.487  -1.586   0.095  0.00  0.00    +0.107 A 
ATOM     10  C   UNL     1      -4.223  -1.032   0.143  0.00  0.00    +0.051 A 
BRANCH   9  11
ATOM     11  S   UNL     1      -6.366  -1.906   1.588  0.00  0.00    +0.056 S 
ATOM     12  O   UNL     1      -5.835  -1.025   2.568  0.00  0.00    -0.153 OA
ATOM     13  O   UNL     1      -7.746  -1.929   1.250  0.00  0.00    -0.153 OA
BRANCH  11  14
ATOM     14  N   UNL     1      -5.971  -3.441   2.068  0.00  0.00    -0.204 NA
ATOM     15  H   UNL     1      -5.355  -3.972   1.539  0.00  0.00    +0.144 HD
ATOM     16  H   UNL     1      -6.356  -3.810   2.879  0.00  0.00    +0.144 HD
ENDBRANCH  11  14
ENDBRANCH   9  11
ENDBRANCH   3   5
BRANCH   1  18
ATOM     17  C   UNL     1      -0.028   1.531   0.022  0.00  0.00    -0.004 C 
ATOM     18  C   UNL     1       0.000   0.002   0.005  0.00  0.00    +0.016 C 
BRANCH  18  19
ATOM     19  N   UNL     1       0.712  -0.488   1.194  0.00  0.00    +0.387 N 
ATOM     20  C   UNL     1       0.728  -1.957   1.181  0.00  0.00    -0.078 C 
ATOM     21  C   UNL     1       1.764  -2.484   2.173  0.00  0.00    -0.019 C 
ATOM     22  C   UNL     1       1.208  -2.374   3.597  0.00  0.00    -0.002 C 
ATOM     23  C   UNL     1       1.255  -0.908   4.028  0.00  0.00    -0.000 C 
ATOM     24  C   UNL     1       2.597  -0.305   3.608  0.00  0.00    -0.002 C 
ATOM     25  C   UNL     1       2.371   0.737   2.516  0.00  0.00    -0.019 C 
ATOM     26  C   UNL     1       2.087   0.029   1.186  0.00  0.00    -0.078 C 
ATOM     27  H   UNL     1       0.238  -0.166   2.024  0.00  0.00    -0.081 HD
ENDBRANCH  18  19
ENDBRANCH   1  18
TORSDOF 5
