REMARK  Name = ZINC32915035
REMARK  5 active torsions:
REMARK  status: ('A' for Active; 'I' for Inactive)
REMARK    1  A    between atoms: C_1  and  C_2
REMARK    2  A    between atoms: C_2  and  C_3
REMARK    3  A    between atoms: C_2  and  C_4
REMARK    4  A    between atoms: C_2  and  O_5
REMARK    5  A    between atoms: O_5  and  C_6
REMARK                            x       y       z     vdW  Elec       q    Type
REMARK                         _______ _______ _______ _____ _____    ______ ____
ROOT
ATOM      1  C   UNL     1      -0.171   1.633   2.390  0.00  0.00    +0.403 C 
ATOM      2  O   UNL     1       0.831   0.945   2.425  0.00  0.00    -0.226 OA
ATOM      3  N   UNL     1      -0.753   2.034   3.537  0.00  0.00    -0.266 N 
ATOM      4  C   UNL     1      -1.961   2.872   3.640  0.00  0.00    +0.112 C 
ATOM      5  C   UNL     1      -2.557   2.535   5.032  0.00  0.00    +0.034 C 
ATOM      6  C   UNL     1      -1.273   2.362   5.885  0.00  0.00    +0.071 C 
ATOM      7  C   UNL     1      -0.284   1.714   4.894  0.00  0.00    +0.125 C 
ATOM      8  I   UNL     1      -1.640   1.053   7.566  0.00  0.00    -0.080 I 
ENDROOT
BRANCH   1   9
ATOM      9  O   UNL     1      -0.698   1.994   1.205  0.00  0.00    -0.445 OA
BRANCH   9  11
ATOM     10  C   UNL     1       0.002  -0.004   0.002  0.00  0.00    +0.055 C 
ATOM     11  C   UNL     1      -0.019   1.526   0.010  0.00  0.00    +0.107 C 
ATOM     12  C   UNL     1       1.417   2.055  -0.000  0.00  0.00    +0.055 C 
ATOM     13  C   UNL     1      -0.759   2.033  -1.229  0.00  0.00    +0.055 C 
ENDBRANCH   9  11
ENDBRANCH   1   9
TORSDOF 2
