REMARK  Name = ZINC33939413
REMARK  13 active torsions:
REMARK  status: ('A' for Active; 'I' for Inactive)
REMARK    1  A    between atoms: C_1  and  C_2
REMARK    2  A    between atoms: C_2  and  C_4
REMARK    3  A    between atoms: C_2  and  C_12
REMARK    4  A    between atoms: C_5  and  C_6
REMARK    5  A    between atoms: C_6  and  C_8
REMARK    6  A    between atoms: C_6  and  C_9
REMARK    7  A    between atoms: C_9  and  C_10
REMARK    8  A    between atoms: C_9  and  C_11
REMARK    9  A    between atoms: C_18  and  C_43
REMARK   10  A    between atoms: C_27  and  C_42
REMARK   11  A    between atoms: C_30  and  O_33
REMARK   12  A    between atoms: O_33  and  C_34
REMARK   13  A    between atoms: C_34  and  C_36
REMARK                            x       y       z     vdW  Elec       q    Type
REMARK                         _______ _______ _______ _____ _____    ______ ____
ROOT
ATOM      1  C   UNL     1       0.897  -0.228   1.214  0.00  0.00    +0.002 C 
ATOM      2  C   UNL     1       1.078  -1.764   1.278  0.00  0.00    +0.005 C 
ATOM      3  C   UNL     1       0.246  -2.253   2.493  0.00  0.00    +0.009 C 
ATOM      4  C   UNL     1      -0.808  -1.150   2.664  0.00  0.00    +0.021 C 
ATOM      5  C   UNL     1       0.039   0.131   2.423  0.00  0.00    -0.022 C 
ATOM      6  C   UNL     1      -0.865   1.329   2.281  0.00  0.00    +0.008 C 
ATOM      7  C   UNL     1      -2.008   1.248   3.300  0.00  0.00    +0.009 C 
ATOM      8  C   UNL     1      -1.590   0.414   4.515  0.00  0.00    +0.025 C 
ATOM      9  C   UNL     1      -1.363  -1.030   4.055  0.00  0.00    -0.062 C 
ATOM     10  C   UNL     1      -1.578  -2.071   4.829  0.00  0.00    -0.000 C 
ATOM     11  C   UNL     1      -2.207  -1.911   6.149  0.00  0.00    -0.000 C 
ATOM     12  C   UNL     1      -2.700  -0.743   6.505  0.00  0.00    -0.060 C 
ATOM     13  C   UNL     1      -2.578   0.498   5.629  0.00  0.00    -0.004 C 
ATOM     14  C   UNL     1      -3.983   0.951   5.277  0.00  0.00    +0.015 C 
ATOM     15  C   UNL     1      -4.741   1.214   6.587  0.00  0.00    +0.046 C 
ATOM     16  C   UNL     1      -4.814  -0.047   7.444  0.00  0.00    +0.181 C 
ATOM     17  C   UNL     1      -3.448  -0.561   7.814  0.00  0.00    +0.076 C 
ATOM     18  C   UNL     1      -2.046   1.602   6.545  0.00  0.00    +0.016 C 
ATOM     19  C   UNL     1       0.951   0.358   3.631  0.00  0.00    +0.012 C 
ENDROOT
BRANCH   1  21
ATOM     20  C   UNL     1      -1.247  -0.379  -0.060  0.00  0.00    +0.012 C 
ATOM     21  C   UNL     1       0.181   0.168  -0.079  0.00  0.00    +0.012 C 
BRANCH  21  22
ATOM     22  C   UNL     1       0.142   1.671  -0.192  0.00  0.00    -0.027 C 
ATOM     23  C   UNL     1       0.599   2.259  -1.269  0.00  0.00    -0.027 C 
BRANCH  23  24
ATOM     24  C   UNL     1       0.559   3.761  -1.382  0.00  0.00    +0.011 C 
ATOM     25  C   UNL     1      -0.287   4.160  -2.592  0.00  0.00    +0.012 C 
BRANCH  24  26
ATOM     26  C   UNL     1       1.982   4.297  -1.555  0.00  0.00    -0.011 C 
ATOM     27  C   UNL     1       1.942   5.823  -1.669  0.00  0.00    +0.008 C 
ATOM     28  C   UNL     1       2.828   3.899  -0.345  0.00  0.00    +0.008 C 
ENDBRANCH  24  26
ENDBRANCH  23  24
ENDBRANCH  21  22
ENDBRANCH   1  21
BRANCH  16  29
ATOM     29  O   UNL     1      -5.546   0.238   8.638  0.00  0.00    -0.458 OA
BRANCH  29  30
ATOM     30  C   UNL     1      -6.237  -0.778   9.190  0.00  0.00    +0.339 C 
ATOM     31  O   UNL     1      -6.218  -1.877   8.672  0.00  0.00    -0.245 OA
BRANCH  30  32
ATOM     32  C   UNL     1      -7.017  -0.557  10.425  0.00  0.00    +0.059 A 
ATOM     33  C   UNL     1      -7.045   0.706  11.020  0.00  0.00    +0.015 A 
ATOM     34  C   UNL     1      -7.775   0.906  12.173  0.00  0.00    +0.001 A 
ATOM     35  C   UNL     1      -8.479  -0.142  12.740  0.00  0.00    +0.000 A 
ATOM     36  C   UNL     1      -8.455  -1.396  12.156  0.00  0.00    +0.001 A 
ATOM     37  C   UNL     1      -7.734  -1.608  11.000  0.00  0.00    +0.015 A 
ENDBRANCH  30  32
ENDBRANCH  29  30
ENDBRANCH  16  29
TORSDOF 7
