REMARK  Name = ZINC01023008
REMARK  7 active torsions:
REMARK  status: ('A' for Active; 'I' for Inactive)
REMARK    1  A    between atoms: C_1  and  C_2
REMARK    2  A    between atoms: C_2  and  C_4
REMARK    3  A    between atoms: C_2  and  C_27
REMARK    4  A    between atoms: N_5  and  N_6
REMARK    5  A    between atoms: C_7  and  C_9
REMARK    6  A    between atoms: C_10  and  C_20
REMARK    7  A    between atoms: C_20  and  N_59
REMARK                            x       y       z     vdW  Elec       q    Type
REMARK                         _______ _______ _______ _____ _____    ______ ____
ROOT
ATOM      1  C   UNL     1      -1.552   6.349   3.209  0.00  0.00    +0.170 A 
ATOM      2  C   UNL     1      -0.591   5.780   2.422  0.00  0.00    +0.063 A 
ATOM      3  N   UNL     1       0.535   5.716   3.166  0.00  0.00    -0.194 N 
ATOM      4  N   UNL     1       0.227   6.271   4.416  0.00  0.00    -0.058 NA
ATOM      5  N   UNL     1      -1.010   6.630   4.407  0.00  0.00    -0.124 NA
ATOM      6  C   UNL     1       1.772   5.199   2.764  0.00  0.00    +0.240 A 
ATOM      7  C   UNL     1       2.951   5.033   3.620  0.00  0.00    +0.206 A 
ATOM      8  N   UNL     1       3.912   4.523   2.900  0.00  0.00    -0.032 NA
ATOM      9  O   UNL     1       3.418   4.340   1.584  0.00  0.00    -0.239 OA
ATOM     10  N   UNL     1       2.071   4.778   1.568  0.00  0.00    -0.027 NA
ATOM     11  N   UNL     1       3.031   5.363   4.968  0.00  0.00    -0.337 N 
ATOM     12  H   UNL     1       2.261   5.739   5.422  0.00  0.00    +0.144 HD
ATOM     13  H   UNL     1       3.857   5.216   5.455  0.00  0.00    +0.144 HD
ENDROOT
BRANCH   1  15
ATOM     14  N   UNL     1      -3.801   7.182   3.685  0.00  0.00    -0.202 N 
ATOM     15  C   UNL     1      -2.947   6.612   2.811  0.00  0.00    +0.285 C 
ATOM     16  O   UNL     1      -3.328   6.315   1.695  0.00  0.00    -0.267 OA
ATOM     17  H   UNL     1      -3.497   7.420   4.575  0.00  0.00    +0.178 HD
BRANCH  14  19
ATOM     18  C   UNL     1      -5.937   7.973   4.137  0.00  0.00    +0.111 C 
ATOM     19  N   UNL     1      -5.127   7.432   3.307  0.00  0.00    -0.192 NA
BRANCH  18  21
ATOM     20  C   UNL     1      -7.649   9.742   3.831  0.00  0.00    +0.018 C 
ATOM     21  C   UNL     1      -7.364   8.242   3.731  0.00  0.00    +0.059 C 
BRANCH  21  22
ATOM     22  C   UNL     1      -8.296   7.491   4.646  0.00  0.00    -0.039 A 
ATOM     23  C   UNL     1      -8.279   7.740   6.006  0.00  0.00    +0.004 A 
ATOM     24  C   UNL     1      -9.138   7.054   6.845  0.00  0.00    +0.000 A 
ATOM     25  C   UNL     1     -10.007   6.114   6.325  0.00  0.00    +0.000 A 
ATOM     26  C   UNL     1     -10.021   5.862   4.966  0.00  0.00    +0.000 A 
ATOM     27  C   UNL     1      -9.165   6.550   4.127  0.00  0.00    +0.004 A 
ENDBRANCH  21  22
ENDBRANCH  18  21
ENDBRANCH  14  19
ENDBRANCH   1  15
BRANCH   2  28
ATOM     28  C   UNL     1      -0.758   5.308   1.000  0.00  0.00    -0.020 C 
BRANCH  28  35
ATOM     29  C   UNL     1      -0.410   2.970   1.568  0.00  0.00    -0.078 C 
ATOM     30  C   UNL     1      -0.855   1.550   1.339  0.00  0.00    -0.019 C 
ATOM     31  C   UNL     1      -0.183   1.029   0.052  0.00  0.00    -0.002 C 
ATOM     32  C   UNL     1      -0.850   1.515  -1.151  0.00  0.00    -0.002 C 
ATOM     33  C   UNL     1      -0.817   3.054  -1.255  0.00  0.00    -0.019 C 
ATOM     34  C   UNL     1      -1.872   3.617  -0.343  0.00  0.00    -0.078 C 
ATOM     35  N   UNL     1      -1.388   3.978   1.033  0.00  0.00    +0.383 N 
ATOM     36  H   UNL     1      -2.197   4.011   1.663  0.00  0.00    -0.081 HD
ENDBRANCH  28  35
ENDBRANCH   2  28
TORSDOF 6
