REMARK  Name = ZINC22343501
REMARK  11 active torsions:
REMARK  status: ('A' for Active; 'I' for Inactive)
REMARK    1  A    between atoms: C_1  and  C_2
REMARK    2  A    between atoms: C_9  and  C_35
REMARK    3  A    between atoms: C_9  and  C_36
REMARK    4  A    between atoms: C_11  and  N_13
REMARK    5  A    between atoms: C_14  and  C_16
REMARK    6  A    between atoms: C_16  and  N_17
REMARK    7  A    between atoms: N_17  and  C_18
REMARK    8  A    between atoms: N_17  and  S_24
REMARK    9  A    between atoms: S_24  and  C_27
REMARK   10  A    between atoms: C_30  and  O_33
REMARK   11  A    between atoms: O_33  and  C_34
REMARK                            x       y       z     vdW  Elec       q    Type
REMARK                         _______ _______ _______ _____ _____    ______ ____
ROOT
ATOM      1  C   UNL     1      -2.887  -0.590  -0.421  0.00  0.00    +0.227 C 
ENDROOT
BRANCH   1   3
ATOM      2  N   UNL     1      -2.567  -2.868   0.489  0.00  0.00    -0.307 N 
ATOM      3  C   UNL     1      -2.409  -1.539   0.648  0.00  0.00    +0.233 C 
ATOM      4  O   UNL     1      -1.883  -1.106   1.651  0.00  0.00    -0.274 OA
ATOM      5  H   UNL     1      -3.045  -3.260  -0.420  0.00  0.00    +0.149 HD
BRANCH   2  16
ATOM      6  C   UNL     1       3.534  -4.810   0.721  0.00  0.00    +0.044 C 
ATOM      7  C   UNL     1       2.064  -4.554   0.932  0.00  0.00    -0.047 A 
ATOM      8  C   UNL     1       1.556  -3.276   0.788  0.00  0.00    +0.004 A 
ATOM      9  C   UNL     1       0.209  -3.043   0.983  0.00  0.00    +0.009 A 
ATOM     10  C   UNL     1      -0.639  -4.084   1.321  0.00  0.00    +0.015 A 
ATOM     11  C   UNL     1      -0.135  -5.365   1.463  0.00  0.00    +0.126 A 
ATOM     12  C   UNL     1       1.224  -5.596   1.267  0.00  0.00    +0.049 A 
ATOM     13  O   UNL     1      -0.931  -6.417   1.784  0.00  0.00    -0.486 OA
ATOM     14  C   UNL     1      -2.217  -6.136   2.338  0.00  0.00    +0.107 C 
ATOM     15  C   UNL     1      -2.907  -5.090   1.452  0.00  0.00    +0.074 C 
ATOM     16  C   UNL     1      -2.103  -3.790   1.529  0.00  0.00    +0.110 C 
ATOM     17  C   UNL     1      -3.055  -7.416   2.372  0.00  0.00    +0.055 C 
ATOM     18  C   UNL     1      -2.058  -5.586   3.757  0.00  0.00    +0.055 C 
ENDBRANCH   2  16
ENDBRANCH   1   3
BRANCH   1  19
ATOM     19  N   UNL     1      -2.602   0.788  -0.014  0.00  0.00    -0.194 N 
BRANCH  19  20
ATOM     20  C   UNL     1      -1.347   1.346  -0.268  0.00  0.00    +0.052 A 
ATOM     21  C   UNL     1      -0.232   0.526  -0.390  0.00  0.00    +0.025 A 
ATOM     22  C   UNL     1       1.006   1.080  -0.646  0.00  0.00    +0.002 A 
ATOM     23  C   UNL     1       1.139   2.450  -0.776  0.00  0.00    +0.000 A 
ATOM     24  C   UNL     1       0.033   3.270  -0.649  0.00  0.00    +0.002 A 
ATOM     25  C   UNL     1      -1.209   2.722  -0.392  0.00  0.00    +0.025 A 
ENDBRANCH  19  20
BRANCH  19  26
ATOM     26  S   UNL     1      -3.768   1.684   0.746  0.00  0.00    +0.075 S 
ATOM     27  O   UNL     1      -4.647   0.760   1.373  0.00  0.00    -0.150 OA
ATOM     28  O   UNL     1      -3.090   2.702   1.470  0.00  0.00    -0.150 OA
BRANCH  26  29
ATOM     29  C   UNL     1      -4.702   2.496  -0.508  0.00  0.00    +0.109 A 
ATOM     30  C   UNL     1      -4.402   3.800  -0.857  0.00  0.00    +0.032 A 
ATOM     31  C   UNL     1      -5.129   4.437  -1.844  0.00  0.00    +0.047 A 
ATOM     32  C   UNL     1      -6.168   3.771  -2.478  0.00  0.00    +0.120 A 
ATOM     33  C   UNL     1      -6.470   2.464  -2.122  0.00  0.00    +0.047 A 
ATOM     34  C   UNL     1      -5.737   1.830  -1.139  0.00  0.00    +0.032 A 
BRANCH  32  35
ATOM     35  O   UNL     1      -6.888   4.397  -3.446  0.00  0.00    -0.495 OA
ATOM     36  C   UNL     1      -6.521   5.742  -3.760  0.00  0.00    +0.277 C 
ENDBRANCH  32  35
ENDBRANCH  26  29
ENDBRANCH  19  26
ENDBRANCH   1  19
TORSDOF 7
