REMARK  Name = ZINC20696686
REMARK  11 active torsions:
REMARK  status: ('A' for Active; 'I' for Inactive)
REMARK    1  A    between atoms: C_1  and  C_2
REMARK    2  A    between atoms: C_2  and  N_3
REMARK    3  A    between atoms: N_3  and  C_4
REMARK    4  A    between atoms: N_3  and  C_6
REMARK    5  A    between atoms: C_4  and  C_5
REMARK    6  A    between atoms: C_9  and  C_12
REMARK    7  A    between atoms: C_23  and  S_28
REMARK    8  A    between atoms: S_28  and  N_31
REMARK    9  A    between atoms: N_31  and  C_32
REMARK   10  A    between atoms: C_32  and  C_33
REMARK   11  A    between atoms: C_33  and  C_34
REMARK                            x       y       z     vdW  Elec       q    Type
REMARK                         _______ _______ _______ _____ _____    ______ ____
ROOT
ATOM      1  C   UNL     1      -3.717   1.682   0.085  0.00  0.00    +0.105 C 
ATOM      2  C   UNL     1      -3.915   2.910   0.956  0.00  0.00    +0.029 C 
ATOM      3  C   UNL     1      -5.302   3.566   0.971  0.00  0.00    +0.033 C 
ATOM      4  C   UNL     1      -4.949   5.025   1.267  0.00  0.00    -0.030 C 
ATOM      5  C   UNL     1      -3.714   5.285   0.856  0.00  0.00    -0.023 C 
ATOM      6  C   UNL     1      -3.154   4.060   0.231  0.00  0.00    +0.049 C 
ATOM      7  C   UNL     1      -1.708   3.748   0.281  0.00  0.00    -0.018 A 
ATOM      8  C   UNL     1      -0.745   4.726   0.404  0.00  0.00    +0.034 A 
ATOM      9  C   UNL     1       0.595   4.385   0.428  0.00  0.00    +0.106 A 
ATOM     10  C   UNL     1       0.973   3.058   0.325  0.00  0.00    +0.030 A 
ATOM     11  C   UNL     1       0.015   2.072   0.205  0.00  0.00    +0.025 A 
ATOM     12  C   UNL     1      -1.334   2.404   0.184  0.00  0.00    +0.031 A 
ATOM     13  N   UNL     1      -2.269   1.388   0.134  0.00  0.00    -0.336 N 
ATOM     14  H   UNL     1      -1.919   0.345   0.131  0.00  0.00    +0.147 HD
ENDROOT
BRANCH   1  18
ATOM     15  C   UNL     1      -4.921   2.510  -3.931  0.00  0.00    +0.030 A 
ATOM     16  C   UNL     1      -3.603   2.715  -3.544  0.00  0.00    +0.023 A 
ATOM     17  C   UNL     1      -3.217   2.446  -2.245  0.00  0.00    +0.007 A 
ATOM     18  C   UNL     1      -4.142   1.974  -1.331  0.00  0.00    -0.027 A 
ATOM     19  C   UNL     1      -5.454   1.764  -1.715  0.00  0.00    +0.007 A 
ATOM     20  C   UNL     1      -5.847   2.036  -3.011  0.00  0.00    +0.023 A 
BRANCH  15  21
ATOM     21  N   UNL     1      -5.315   2.781  -5.244  0.00  0.00    -0.330 N 
BRANCH  21  23
ATOM     22  C   UNL     1      -7.510   3.846  -5.417  0.00  0.00    +0.024 C 
ATOM     23  C   UNL     1      -6.705   2.566  -5.651  0.00  0.00    +0.102 C 
ENDBRANCH  21  23
BRANCH  21  24
ATOM     24  C   UNL     1      -4.337   3.282  -6.213  0.00  0.00    +0.102 C 
ATOM     25  C   UNL     1      -3.676   2.101  -6.927  0.00  0.00    +0.024 C 
ENDBRANCH  21  24
ENDBRANCH  15  21
ENDBRANCH   1  18
BRANCH   9  26
ATOM     26  S   UNL     1       1.821   5.640   0.590  0.00  0.00    +0.058 S 
ATOM     27  O   UNL     1       1.188   6.747   1.217  0.00  0.00    -0.153 OA
ATOM     28  O   UNL     1       2.974   5.013   1.135  0.00  0.00    -0.153 OA
BRANCH  26  29
ATOM     29  N   UNL     1       2.226   6.130  -0.939  0.00  0.00    -0.190 NA
ATOM     30  H   UNL     1       3.185   5.807  -1.370  0.00  0.00    +0.148 HD
BRANCH  29  31
ATOM     31  C   UNL     1       1.231   6.796  -1.782  0.00  0.00    +0.110 C 
BRANCH  31  32
ATOM     32  C   UNL     1       1.932   7.469  -2.964  0.00  0.00    +0.052 C 
BRANCH  32  33
ATOM     33  C   UNL     1       0.908   8.154  -3.832  0.00  0.00    -0.046 A 
ATOM     34  C   UNL     1       0.319   7.469  -4.878  0.00  0.00    +0.003 A 
ATOM     35  C   UNL     1      -0.624   8.096  -5.671  0.00  0.00    +0.000 A 
ATOM     36  C   UNL     1      -0.969   9.412  -5.425  0.00  0.00    +0.000 A 
ATOM     37  C   UNL     1      -0.376  10.098  -4.382  0.00  0.00    +0.000 A 
ATOM     38  C   UNL     1       0.563   9.470  -3.586  0.00  0.00    +0.003 A 
ENDBRANCH  32  33
ENDBRANCH  31  32
ENDBRANCH  29  31
ENDBRANCH  26  29
ENDBRANCH   9  26
TORSDOF 9
