REMARK  Name = ZINC00782018
REMARK  9 active torsions:
REMARK  status: ('A' for Active; 'I' for Inactive)
REMARK    1  A    between atoms: C_1  and  C_2
REMARK    2  A    between atoms: C_9  and  C_14
REMARK    3  A    between atoms: C_14  and  C_16
REMARK    4  A    between atoms: C_14  and  N_67
REMARK    5  A    between atoms: N_20  and  C_21
REMARK    6  A    between atoms: C_26  and  C_27
REMARK    7  A    between atoms: C_26  and  N_67
REMARK    8  A    between atoms: C_34  and  C_35
REMARK    9  A    between atoms: C_34  and  N_67
REMARK                            x       y       z     vdW  Elec       q    Type
REMARK                         _______ _______ _______ _____ _____    ______ ____
ROOT
ATOM      1  C   UNL     1       2.490  -1.114  -0.465  0.00  0.00    +0.040 C 
ENDROOT
BRANCH   1  10
ATOM      2  C   UNL     1       3.644  -1.477   6.894  0.00  0.00    +0.044 C 
ATOM      3  C   UNL     1       3.636  -2.121   5.531  0.00  0.00    -0.050 A 
ATOM      4  C   UNL     1       4.002  -3.454   5.398  0.00  0.00    +0.005 A 
ATOM      5  C   UNL     1       4.003  -4.063   4.162  0.00  0.00    +0.026 A 
ATOM      6  C   UNL     1       3.632  -3.337   3.034  0.00  0.00    +0.049 A 
ATOM      7  C   UNL     1       3.261  -1.986   3.174  0.00  0.00    -0.001 A 
ATOM      8  C   UNL     1       3.268  -1.389   4.438  0.00  0.00    +0.013 A 
ATOM      9  C   UNL     1       2.872  -1.231   1.981  0.00  0.00    +0.017 A 
ATOM     10  C   UNL     1       2.884  -1.863   0.782  0.00  0.00    +0.011 A 
ATOM     11  C   UNL     1       3.259  -3.221   0.697  0.00  0.00    +0.251 A 
ATOM     12  O   UNL     1       3.258  -3.771  -0.390  0.00  0.00    -0.268 OA
ATOM     13  N   UNL     1       3.623  -3.921   1.786  0.00  0.00    -0.322 N 
ATOM     14  H   UNL     1       3.890  -4.880   1.688  0.00  0.00    +0.169 HD
ENDBRANCH   1  10
BRANCH   1  15
ATOM     15  C   UNL     1       2.229   0.330  -0.123  0.00  0.00    +0.143 A 
ATOM     16  N   UNL     1       3.087   1.180   0.387  0.00  0.00    -0.115 NA
ATOM     17  N   UNL     1       2.487   2.311   0.534  0.00  0.00    -0.023 NA
ATOM     18  N   UNL     1       1.270   2.206   0.125  0.00  0.00    -0.044 NA
ATOM     19  N   UNL     1       1.071   0.998  -0.282  0.00  0.00    -0.227 N 
BRANCH  19  20
ATOM     20  C   UNL     1      -0.178   0.457  -0.823  0.00  0.00    +0.111 C 
ATOM     21  C   UNL     1      -1.313   0.616   0.210  0.00  0.00    +0.027 C 
ATOM     22  C   UNL     1      -2.021   1.931  -0.206  0.00  0.00    +0.002 C 
ATOM     23  C   UNL     1      -1.980   1.868  -1.753  0.00  0.00    +0.002 C 
ATOM     24  C   UNL     1      -0.601   1.252  -2.070  0.00  0.00    +0.027 C 
ENDBRANCH  19  20
ENDBRANCH   1  15
BRANCH   1  25
ATOM     25  N   UNL     1       3.583  -1.223  -1.454  0.00  0.00    +0.397 N 
ATOM     26  H   UNL     1       3.796  -2.216  -1.607  0.00  0.00    -0.079 HD
BRANCH  25  27
ATOM     27  C   UNL     1       3.165  -0.620  -2.737  0.00  0.00    -0.039 C 
BRANCH  27  28
ATOM     28  C   UNL     1       4.202  -0.936  -3.784  0.00  0.00    -0.046 A 
ATOM     29  C   UNL     1       5.073   0.047  -4.215  0.00  0.00    +0.003 A 
ATOM     30  C   UNL     1       6.027  -0.245  -5.171  0.00  0.00    +0.000 A 
ATOM     31  C   UNL     1       6.104  -1.518  -5.705  0.00  0.00    +0.001 A 
ATOM     32  C   UNL     1       5.231  -2.501  -5.279  0.00  0.00    +0.020 A 
ATOM     33  C   UNL     1       4.279  -2.210  -4.318  0.00  0.00    +0.042 A 
ATOM     34 CL   UNL     1       3.182  -3.444  -3.782  0.00  0.00    -0.083 Cl
ENDBRANCH  27  28
ENDBRANCH  25  27
BRANCH  25  35
ATOM     35  C   UNL     1       4.793  -0.544  -0.947  0.00  0.00    -0.001 C 
BRANCH  35  36
ATOM     36  C   UNL     1       5.490  -1.462   0.024  0.00  0.00    +0.089 A 
ATOM     37  C   UNL     1       6.335  -2.456  -0.301  0.00  0.00    +0.042 A 
ATOM     38  C   UNL     1       6.751  -3.054   0.911  0.00  0.00    +0.041 A 
ATOM     39  C   UNL     1       6.134  -2.390   1.904  0.00  0.00    +0.195 A 
ATOM     40  O   UNL     1       5.376  -1.423   1.362  0.00  0.00    -0.470 OA
ENDBRANCH  35  36
ENDBRANCH  25  35
ENDBRANCH   1  25
TORSDOF 8
