REMARK  Name = ZINC66587071
REMARK  8 active torsions:
REMARK  status: ('A' for Active; 'I' for Inactive)
REMARK    1  A    between atoms: C_1  and  C_2
REMARK    2  A    between atoms: C_2  and  C_3
REMARK    3  A    between atoms: C_6  and  C_8
REMARK    4  A    between atoms: C_8  and  N_9
REMARK    5  A    between atoms: N_9  and  C_10
REMARK    6  A    between atoms: C_10  and  C_11
REMARK    7  A    between atoms: C_11  and  S_12
REMARK    8  A    between atoms: S_12  and  N_15
REMARK                            x       y       z     vdW  Elec       q    Type
REMARK                         _______ _______ _______ _____ _____    ______ ____
ROOT
ATOM      1  S   UNL     1      -8.014  -5.988   2.489  0.00  0.00    +0.030 S 
ATOM      2  O   UNL     1      -8.242  -5.532   3.815  0.00  0.00    -0.158 OA
ATOM      3  O   UNL     1      -9.003  -5.819   1.484  0.00  0.00    -0.158 OA
ENDROOT
BRANCH   1   4
ATOM      4  N   UNL     1      -7.833  -7.628   2.632  0.00  0.00    -0.178 NA
ATOM      5  C   UNL     1      -8.135  -8.516   1.501  0.00  0.00    +0.128 C 
ATOM      6  C   UNL     1      -6.900  -9.377   1.210  0.00  0.00    +0.123 C 
ATOM      7  N   UNL     1      -6.434  -9.971   2.470  0.00  0.00    -0.314 N 
ATOM      8  C   UNL     1      -6.131  -9.083   3.602  0.00  0.00    +0.123 C 
ATOM      9  C   UNL     1      -7.361  -8.222   3.892  0.00  0.00    +0.128 C 
ATOM     10  C   UNL     1      -6.282 -11.347   2.591  0.00  0.00    +0.099 A 
ATOM     11  C   UNL     1      -6.691 -12.179   1.553  0.00  0.00    +0.042 A 
ATOM     12  C   UNL     1      -6.535 -13.547   1.686  0.00  0.00    +0.005 A 
ATOM     13  C   UNL     1      -5.971 -14.039   2.857  0.00  0.00    +0.018 A 
ATOM     14  C   UNL     1      -5.588 -13.156   3.845  0.00  0.00    +0.084 A 
ATOM     15  N   UNL     1      -5.744 -11.855   3.689  0.00  0.00    -0.350 N 
ATOM     16  H   UNL     1      -5.462 -11.256   4.398  0.00  0.00    +0.166 HD
ENDBRANCH   1   4
BRANCH   1  17
ATOM     17  C   UNL     1      -6.408  -5.393   1.892  0.00  0.00    +0.166 C 
BRANCH  17  18
ATOM     18  C   UNL     1      -6.459  -3.873   1.721  0.00  0.00    -0.058 C 
BRANCH  18  19
ATOM     19  N   UNL     1      -5.158  -3.391   1.237  0.00  0.00    +0.383 N 
ATOM     20  H   UNL     1      -4.949  -3.822   0.349  0.00  0.00    -0.085 HD
ATOM     21  H   UNL     1      -4.441  -3.630   1.905  0.00  0.00    -0.085 HD
BRANCH  19  22
ATOM     22  C   UNL     1      -5.207  -1.932   1.073  0.00  0.00    -0.039 C 
BRANCH  22  26
ATOM     23  C   UNL     1      -1.378  -0.510   0.145  0.00  0.00    -0.010 A 
ATOM     24  C   UNL     1      -2.163  -0.804  -0.920  0.00  0.00    +0.011 A 
ATOM     25  C   UNL     1      -3.442  -1.279  -0.699  0.00  0.00    +0.009 A 
ATOM     26  C   UNL     1      -3.873  -1.437   0.577  0.00  0.00    -0.027 A 
ATOM     27  S   UNL     1      -2.448  -0.913   1.516  0.00  0.00    -0.100 S 
BRANCH  23  29
ATOM     28  C   UNL     1       0.011   1.544   0.178  0.00  0.00    +0.009 C 
ATOM     29  C   UNL     1       0.035   0.014   0.166  0.00  0.00    +0.039 C 
ENDBRANCH  23  29
ENDBRANCH  22  26
ENDBRANCH  19  22
ENDBRANCH  18  19
ENDBRANCH  17  18
ENDBRANCH   1  17
TORSDOF 7
