REMARK  Name = ZINC08017672
REMARK  7 active torsions:
REMARK  status: ('A' for Active; 'I' for Inactive)
REMARK    1  A    between atoms: C_1  and  C_2
REMARK    2  A    between atoms: C_2  and  O_3
REMARK    3  A    between atoms: O_3  and  C_4
REMARK    4  A    between atoms: C_4  and  C_6
REMARK    5  A    between atoms: C_7  and  N_30
REMARK    6  A    between atoms: C_21  and  C_23
REMARK    7  A    between atoms: C_27  and  C_29
REMARK                            x       y       z     vdW  Elec       q    Type
REMARK                         _______ _______ _______ _____ _____    ______ ____
ROOT
ATOM      1  C   UNL     1      -0.761   1.598   3.567  0.00  0.00    +0.105 C 
ATOM      2  C   UNL     1      -0.282   1.145   4.753  0.00  0.00    +0.195 C 
ATOM      3  O   UNL     1      -0.826   1.527   5.921  0.00  0.00    -0.441 OA
ATOM      4  C   UNL     1      -2.075   2.033   5.949  0.00  0.00    +0.148 A 
ATOM      5  C   UNL     1      -2.832   2.050   7.209  0.00  0.00    +0.041 A 
ATOM      6  C   UNL     1      -2.280   1.549   8.390  0.00  0.00    +0.013 A 
ATOM      7  C   UNL     1      -3.009   1.581   9.545  0.00  0.00    +0.001 A 
ATOM      8  C   UNL     1      -4.293   2.109   9.555  0.00  0.00    +0.002 A 
ATOM      9  C   UNL     1      -4.857   2.608   8.400  0.00  0.00    +0.026 A 
ATOM     10  C   UNL     1      -4.132   2.584   7.213  0.00  0.00    +0.053 A 
ATOM     11  N   UNL     1      -4.669   3.076   6.042  0.00  0.00    -0.322 N 
ATOM     12  H   UNL     1      -5.595   3.454   6.046  0.00  0.00    +0.169 HD
ATOM     13  C   UNL     1      -3.971   3.055   4.894  0.00  0.00    +0.257 A 
ATOM     14  O   UNL     1      -4.483   3.500   3.881  0.00  0.00    -0.267 OA
ATOM     15  C   UNL     1      -2.665   2.535   4.828  0.00  0.00    +0.072 A 
ATOM     16  C   UNL     1      -1.931   2.540   3.513  0.00  0.00    +0.100 C 
ENDROOT
BRANCH  16  17
ATOM     17  C   UNL     1      -1.437   3.934   3.226  0.00  0.00    -0.035 A 
ATOM     18  C   UNL     1      -0.553   4.547   4.095  0.00  0.00    +0.004 A 
ATOM     19  C   UNL     1      -0.099   5.825   3.832  0.00  0.00    +0.001 A 
ATOM     20  C   UNL     1      -0.530   6.492   2.700  0.00  0.00    +0.003 A 
ATOM     21  C   UNL     1      -1.414   5.880   1.831  0.00  0.00    -0.050 A 
ATOM     22  C   UNL     1      -1.864   4.599   2.092  0.00  0.00    +0.008 A 
ATOM     23  C   UNL     1      -1.883   6.607   0.598  0.00  0.00    +0.044 C 
ENDBRANCH  16  17
BRANCH   2  24
ATOM     24  N   UNL     1       0.782   0.284   4.761  0.00  0.00    -0.329 N 
ATOM     25  H   UNL     1       1.233   0.063   3.931  0.00  0.00    +0.145 HD
ATOM     26  H   UNL     1       1.085  -0.106   5.596  0.00  0.00    +0.145 HD
ENDBRANCH   2  24
BRANCH   1  27
ATOM     27  C   UNL     1      -0.159   1.176   2.372  0.00  0.00    +0.341 C 
ATOM     28  O   UNL     1      -0.681   0.304   1.701  0.00  0.00    -0.245 OA
BRANCH  27  29
ATOM     29  O   UNL     1       1.001   1.738   1.965  0.00  0.00    -0.462 OA
BRANCH  29  31
ATOM     30  C   UNL     1       2.860   2.008   0.445  0.00  0.00    +0.048 C 
ATOM     31  C   UNL     1       1.558   1.260   0.739  0.00  0.00    +0.229 C 
ENDBRANCH  29  31
ENDBRANCH  27  29
ENDBRANCH   1  27
TORSDOF 5
