REMARK  Name = ZINC02802342
REMARK  8 active torsions:
REMARK  status: ('A' for Active; 'I' for Inactive)
REMARK    1  A    between atoms: N_9  and  C_10
REMARK    2  A    between atoms: C_10  and  C_11
REMARK    3  A    between atoms: N_13  and  N_14
REMARK    4  A    between atoms: N_14  and  C_15
REMARK    5  A    between atoms: C_15  and  N_17
REMARK    6  A    between atoms: N_17  and  C_18
REMARK    7  A    between atoms: N_21  and  C_23
REMARK    8  A    between atoms: C_23  and  C_24
REMARK                            x       y       z     vdW  Elec       q    Type
REMARK                         _______ _______ _______ _____ _____    ______ ____
ROOT
ATOM      1  N   UNL     1       1.137   2.400   0.007  0.00  0.00    -0.246 N 
ATOM      2  H   UNL     1       2.097   1.864  -0.017  0.00  0.00    +0.172 HD
ENDROOT
BRANCH   1   5
ATOM      3  C   UNL     1       2.274   4.490   0.059  0.00  0.00    +0.249 C 
ATOM      4  O   UNL     1       3.333   3.900   0.033  0.00  0.00    -0.272 OA
ATOM      5  N   UNL     1       1.117   3.800   0.049  0.00  0.00    -0.234 N 
ATOM      6  H   UNL     1       0.156   4.336   0.073  0.00  0.00    +0.173 HD
BRANCH   3   7
ATOM      7  C   UNL     1       2.252   5.997   0.104  0.00  0.00    +0.219 C 
BRANCH   7  16
ATOM      8  C   UNL     1       6.289   7.588  -2.859  0.00  0.00    +0.001 A 
ATOM      9  C   UNL     1       5.046   7.143  -3.290  0.00  0.00    +0.002 A 
ATOM     10  C   UNL     1       4.085   6.757  -2.382  0.00  0.00    +0.026 A 
ATOM     11  C   UNL     1       4.359   6.813  -1.019  0.00  0.00    +0.050 A 
ATOM     12  C   UNL     1       5.620   7.264  -0.586  0.00  0.00    +0.003 A 
ATOM     13  C   UNL     1       6.579   7.650  -1.525  0.00  0.00    +0.010 A 
ATOM     14  C   UNL     1       5.586   7.205   0.871  0.00  0.00    -0.019 A 
ATOM     15  C   UNL     1       4.370   6.749   1.227  0.00  0.00    +0.024 A 
ATOM     16  N   UNL     1       3.627   6.505   0.107  0.00  0.00    -0.335 N 
ATOM     17  C   UNL     1       3.942   6.535   2.661  0.00  0.00    +0.054 C 
ATOM     18  C   UNL     1       5.192   6.519   3.547  0.00  0.00    +0.006 C 
ATOM     19  C   UNL     1       6.058   7.742   3.232  0.00  0.00    +0.005 C 
ATOM     20  C   UNL     1       6.679   7.579   1.839  0.00  0.00    +0.037 C 
ENDBRANCH   7  16
ENDBRANCH   3   7
ENDBRANCH   1   5
BRANCH   1  21
ATOM     21  C   UNL     1      -0.021   1.709  -0.003  0.00  0.00    +0.151 C 
ATOM     22  S   UNL     1       0.004  -0.002  -0.054  0.00  0.00    -0.017 S 
BRANCH  21  23
ATOM     23  N   UNL     1      -1.197   2.366   0.021  0.00  0.00    -0.293 N 
ATOM     24  H   UNL     1      -1.214   3.461   0.122  0.00  0.00    +0.154 HD
BRANCH  23  25
ATOM     25  C   UNL     1      -2.405   1.650  -0.084  0.00  0.00    +0.071 A 
ATOM     26  C   UNL     1      -2.663   0.381   0.455  0.00  0.00    +0.157 A 
ATOM     27  N   UNL     1      -3.890   0.046   0.152  0.00  0.00    -0.177 NA
ATOM     28  N   UNL     1      -4.461   1.087  -0.591  0.00  0.00    -0.265 N 
ATOM     29  C   UNL     1      -3.530   2.068  -0.719  0.00  0.00    +0.132 A 
BRANCH  28  30
ATOM     30  C   UNL     1      -5.823   1.116  -1.130  0.00  0.00    +0.178 C 
BRANCH  30  31
ATOM     31  C   UNL     1      -6.053  -0.106  -1.982  0.00  0.00    -0.025 A 
ATOM     32  C   UNL     1      -6.551  -1.262  -1.411  0.00  0.00    +0.005 A 
ATOM     33  C   UNL     1      -6.762  -2.384  -2.191  0.00  0.00    +0.002 A 
ATOM     34  C   UNL     1      -6.475  -2.349  -3.543  0.00  0.00    +0.020 A 
ATOM     35  C   UNL     1      -5.977  -1.192  -4.115  0.00  0.00    +0.041 A 
ATOM     36  C   UNL     1      -5.771  -0.068  -3.334  0.00  0.00    +0.025 A 
ATOM     37 CL   UNL     1      -5.616  -1.148  -5.812  0.00  0.00    -0.084 Cl
ENDBRANCH  30  31
ENDBRANCH  28  30
ENDBRANCH  23  25
ENDBRANCH  21  23
ENDBRANCH   1  21
TORSDOF 8
