REMARK  Name = ZINC63426816
REMARK  12 active torsions:
REMARK  status: ('A' for Active; 'I' for Inactive)
REMARK    1  A    between atoms: C_1  and  C_2
REMARK    2  A    between atoms: C_2  and  C_3
REMARK    3  A    between atoms: C_2  and  C_4
REMARK    4  A    between atoms: C_2  and  O_5
REMARK    5  A    between atoms: O_5  and  C_6
REMARK    6  A    between atoms: N_8  and  C_9
REMARK    7  A    between atoms: C_9  and  C_11
REMARK    8  A    between atoms: C_9  and  C_21
REMARK    9  A    between atoms: C_11  and  C_12
REMARK   10  A    between atoms: C_25  and  S_28
REMARK   11  A    between atoms: S_28  and  C_29
REMARK   12  A    between atoms: C_29  and  C_30
REMARK                            x       y       z     vdW  Elec       q    Type
REMARK                         _______ _______ _______ _____ _____    ______ ____
ROOT
ATOM      1  C   UNL     1       4.055  -0.112  -2.501  0.00  0.00    +0.133 C 
ENDROOT
BRANCH   1   2
ATOM      2  C   UNL     1       4.807  -0.718  -1.313  0.00  0.00    +0.280 C 
ATOM      3  N   UNL     1       4.136  -0.369  -0.054  0.00  0.00    -0.155 NA
ATOM      4  N   UNL     1       4.061  -1.365   0.677  0.00  0.00    -0.146 NA
ATOM      5  C   UNL     1       4.671  -2.525   0.014  0.00  0.00    +0.319 C 
ATOM      6  O   UNL     1       4.769  -2.158  -1.379  0.00  0.00    -0.316 OA
BRANCH   5   7
ATOM      7  S   UNL     1       6.321  -2.845   0.698  0.00  0.00    -0.100 S 
BRANCH   7   8
ATOM      8  C   UNL     1       7.226  -1.301   0.402  0.00  0.00    +0.108 C 
BRANCH   8   9
ATOM      9  C   UNL     1       8.631  -1.433   0.930  0.00  0.00    -0.037 A 
ATOM     10  C   UNL     1       8.914  -1.084   2.237  0.00  0.00    +0.006 A 
ATOM     11  C   UNL     1      10.203  -1.205   2.722  0.00  0.00    +0.020 A 
ATOM     12  C   UNL     1      11.210  -1.676   1.898  0.00  0.00    +0.041 A 
ATOM     13  C   UNL     1      10.926  -2.026   0.590  0.00  0.00    +0.020 A 
ATOM     14  C   UNL     1       9.636  -1.910   0.108  0.00  0.00    +0.006 A 
ATOM     15 CL   UNL     1      12.829  -1.828   2.506  0.00  0.00    -0.084 Cl
ENDBRANCH   8   9
ENDBRANCH   7   8
ENDBRANCH   5   7
ENDBRANCH   1   2
BRANCH   1  18
ATOM     16  C   UNL     1       2.180  -1.603  -2.946  0.00  0.00    +0.401 C 
ATOM     17  O   UNL     1       2.930  -2.310  -3.590  0.00  0.00    -0.226 OA
ATOM     18  N   UNL     1       2.634  -0.455  -2.405  0.00  0.00    -0.274 N 
ATOM     19  H   UNL     1       2.020   0.144  -1.952  0.00  0.00    +0.152 HD
BRANCH  16  20
ATOM     20  O   UNL     1       0.896  -1.967  -2.773  0.00  0.00    -0.445 OA
BRANCH  20  22
ATOM     21  C   UNL     1       1.316  -4.346  -2.807  0.00  0.00    +0.055 C 
ATOM     22  C   UNL     1       0.483  -3.196  -3.375  0.00  0.00    +0.107 C 
ATOM     23  C   UNL     1       0.688  -3.116  -4.889  0.00  0.00    +0.055 C 
ATOM     24  C   UNL     1      -0.997  -3.439  -3.072  0.00  0.00    +0.055 C 
ENDBRANCH  20  22
ENDBRANCH  16  20
ENDBRANCH   1  18
BRANCH   1  25
ATOM     25  C   UNL     1       4.215   1.409  -2.483  0.00  0.00    +0.060 C 
BRANCH  25  26
ATOM     26  C   UNL     1       3.579   1.995  -3.718  0.00  0.00    -0.040 C 
ATOM     27  C   UNL     1       2.328   2.495  -3.829  0.00  0.00    -0.001 A 
ATOM     28  C   UNL     1       1.225   2.636  -2.870  0.00  0.00    +0.010 A 
ATOM     29  C   UNL     1       0.061   3.187  -3.285  0.00  0.00    +0.001 A 
ATOM     30  C   UNL     1      -0.117   3.626  -4.604  0.00  0.00    +0.002 A 
ATOM     31  C   UNL     1       0.850   3.530  -5.542  0.00  0.00    +0.026 A 
ATOM     32  C   UNL     1       2.114   2.966  -5.215  0.00  0.00    +0.043 A 
ATOM     33  N   UNL     1       3.192   2.766  -5.934  0.00  0.00    -0.380 N 
ATOM     34  C   UNL     1       4.215   2.150  -5.081  0.00  0.00    +0.144 C 
ATOM     35  H   UNL     1       3.298   2.992  -6.872  0.00  0.00    +0.160 HD
ENDBRANCH  25  26
ENDBRANCH   1  25
TORSDOF 9
