REMARK  Name = ZINC02223441
REMARK  8 active torsions:
REMARK  status: ('A' for Active; 'I' for Inactive)
REMARK    1  A    between atoms: C_1  and  C_2
REMARK    2  A    between atoms: C_2  and  C_3
REMARK    3  A    between atoms: C_2  and  C_4
REMARK    4  A    between atoms: C_2  and  C_5
REMARK    5  A    between atoms: N_7  and  C_8
REMARK    6  A    between atoms: C_8  and  N_10
REMARK    7  A    between atoms: N_10  and  C_11
REMARK    8  A    between atoms: C_18  and  C_20
REMARK                            x       y       z     vdW  Elec       q    Type
REMARK                         _______ _______ _______ _____ _____    ______ ____
ROOT
ATOM      1  C   UNL     1      -6.704  -0.387   0.025  0.00  0.00    +0.035 A 
ATOM      2  C   UNL     1      -6.005  -1.565   0.278  0.00  0.00    +0.027 A 
ATOM      3  C   UNL     1      -4.627  -1.575   0.268  0.00  0.00    +0.050 A 
ATOM      4  C   UNL     1      -3.927  -0.407   0.005  0.00  0.00    +0.156 A 
ATOM      5  C   UNL     1      -4.624   0.785  -0.251  0.00  0.00    +0.112 A 
ATOM      6  C   UNL     1      -6.021   0.786  -0.239  0.00  0.00    +0.054 A 
ATOM      7  N   UNL     1      -3.689   1.744  -0.471  0.00  0.00    -0.209 NA
ATOM      8  C   UNL     1      -2.500   1.206  -0.363  0.00  0.00    +0.231 A 
ATOM      9  O   UNL     1      -2.611  -0.105  -0.079  0.00  0.00    -0.435 OA
ENDROOT
BRANCH   8  10
ATOM     10  C   UNL     1      -1.224   1.931  -0.533  0.00  0.00    +0.072 A 
ATOM     11  C   UNL     1      -1.226   3.295  -0.829  0.00  0.00    +0.016 A 
ATOM     12  C   UNL     1      -0.031   3.964  -0.993  0.00  0.00    +0.001 A 
ATOM     13  C   UNL     1       1.169   3.288  -0.860  0.00  0.00    +0.003 A 
ATOM     14  C   UNL     1       1.181   1.939  -0.562  0.00  0.00    +0.039 A 
ATOM     15  C   UNL     1      -0.009   1.254  -0.395  0.00  0.00    +0.136 A 
ATOM     16  F   UNL     1       0.004  -0.065  -0.105  0.00  0.00    -0.205 F 
ENDBRANCH   8  10
BRANCH   1  17
ATOM     17  N   UNL     1      -8.105  -0.390   0.038  0.00  0.00    -0.297 N 
ATOM     18  H   UNL     1      -8.597   0.097  -0.640  0.00  0.00    +0.154 HD
BRANCH  17  19
ATOM     19  C   UNL     1      -8.768  -1.071   0.994  0.00  0.00    +0.141 C 
ATOM     20  S   UNL     1      -7.904  -1.813   2.272  0.00  0.00    -0.018 S 
BRANCH  19  23
ATOM     21  C   UNL     1     -10.775  -1.848   1.899  0.00  0.00    +0.224 C 
ATOM     22  O   UNL     1     -10.163  -2.374   2.804  0.00  0.00    -0.275 OA
ATOM     23  N   UNL     1     -10.111  -1.167   0.943  0.00  0.00    -0.267 N 
ATOM     24  H   UNL     1     -10.601  -0.747   0.219  0.00  0.00    +0.157 HD
BRANCH  21  26
ATOM     25  C   UNL     1     -12.775  -2.774   3.035  0.00  0.00    +0.020 C 
ATOM     26  C   UNL     1     -12.277  -1.956   1.842  0.00  0.00    +0.039 C 
ATOM     27  C   UNL     1     -12.891  -0.555   1.892  0.00  0.00    +0.020 C 
ATOM     28  C   UNL     1     -12.690  -2.648   0.541  0.00  0.00    +0.020 C 
ENDBRANCH  21  26
ENDBRANCH  19  23
ENDBRANCH  17  19
ENDBRANCH   1  17
TORSDOF 5
