REMARK  Name = ZINC58331399
REMARK  10 active torsions:
REMARK  status: ('A' for Active; 'I' for Inactive)
REMARK    1  A    between atoms: C_1  and  C_2
REMARK    2  A    between atoms: N_5  and  C_8
REMARK    3  A    between atoms: C_8  and  C_10
REMARK    4  A    between atoms: C_8  and  C_26
REMARK    5  A    between atoms: C_10  and  N_11
REMARK    6  A    between atoms: N_14  and  C_15
REMARK    7  A    between atoms: C_15  and  C_16
REMARK    8  A    between atoms: C_19  and  S_21
REMARK    9  A    between atoms: S_21  and  N_24
REMARK   10  A    between atoms: N_24  and  C_25
REMARK                            x       y       z     vdW  Elec       q    Type
REMARK                         _______ _______ _______ _____ _____    ______ ____
ROOT
ATOM      1  N   UNL     1       0.238  -5.859   2.589  0.00  0.00    -0.301 N 
ATOM      2  C   UNL     1       0.851  -6.493   3.607  0.00  0.00    +0.300 C 
ATOM      3  O   UNL     1       1.275  -5.857   4.553  0.00  0.00    -0.253 OA
ATOM      4  N   UNL     1       0.995  -7.833   3.578  0.00  0.00    -0.295 N 
ATOM      5  H   UNL     1      -0.101  -6.366   1.835  0.00  0.00    +0.150 HD
ATOM      6  H   UNL     1       0.656  -8.341   2.823  0.00  0.00    +0.151 HD
ENDROOT
BRANCH   1   7
ATOM      7  C   UNL     1       0.082  -4.402   2.621  0.00  0.00    +0.095 C 
BRANCH   7   8
ATOM      8  C   UNL     1      -0.755  -3.952   1.422  0.00  0.00    -0.013 C 
BRANCH   8  13
ATOM      9  C   UNL     1      -0.655   1.640   0.307  0.00  0.00    +0.007 C 
ATOM     10  C   UNL     1      -0.508   0.121   0.195  0.00  0.00    -0.018 C 
ATOM     11  C   UNL     1      -1.882  -0.539   0.343  0.00  0.00    -0.015 C 
ATOM     12  C   UNL     1      -1.718  -2.060   0.309  0.00  0.00    -0.078 C 
ATOM     13  N   UNL     1      -0.847  -2.486   1.411  0.00  0.00    +0.386 N 
ATOM     14  C   UNL     1       0.494  -1.915   1.236  0.00  0.00    -0.078 C 
ATOM     15  C   UNL     1       0.414  -0.388   1.306  0.00  0.00    -0.015 C 
ATOM     16  H   UNL     1      -1.235  -2.169   2.287  0.00  0.00    -0.081 HD
ENDBRANCH   8  13
BRANCH   8  17
ATOM     17  C   UNL     1      -2.138  -4.542   1.524  0.00  0.00    -0.022 A 
ATOM     18  C   UNL     1      -2.651  -5.629   0.898  0.00  0.00    +0.009 A 
ATOM     19  C   UNL     1      -3.962  -5.990   1.147  0.00  0.00    +0.008 A 
ATOM     20  C   UNL     1      -4.695  -5.246   2.011  0.00  0.00    +0.045 A 
ATOM     21  S   UNL     1      -3.523  -3.994   2.508  0.00  0.00    -0.103 S 
ENDBRANCH   8  17
ENDBRANCH   7   8
ENDBRANCH   1   7
BRANCH   4  22
ATOM     22  C   UNL     1       1.662  -8.523   4.685  0.00  0.00    +0.148 C 
BRANCH  22  23
ATOM     23  C   UNL     1       1.692 -10.004   4.408  0.00  0.00    +0.009 A 
ATOM     24  C   UNL     1       2.637 -10.734   3.767  0.00  0.00    +0.015 A 
ATOM     25  C   UNL     1       2.452 -12.097   3.629  0.00  0.00    +0.037 A 
ATOM     26  C   UNL     1       1.331 -12.663   4.139  0.00  0.00    +0.143 A 
ATOM     27  S   UNL     1       0.495 -11.254   4.847  0.00  0.00    -0.072 S 
BRANCH  26  28
ATOM     28  S   UNL     1       0.832 -14.353   4.114  0.00  0.00    +0.064 S 
ATOM     29  O   UNL     1      -0.583 -14.360   4.246  0.00  0.00    -0.153 OA
ATOM     30  O   UNL     1       1.497 -14.957   3.013  0.00  0.00    -0.153 OA
BRANCH  28  31
ATOM     31  N   UNL     1       1.439 -15.063   5.481  0.00  0.00    -0.193 NA
ATOM     32  C   UNL     1       0.967 -14.635   6.800  0.00  0.00    +0.127 C 
ATOM     33  H   UNL     1       2.107 -15.762   5.409  0.00  0.00    +0.148 HD
ENDBRANCH  28  31
ENDBRANCH  26  28
ENDBRANCH  22  23
ENDBRANCH   4  22
TORSDOF 8
