REMARK  Name = ZINC39536120
REMARK  8 active torsions:
REMARK  status: ('A' for Active; 'I' for Inactive)
REMARK    1  A    between atoms: C_1  and  C_2
REMARK    2  A    between atoms: C_4  and  C_30
REMARK    3  A    between atoms: C_7  and  C_12
REMARK    4  A    between atoms: C_12  and  O_14
REMARK    5  A    between atoms: O_14  and  C_15
REMARK    6  A    between atoms: C_15  and  C_17
REMARK    7  A    between atoms: C_15  and  C_18
REMARK    8  A    between atoms: N_20  and  C_21
REMARK                            x       y       z     vdW  Elec       q    Type
REMARK                         _______ _______ _______ _____ _____    ______ ____
ROOT
ATOM      1  O   UNL     1       0.074  -5.552   3.710  0.00  0.00    -0.448 OA
ENDROOT
BRANCH   1   2
ATOM      2  C   UNL     1       0.056  -5.550   2.362  0.00  0.00    +0.356 C 
ATOM      3  O   UNL     1       0.061  -6.601   1.752  0.00  0.00    -0.243 OA
BRANCH   2  10
ATOM      4  C   UNL     1      -0.070   1.514   0.035  0.00  0.00    +0.044 C 
ATOM      5  C   UNL     1      -0.050   0.007   0.024  0.00  0.00    -0.048 A 
ATOM      6  C   UNL     1      -0.057  -0.672  -1.188  0.00  0.00    +0.007 A 
ATOM      7  C   UNL     1      -0.038  -2.036  -1.220  0.00  0.00    -0.041 A 
ATOM      8  C   UNL     1      -0.013  -2.762  -0.022  0.00  0.00    +0.003 A 
ATOM      9  C   UNL     1       0.010  -4.145   0.277  0.00  0.00    +0.043 A 
ATOM     10  C   UNL     1       0.030  -4.276   1.630  0.00  0.00    +0.125 A 
ATOM     11  N   UNL     1       0.020  -3.020   2.206  0.00  0.00    -0.349 N 
ATOM     12  H   UNL     1       0.031  -2.836   3.159  0.00  0.00    +0.166 HD
ATOM     13  C   UNL     1      -0.006  -2.075   1.208  0.00  0.00    +0.048 A 
ATOM     14  C   UNL     1      -0.020  -0.683   1.215  0.00  0.00    +0.029 A 
ATOM     15  C   UNL     1      -0.047  -2.761  -2.542  0.00  0.00    +0.044 C 
ENDBRANCH   2  10
ENDBRANCH   1   2
BRANCH   1  16
ATOM     16  C   UNL     1       0.099  -6.826   4.356  0.00  0.00    +0.259 C 
ATOM     17  C   UNL     1      -1.334  -7.299   4.606  0.00  0.00    +0.062 C 
BRANCH  16  18
ATOM     18  C   UNL     1       0.826  -6.708   5.671  0.00  0.00    +0.258 C 
ATOM     19  O   UNL     1       1.198  -5.622   6.063  0.00  0.00    -0.271 OA
ATOM     20  N   UNL     1       1.062  -7.809   6.412  0.00  0.00    -0.280 N 
ATOM     21  H   UNL     1       0.708  -8.668   6.131  0.00  0.00    +0.155 HD
BRANCH  20  22
ATOM     22  C   UNL     1       1.818  -7.713   7.588  0.00  0.00    +0.072 A 
ATOM     23  C   UNL     1       1.731  -6.577   8.380  0.00  0.00    +0.029 A 
ATOM     24  C   UNL     1       2.477  -6.483   9.539  0.00  0.00    +0.043 A 
ATOM     25  C   UNL     1       3.312  -7.522   9.913  0.00  0.00    +0.161 A 
ATOM     26  C   UNL     1       3.402  -8.659   9.125  0.00  0.00    +0.195 A 
ATOM     27  C   UNL     1       2.652  -8.759   7.966  0.00  0.00    +0.182 A 
ATOM     28  F   UNL     1       2.735  -9.869   7.200  0.00  0.00    -0.200 F 
ATOM     29  F   UNL     1       4.219  -9.671   9.491  0.00  0.00    -0.199 F 
ATOM     30  F   UNL     1       4.040  -7.427  11.047  0.00  0.00    -0.202 F 
ENDBRANCH  20  22
ENDBRANCH  16  18
ENDBRANCH   1  16
TORSDOF 5
