REMARK  Name = ZINC39592886
REMARK  5 active torsions:
REMARK  status: ('A' for Active; 'I' for Inactive)
REMARK    1  A    between atoms: C_6  and  C_7
REMARK    2  A    between atoms: C_9  and  C_13
REMARK    3  A    between atoms: C_20  and  C_22
REMARK    4  A    between atoms: C_22  and  O_23
REMARK    5  A    between atoms: O_23  and  C_24
REMARK                            x       y       z     vdW  Elec       q    Type
REMARK                         _______ _______ _______ _____ _____    ______ ____
ROOT
ATOM      1  C   UNL     1      -3.262  -3.142   1.279  0.00  0.00    +0.230 C 
ATOM      2  N   UNL     1      -3.098  -2.298   2.472  0.00  0.00    -0.242 N 
ATOM      3  N   UNL     1      -4.372  -2.175   3.039  0.00  0.00    -0.161 NA
ATOM      4  C   UNL     1      -5.249  -2.821   2.356  0.00  0.00    +0.201 C 
ATOM      5  N   UNL     1      -4.711  -3.465   1.246  0.00  0.00    -0.175 N 
ATOM      6  N   UNL     1      -5.604  -4.185   0.460  0.00  0.00    -0.170 NA
ATOM      7  C   UNL     1      -6.864  -4.250   0.748  0.00  0.00    +0.137 C 
ATOM      8  S   UNL     1      -6.972  -3.258   2.236  0.00  0.00    -0.031 S 
ATOM      9  H   UNL     1      -2.273  -1.905   2.799  0.00  0.00    +0.170 HD
ENDROOT
BRANCH   1  12
ATOM     10  C   UNL     1      -1.271  -0.766   0.011  0.00  0.00    +0.091 C 
ATOM     11  C   UNL     1      -1.363  -2.110   0.010  0.00  0.00    +0.035 C 
ATOM     12  C   UNL     1      -2.858  -2.372   0.020  0.00  0.00    +0.194 C 
ATOM     13  N   UNL     1      -3.437  -1.018   0.026  0.00  0.00    -0.176 NA
ATOM     14  N   UNL     1      -2.509  -0.206   0.026  0.00  0.00    -0.154 NA
BRANCH  10  20
ATOM     15  C   UNL     1      -0.017   1.389   0.010  0.00  0.00    +0.011 A 
ATOM     16  C   UNL     1       1.170   2.093   0.002  0.00  0.00    +0.020 A 
ATOM     17  C   UNL     1       2.378   1.417  -0.013  0.00  0.00    +0.041 A 
ATOM     18  C   UNL     1       2.402   0.033  -0.021  0.00  0.00    +0.020 A 
ATOM     19  C   UNL     1       1.221  -0.680  -0.014  0.00  0.00    +0.011 A 
ATOM     20  C   UNL     1       0.002  -0.004   0.002  0.00  0.00    +0.002 A 
ATOM     21 CL   UNL     1       3.868   2.309  -0.022  0.00  0.00    -0.084 Cl
ENDBRANCH  10  20
ENDBRANCH   1  12
BRANCH   7  22
ATOM     22  C   UNL     1      -7.963  -4.976   0.015  0.00  0.00    +0.293 C 
BRANCH  22  23
ATOM     23  O   UNL     1      -7.416  -5.640  -1.127  0.00  0.00    -0.485 OA
BRANCH  23  24
ATOM     24  C   UNL     1      -8.280  -6.346  -1.902  0.00  0.00    +0.121 A 
ATOM     25  C   UNL     1      -9.627  -6.395  -1.574  0.00  0.00    +0.047 A 
ATOM     26  C   UNL     1     -10.504  -7.114  -2.363  0.00  0.00    +0.023 A 
ATOM     27  C   UNL     1     -10.039  -7.785  -3.480  0.00  0.00    +0.041 A 
ATOM     28  C   UNL     1      -8.696  -7.738  -3.809  0.00  0.00    +0.023 A 
ATOM     29  C   UNL     1      -7.817  -7.015  -3.026  0.00  0.00    +0.047 A 
ATOM     30 CL   UNL     1     -11.143  -8.688  -4.471  0.00  0.00    -0.084 Cl
ENDBRANCH  23  24
ENDBRANCH  22  23
ENDBRANCH   7  22
TORSDOF 5
