REMARK  Name = ZINC14547775
REMARK  7 active torsions:
REMARK  status: ('A' for Active; 'I' for Inactive)
REMARK    1  A    between atoms: C_1  and  C_2
REMARK    2  A    between atoms: C_2  and  N_3
REMARK    3  A    between atoms: N_3  and  C_4
REMARK    4  A    between atoms: N_3  and  C_6
REMARK    5  A    between atoms: C_4  and  C_5
REMARK    6  A    between atoms: C_19  and  C_22
REMARK    7  A    between atoms: C_31  and  O_32
REMARK                            x       y       z     vdW  Elec       q    Type
REMARK                         _______ _______ _______ _____ _____    ______ ____
ROOT
ATOM      1  C   UNL     1       4.054  -0.302   1.002  0.00  0.00    +0.030 A 
ATOM      2  C   UNL     1       4.398   0.188   2.256  0.00  0.00    +0.025 A 
ATOM      3  C   UNL     1       3.703   1.257   2.784  0.00  0.00    +0.025 A 
ATOM      4  C   UNL     1       2.667   1.839   2.064  0.00  0.00    +0.031 A 
ATOM      5  C   UNL     1       2.320   1.358   0.811  0.00  0.00    -0.018 A 
ATOM      6  C   UNL     1       3.022   0.281   0.286  0.00  0.00    +0.029 A 
ATOM      7  C   UNL     1       1.214   1.956   0.001  0.00  0.00    +0.049 C 
ATOM      8  C   UNL     1      -0.013   1.076   0.008  0.00  0.00    -0.023 C 
ATOM      9  C   UNL     1      -1.098   1.811   0.017  0.00  0.00    -0.030 C 
ATOM     10  C   UNL     1      -0.742   3.285   0.020  0.00  0.00    +0.033 C 
ATOM     11  C   UNL     1       0.718   3.304   0.560  0.00  0.00    +0.029 C 
ATOM     12  C   UNL     1       0.640   3.239   2.088  0.00  0.00    +0.109 C 
ATOM     13  N   UNL     1       1.971   2.923   2.618  0.00  0.00    -0.336 N 
ATOM     14  H   UNL     1       2.359   3.450   3.334  0.00  0.00    +0.147 HD
ENDROOT
BRANCH  12  15
ATOM     15  C   UNL     1       0.185   4.571   2.627  0.00  0.00    +0.022 A 
ATOM     16  C   UNL     1      -1.129   4.732   3.095  0.00  0.00    -0.009 A 
ATOM     17  C   UNL     1      -2.046   3.667   3.073  0.00  0.00    +0.009 A 
ATOM     18  C   UNL     1      -3.312   3.858   3.534  0.00  0.00    +0.001 A 
ATOM     19  C   UNL     1      -3.716   5.097   4.029  0.00  0.00    +0.001 A 
ATOM     20  C   UNL     1      -2.852   6.148   4.075  0.00  0.00    +0.008 A 
ATOM     21  C   UNL     1      -1.538   5.991   3.603  0.00  0.00    -0.017 A 
ATOM     22  C   UNL     1      -0.625   7.059   3.619  0.00  0.00    +0.012 A 
ATOM     23  C   UNL     1       0.640   6.872   3.154  0.00  0.00    +0.046 A 
ATOM     24  C   UNL     1       1.047   5.630   2.658  0.00  0.00    +0.122 A 
BRANCH  24  25
ATOM     25  O   UNL     1       2.317   5.475   2.200  0.00  0.00    -0.506 OA
ATOM     26  H   UNL     1       2.422   5.667   1.258  0.00  0.00    +0.292 HD
ENDBRANCH  24  25
ENDBRANCH  12  15
BRANCH   1  27
ATOM     27  N   UNL     1       4.754  -1.388   0.461  0.00  0.00    -0.330 N 
BRANCH  27  29
ATOM     28  C   UNL     1       5.288  -3.130   2.092  0.00  0.00    +0.024 C 
ATOM     29  C   UNL     1       5.846  -2.006   1.217  0.00  0.00    +0.102 C 
ENDBRANCH  27  29
BRANCH  27  30
ATOM     30  C   UNL     1       4.393  -1.906  -0.861  0.00  0.00    +0.102 C 
ATOM     31  C   UNL     1       5.206  -1.177  -1.933  0.00  0.00    +0.024 C 
ENDBRANCH  27  30
ENDBRANCH   1  27
TORSDOF 5
