REMARK  Name = ZINC45873464
REMARK  12 active torsions:
REMARK  status: ('A' for Active; 'I' for Inactive)
REMARK    1  A    between atoms: C_1  and  C_2
REMARK    2  A    between atoms: C_3  and  C_14
REMARK    3  A    between atoms: N_5  and  C_7
REMARK    4  A    between atoms: C_14  and  N_15
REMARK    5  A    between atoms: N_15  and  C_16
REMARK    6  A    between atoms: N_15  and  C_20
REMARK    7  A    between atoms: C_16  and  C_17
REMARK    8  A    between atoms: C_17  and  O_18
REMARK    9  A    between atoms: O_18  and  C_19
REMARK   10  A    between atoms: C_21  and  N_36
REMARK   11  A    between atoms: N_22  and  C_29
REMARK   12  A    between atoms: C_29  and  C_30
REMARK                            x       y       z     vdW  Elec       q    Type
REMARK                         _______ _______ _______ _____ _____    ______ ____
ROOT
ATOM      1  N   UNL     1       1.118  -0.286  -3.274  0.00  0.00    -0.316 N 
ENDROOT
BRANCH   1   2
ATOM      2  C   UNL     1       1.914   0.875  -3.138  0.00  0.00    +0.134 A 
ATOM      3  C   UNL     1       3.218   0.780  -2.736  0.00  0.00    +0.127 A 
ATOM      4  N   UNL     1       3.971   1.925  -2.611  0.00  0.00    -0.276 N 
ATOM      5  C   UNL     1       3.431   3.127  -2.882  0.00  0.00    +0.331 A 
ATOM      6  O   UNL     1       4.112   4.129  -2.767  0.00  0.00    -0.246 OA
ATOM      7  N   UNL     1       2.150   3.239  -3.278  0.00  0.00    -0.273 N 
ATOM      8  H   UNL     1       1.781   4.116  -3.468  0.00  0.00    +0.173 HD
ATOM      9  C   UNL     1       1.378   2.144  -3.420  0.00  0.00    +0.277 A 
ATOM     10  O   UNL     1       0.219   2.254  -3.785  0.00  0.00    -0.266 OA
BRANCH   3  11
ATOM     11  N   UNL     1       3.772  -0.449  -2.459  0.00  0.00    -0.343 N 
ATOM     12  H   UNL     1       3.249  -1.256  -2.585  0.00  0.00    +0.144 HD
ATOM     13  H   UNL     1       4.685  -0.508  -2.137  0.00  0.00    +0.144 HD
ENDBRANCH   3  11
BRANCH   4  14
ATOM     14  C   UNL     1       5.369   1.835  -2.181  0.00  0.00    +0.163 C 
BRANCH  14  15
ATOM     15  C   UNL     1       6.257   1.682  -3.389  0.00  0.00    -0.028 A 
ATOM     16  C   UNL     1       6.559   0.422  -3.870  0.00  0.00    +0.005 A 
ATOM     17  C   UNL     1       7.375   0.282  -4.978  0.00  0.00    +0.000 A 
ATOM     18  C   UNL     1       7.887   1.402  -5.605  0.00  0.00    +0.000 A 
ATOM     19  C   UNL     1       7.584   2.663  -5.125  0.00  0.00    +0.000 A 
ATOM     20  C   UNL     1       6.765   2.803  -4.019  0.00  0.00    +0.005 A 
ENDBRANCH  14  15
ENDBRANCH   4  14
ENDBRANCH   1   2
BRANCH   1  21
ATOM     21  C   UNL     1      -0.050  -0.480  -2.411  0.00  0.00    +0.145 C 
BRANCH  21  24
ATOM     22  C   UNL     1       0.740   1.115   0.209  0.00  0.00    +0.068 C 
ATOM     23  C   UNL     1       0.737  -0.384   0.055  0.00  0.00    +0.067 A 
ATOM     24  C   UNL     1       0.388  -1.087  -1.103  0.00  0.00    +0.029 A 
ATOM     25  C   UNL     1       0.512  -2.410  -0.841  0.00  0.00    +0.138 A 
ATOM     26  N   UNL     1       0.928  -2.537   0.446  0.00  0.00    -0.221 N 
ATOM     27  N   UNL     1       1.065  -1.249   0.980  0.00  0.00    -0.170 NA
ATOM     28 CL   UNL     1       0.198  -3.709  -1.949  0.00  0.00    -0.062 Cl
BRANCH  26  29
ATOM     29  C   UNL     1       1.180  -3.741   1.118  0.00  0.00    +0.067 A 
ATOM     30  C   UNL     1       0.408  -4.863   0.847  0.00  0.00    +0.028 A 
ATOM     31  C   UNL     1       0.659  -6.048   1.511  0.00  0.00    +0.002 A 
ATOM     32  C   UNL     1       1.676  -6.117   2.445  0.00  0.00    +0.000 A 
ATOM     33  C   UNL     1       2.446  -5.001   2.717  0.00  0.00    +0.002 A 
ATOM     34  C   UNL     1       2.204  -3.815   2.052  0.00  0.00    +0.028 A 
ENDBRANCH  26  29
ENDBRANCH  21  24
ENDBRANCH   1  21
BRANCH   1  35
ATOM     35  C   UNL     1       1.461  -1.296  -4.279  0.00  0.00    +0.133 C 
BRANCH  35  36
ATOM     36  C   UNL     1       0.689  -1.015  -5.569  0.00  0.00    +0.178 C 
BRANCH  36  37
ATOM     37  O   UNL     1       1.121   0.230  -6.122  0.00  0.00    -0.381 OA
ATOM     38  C   UNL     1       0.458   0.589  -7.335  0.00  0.00    +0.194 C 
ENDBRANCH  36  37
ENDBRANCH  35  36
ENDBRANCH   1  35
TORSDOF 10
