REMARK  Name = ZINC02542703
REMARK  7 active torsions:
REMARK  status: ('A' for Active; 'I' for Inactive)
REMARK    1  A    between atoms: C_9  and  O_17
REMARK    2  A    between atoms: C_10  and  C_11
REMARK    3  A    between atoms: N_12  and  N_13
REMARK    4  A    between atoms: N_13  and  C_14
REMARK    5  A    between atoms: C_14  and  N_16
REMARK    6  A    between atoms: O_17  and  C_18
REMARK    7  A    between atoms: C_18  and  C_20
REMARK                            x       y       z     vdW  Elec       q    Type
REMARK                         _______ _______ _______ _____ _____    ______ ____
ROOT
ATOM      1  C   UNL     1       2.233   5.357  -0.102  0.00  0.00    +0.001 A 
ATOM      2  C   UNL     1       0.995   5.993  -0.144  0.00  0.00    +0.001 A 
ATOM      3  C   UNL     1      -0.163   5.275  -0.120  0.00  0.00    +0.009 A 
ATOM      4  C   UNL     1      -0.109   3.877  -0.051  0.00  0.00    -0.006 A 
ATOM      5  C   UNL     1       1.149   3.227  -0.008  0.00  0.00    -0.017 A 
ATOM      6  C   UNL     1       2.322   4.000  -0.035  0.00  0.00    +0.008 A 
ATOM      7  C   UNL     1       1.201   1.824   0.060  0.00  0.00    +0.012 A 
ATOM      8  C   UNL     1       0.060   1.085   0.085  0.00  0.00    +0.047 A 
ATOM      9  C   UNL     1      -1.200   1.679   0.039  0.00  0.00    +0.141 A 
ATOM     10  C   UNL     1      -1.325   3.067  -0.023  0.00  0.00    +0.045 A 
ENDROOT
BRANCH  10  11
ATOM     11  C   UNL     1      -2.650   3.701  -0.066  0.00  0.00    +0.142 C 
ATOM     12  N   UNL     1      -2.754   4.995  -0.012  0.00  0.00    -0.188 NA
BRANCH  12  13
ATOM     13  N   UNL     1      -4.019   5.595   0.053  0.00  0.00    -0.219 N 
ATOM     14  H   UNL     1      -4.919   4.970   0.142  0.00  0.00    +0.176 HD
BRANCH  13  15
ATOM     15  C   UNL     1      -4.131   6.937   0.008  0.00  0.00    +0.147 C 
ATOM     16  S   UNL     1      -5.680   7.665  -0.044  0.00  0.00    -0.017 S 
BRANCH  15  17
ATOM     17  N   UNL     1      -3.025   7.706   0.003  0.00  0.00    -0.339 N 
ATOM     18  H   UNL     1      -3.117   8.802  -0.034  0.00  0.00    +0.144 HD
ATOM     19  H   UNL     1      -2.030   7.239   0.036  0.00  0.00    +0.144 HD
ENDBRANCH  15  17
ENDBRANCH  13  15
ENDBRANCH  12  13
ENDBRANCH  10  11
BRANCH   9  20
ATOM     20  O   UNL     1      -2.313   0.902   0.061  0.00  0.00    -0.422 OA
BRANCH  20  21
ATOM     21  C   UNL     1      -2.834   0.545  -1.129  0.00  0.00    +0.346 C 
ATOM     22  O   UNL     1      -2.257   0.840  -2.157  0.00  0.00    -0.244 OA
BRANCH  21  23
ATOM     23  C   UNL     1      -4.104  -0.203  -1.185  0.00  0.00    +0.078 A 
ATOM     24  C   UNL     1      -4.827  -0.447  -0.014  0.00  0.00    +0.018 A 
ATOM     25  C   UNL     1      -6.013  -1.147  -0.073  0.00  0.00    +0.021 A 
ATOM     26  C   UNL     1      -6.490  -1.608  -1.289  0.00  0.00    +0.042 A 
ATOM     27  C   UNL     1      -5.780  -1.370  -2.454  0.00  0.00    +0.040 A 
ATOM     28  C   UNL     1      -4.593  -0.666  -2.410  0.00  0.00    +0.056 A 
ATOM     29 CL   UNL     1      -3.708  -0.362  -3.872  0.00  0.00    -0.083 Cl
ATOM     30 CL   UNL     1      -7.985  -2.488  -1.353  0.00  0.00    -0.083 Cl
ENDBRANCH  21  23
ENDBRANCH  20  21
ENDBRANCH   9  20
TORSDOF 7
