REMARK  Name = ZINC21260156
REMARK  7 active torsions:
REMARK  status: ('A' for Active; 'I' for Inactive)
REMARK    1  A    between atoms: C_1  and  C_2
REMARK    2  A    between atoms: C_2  and  C_3
REMARK    3  A    between atoms: C_6  and  C_9
REMARK    4  A    between atoms: C_14  and  C_24
REMARK    5  A    between atoms: C_27  and  O_31
REMARK    6  A    between atoms: C_28  and  O_30
REMARK    7  A    between atoms: O_31  and  C_32
REMARK                            x       y       z     vdW  Elec       q    Type
REMARK                         _______ _______ _______ _____ _____    ______ ____
ROOT
ATOM      1  C   UNL     1      -2.969   0.594  -4.236  0.00  0.00    +0.032 C 
ATOM      2  C   UNL     1      -3.306  -0.674  -3.453  0.00  0.00    +0.059 C 
ATOM      3  C   UNL     1      -2.876  -0.520  -2.005  0.00  0.00    +0.017 C 
ATOM      4  C   UNL     1      -2.897   0.681  -1.410  0.00  0.00    +0.036 C 
ATOM      5  C   UNL     1      -2.513   0.975   0.020  0.00  0.00    +0.136 C 
ATOM      6  N   UNL     1      -2.342  -0.200   0.848  0.00  0.00    -0.331 N 
ATOM      7  C   UNL     1      -1.327  -1.119   0.587  0.00  0.00    +0.049 A 
ATOM      8  C   UNL     1      -0.289  -1.327   1.481  0.00  0.00    +0.025 A 
ATOM      9  C   UNL     1       0.721  -2.216   1.156  0.00  0.00    +0.002 A 
ATOM     10  C   UNL     1       0.699  -2.890  -0.051  0.00  0.00    +0.002 A 
ATOM     11  C   UNL     1      -0.346  -2.698  -0.940  0.00  0.00    +0.025 A 
ATOM     12  C   UNL     1      -1.368  -1.826  -0.606  0.00  0.00    +0.052 A 
ATOM     13  N   UNL     1      -2.501  -1.674  -1.396  0.00  0.00    -0.316 N 
ATOM     14  C   UNL     1      -3.310   1.829  -2.134  0.00  0.00    +0.163 C 
ATOM     15  O   UNL     1      -3.339   2.904  -1.567  0.00  0.00    -0.292 OA
ATOM     16  C   UNL     1      -3.713   1.762  -3.577  0.00  0.00    +0.088 C 
ATOM     17  H   UNL     1      -3.018  -0.378   1.697  0.00  0.00    +0.147 HD
ATOM     18  H   UNL     1      -3.114  -2.580  -1.510  0.00  0.00    +0.152 HD
ENDROOT
BRANCH   1  22
ATOM     19  C   UNL     1      -4.240   0.172  -8.292  0.00  0.00    -0.048 A 
ATOM     20  C   UNL     1      -2.906   0.391  -8.005  0.00  0.00    +0.004 A 
ATOM     21  C   UNL     1      -2.494   0.527  -6.693  0.00  0.00    +0.004 A 
ATOM     22  C   UNL     1      -3.417   0.445  -5.667  0.00  0.00    -0.043 A 
ATOM     23  C   UNL     1      -4.751   0.221  -5.954  0.00  0.00    +0.004 A 
ATOM     24  C   UNL     1      -5.163   0.089  -7.266  0.00  0.00    +0.004 A 
BRANCH  19  26
ATOM     25  C   UNL     1      -4.625  -1.450 -10.129  0.00  0.00    +0.009 C 
ATOM     26  C   UNL     1      -4.689   0.024  -9.723  0.00  0.00    +0.032 C 
ENDBRANCH  19  26
ENDBRANCH   1  22
BRANCH   5  27
ATOM     27  C   UNL     1      -1.220   1.749   0.017  0.00  0.00    -0.019 A 
ATOM     28  C   UNL     1      -1.198   3.055   0.470  0.00  0.00    +0.009 A 
ATOM     29  C   UNL     1      -0.013   3.768   0.475  0.00  0.00    +0.050 A 
ATOM     30  C   UNL     1       1.154   3.176   0.020  0.00  0.00    +0.161 A 
ATOM     31  C   UNL     1       1.130   1.863  -0.441  0.00  0.00    +0.159 A 
ATOM     32  C   UNL     1      -0.060   1.154  -0.443  0.00  0.00    +0.055 A 
BRANCH  31  33
ATOM     33  O   UNL     1       2.273   1.277  -0.888  0.00  0.00    -0.503 OA
ATOM     34  H   UNL     1       2.253   0.239  -1.252  0.00  0.00    +0.292 HD
ENDBRANCH  31  33
BRANCH  30  35
ATOM     35  O   UNL     1       2.320   3.876   0.025  0.00  0.00    -0.491 OA
ATOM     36  C   UNL     1       2.269   5.218   0.512  0.00  0.00    +0.277 C 
ENDBRANCH  30  35
ENDBRANCH   5  27
TORSDOF 5
