REMARK  Name = ZINC40649336
REMARK  4 active torsions:
REMARK  status: ('A' for Active; 'I' for Inactive)
REMARK    1  A    between atoms: C_6  and  N_7
REMARK    2  A    between atoms: C_9  and  N_21
REMARK    3  A    between atoms: C_10  and  O_14
REMARK    4  A    between atoms: O_14  and  C_15
REMARK                            x       y       z     vdW  Elec       q    Type
REMARK                         _______ _______ _______ _____ _____    ______ ____
ROOT
ATOM      1  N   UNL     1      -1.198  -0.721   0.010  0.00  0.00    -0.297 N 
ATOM      2  C   UNL     1      -1.181  -2.103  -0.102  0.00  0.00    +0.160 A 
ATOM      3  C   UNL     1      -2.372  -2.819  -0.205  0.00  0.00    +0.227 A 
ATOM      4  C   UNL     1      -2.301  -4.202  -0.316  0.00  0.00    +0.251 A 
ATOM      5  N   UNL     1      -1.108  -4.790  -0.319  0.00  0.00    -0.199 NA
ATOM      6  C   UNL     1      -0.003  -4.079  -0.219  0.00  0.00    +0.227 A 
ATOM      7  N   UNL     1      -0.026  -2.766  -0.118  0.00  0.00    -0.218 NA
ATOM      8  H   UNL     1      -2.043  -0.252   0.099  0.00  0.00    +0.154 HD
ENDROOT
BRANCH   1  14
ATOM      9  C   UNL     1       1.075  -0.457  -0.761  0.00  0.00    +0.024 A 
ATOM     10  C   UNL     1       2.259   0.254  -0.773  0.00  0.00    +0.016 A 
ATOM     11  C   UNL     1       2.377   1.417  -0.033  0.00  0.00    +0.013 A 
ATOM     12  C   UNL     1       1.310   1.871   0.721  0.00  0.00    +0.016 A 
ATOM     13  C   UNL     1       0.123   1.164   0.738  0.00  0.00    +0.024 A 
ATOM     14  C   UNL     1       0.002  -0.004  -0.004  0.00  0.00    +0.032 A 
ATOM     15  I   UNL     1       4.175   2.491  -0.054  0.00  0.00    -0.044 I 
ENDBRANCH   1  14
BRANCH   3  16
ATOM     16  N   UNL     1      -3.679  -2.124  -0.197  0.00  0.00    +0.065 N 
ATOM     17  O   UNL     1      -4.173  -1.754  -1.237  0.00  0.00    -0.126 OA
ATOM     18  O   UNL     1      -4.251  -1.925   0.849  0.00  0.00    -0.126 OA
ENDBRANCH   3  16
BRANCH   4  19
ATOM     19  O   UNL     1      -3.432  -4.941  -0.418  0.00  0.00    -0.471 OA
BRANCH  19  20
ATOM     20  C   UNL     1      -3.273  -6.357  -0.528  0.00  0.00    +0.175 C 
ATOM     21  C   UNL     1      -3.163  -6.745  -2.004  0.00  0.00    +0.044 C 
ATOM     22  C   UNL     1      -2.993  -8.261  -2.121  0.00  0.00    +0.004 C 
ATOM     23  C   UNL     1      -4.204  -8.960  -1.499  0.00  0.00    +0.000 C 
ATOM     24  C   UNL     1      -4.314  -8.572  -0.023  0.00  0.00    +0.004 C 
ATOM     25  C   UNL     1      -4.484  -7.056   0.094  0.00  0.00    +0.044 C 
ENDBRANCH  19  20
ENDBRANCH   4  19
TORSDOF 4
