REMARK  Name = ZINC08763486
REMARK  11 active torsions:
REMARK  status: ('A' for Active; 'I' for Inactive)
REMARK    1  A    between atoms: C_1  and  C_2
REMARK    2  A    between atoms: C_5  and  C_8
REMARK    3  A    between atoms: N_12  and  C_16
REMARK    4  A    between atoms: C_16  and  C_17
REMARK    5  A    between atoms: C_17  and  C_18
REMARK    6  A    between atoms: C_18  and  C_19
REMARK    7  A    between atoms: C_19  and  C_20
REMARK    8  A    between atoms: C_20  and  C_21
REMARK    9  A    between atoms: N_23  and  C_24
REMARK   10  A    between atoms: C_27  and  C_31
REMARK   11  A    between atoms: C_28  and  O_30
REMARK                            x       y       z     vdW  Elec       q    Type
REMARK                         _______ _______ _______ _____ _____    ______ ____
ROOT
ATOM      1  C   UNL     1       4.525   9.389   2.044  0.00  0.00    +0.002 C 
ENDROOT
BRANCH   1   2
ATOM      2  C   UNL     1       4.206   7.898   1.913  0.00  0.00    +0.019 C 
BRANCH   2   3
ATOM      3  C   UNL     1       4.177   7.511   0.433  0.00  0.00    +0.115 C 
BRANCH   3   8
ATOM      4  C   UNL     1       1.200   3.569  -0.028  0.00  0.00    +0.028 C 
ATOM      5  C   UNL     1       2.370   4.245   0.086  0.00  0.00    +0.077 C 
ATOM      6  C   UNL     1       2.611   5.699   0.211  0.00  0.00    +0.258 C 
ATOM      7  O   UNL     1       1.695   6.500   0.223  0.00  0.00    -0.269 OA
ATOM      8  N   UNL     1       3.872   6.083   0.308  0.00  0.00    -0.255 N 
ATOM      9  C   UNL     1       4.884   5.192   0.294  0.00  0.00    +0.121 C 
ATOM     10  S   UNL     1       6.566   5.492   0.408  0.00  0.00    -0.027 S 
ATOM     11  S   UNL     1       4.046   3.623   0.137  0.00  0.00    -0.061 S 
BRANCH   4  16
ATOM     12  C   UNL     1       1.237  -2.077  -1.104  0.00  0.00    +0.044 C 
ATOM     13  C   UNL     1       1.228  -0.597  -0.822  0.00  0.00    -0.050 A 
ATOM     14  C   UNL     1       0.082   0.002  -0.327  0.00  0.00    +0.004 A 
ATOM     15  C   UNL     1       0.065   1.356  -0.066  0.00  0.00    +0.008 A 
ATOM     16  C   UNL     1       1.210   2.125  -0.303  0.00  0.00    -0.024 A 
ATOM     17  C   UNL     1       2.364   1.511  -0.802  0.00  0.00    +0.008 A 
ATOM     18  C   UNL     1       2.365   0.157  -1.058  0.00  0.00    +0.004 A 
ENDBRANCH   4  16
ENDBRANCH   3   8
ENDBRANCH   2   3
ENDBRANCH   1   2
BRANCH   1  19
ATOM     19  C   UNL     1       4.554   9.776   3.524  0.00  0.00    +0.009 C 
BRANCH  19  20
ATOM     20  C   UNL     1       4.873  11.267   3.654  0.00  0.00    +0.096 C 
BRANCH  20  21
ATOM     21  C   UNL     1       4.902  11.649   5.112  0.00  0.00    +0.217 C 
ATOM     22  O   UNL     1       4.688  10.811   5.963  0.00  0.00    -0.275 OA
ATOM     23  N   UNL     1       5.164  12.921   5.471  0.00  0.00    -0.285 N 
ATOM     24  H   UNL     1       5.247  13.609   4.792  0.00  0.00    +0.155 HD
BRANCH  23  25
ATOM     25  C   UNL     1       5.317  13.248   6.817  0.00  0.00    +0.037 A 
ATOM     26  C   UNL     1       4.552  12.595   7.781  0.00  0.00    +0.024 A 
ATOM     27  C   UNL     1       4.698  12.904   9.103  0.00  0.00    +0.020 A 
ATOM     28  C   UNL     1       5.610  13.889   9.497  0.00  0.00    +0.105 A 
ATOM     29  C   UNL     1       6.379  14.554   8.529  0.00  0.00    +0.133 A 
ATOM     30  C   UNL     1       6.227  14.228   7.192  0.00  0.00    +0.069 A 
BRANCH  28  31
ATOM     31  C   UNL     1       5.763  14.226  10.921  0.00  0.00    +0.390 C 
ATOM     32  O   UNL     1       6.556  15.082  11.261  0.00  0.00    -0.240 OA
ATOM     33  O   UNL     1       5.024  13.586  11.849  0.00  0.00    -0.240 OA
ENDBRANCH  28  31
BRANCH  29  34
ATOM     34  O   UNL     1       7.266  15.510   8.901  0.00  0.00    -0.506 OA
ATOM     35  H   UNL     1       6.893  16.402   8.931  0.00  0.00    +0.292 HD
ENDBRANCH  29  34
ENDBRANCH  23  25
ENDBRANCH  20  21
ENDBRANCH  19  20
ENDBRANCH   1  19
TORSDOF 10
