REMARK  Name = ZINC20876045
REMARK  8 active torsions:
REMARK  status: ('A' for Active; 'I' for Inactive)
REMARK    1  A    between atoms: C_5  and  C_7
REMARK    2  A    between atoms: C_10  and  C_12
REMARK    3  A    between atoms: C_12  and  N_13
REMARK    4  A    between atoms: N_13  and  C_14
REMARK    5  A    between atoms: C_14  and  C_15
REMARK    6  A    between atoms: C_15  and  N_16
REMARK    7  A    between atoms: N_16  and  C_17
REMARK    8  A    between atoms: C_20  and  N_24
REMARK                            x       y       z     vdW  Elec       q    Type
REMARK                         _______ _______ _______ _____ _____    ______ ____
ROOT
ATOM      1  N   UNL     1      -4.933   1.550   0.034  0.00  0.00    +0.385 N 
ATOM      2  H   UNL     1      -4.963   0.911   0.929  0.00  0.00    -0.085 HD
ATOM      3  H   UNL     1      -4.971   0.921  -0.868  0.00  0.00    -0.085 HD
ENDROOT
BRANCH   1   4
ATOM      4  C   UNL     1      -6.086   2.461   0.044  0.00  0.00    -0.007 C 
BRANCH   4   8
ATOM      5  C   UNL     1      -9.120   0.554  -0.666  0.00  0.00    +0.136 A 
ATOM      6  C   UNL     1      -9.152   0.523   0.693  0.00  0.00    +0.050 A 
ATOM      7  C   UNL     1      -8.017   1.228   1.141  0.00  0.00    +0.043 A 
ATOM      8  C   UNL     1      -7.361   1.657   0.046  0.00  0.00    +0.089 A 
ATOM      9  O   UNL     1      -8.028   1.245  -1.044  0.00  0.00    -0.462 OA
BRANCH   5  14
ATOM     10  C   UNL     1     -11.601   0.100  -3.449  0.00  0.00    +0.001 A 
ATOM     11  C   UNL     1     -11.971  -1.221  -3.268  0.00  0.00    +0.001 A 
ATOM     12  C   UNL     1     -11.417  -1.967  -2.244  0.00  0.00    +0.021 A 
ATOM     13  C   UNL     1     -10.486  -1.398  -1.397  0.00  0.00    +0.052 A 
ATOM     14  C   UNL     1     -10.112  -0.064  -1.571  0.00  0.00    +0.036 A 
ATOM     15  C   UNL     1     -10.676   0.683  -2.607  0.00  0.00    +0.013 A 
ATOM     16 CL   UNL     1      -9.786  -2.338  -0.116  0.00  0.00    -0.083 Cl
ENDBRANCH   5  14
ENDBRANCH   4   8
ENDBRANCH   1   4
BRANCH   1  17
ATOM     17  C   UNL     1      -3.670   2.300   0.032  0.00  0.00    -0.063 C 
BRANCH  17  18
ATOM     18  C   UNL     1      -2.495   1.321   0.021  0.00  0.00    +0.082 C 
BRANCH  18  19
ATOM     19  N   UNL     1      -1.236   2.068   0.019  0.00  0.00    -0.345 N 
ATOM     20  H   UNL     1      -1.249   3.168   0.025  0.00  0.00    +0.146 HD
BRANCH  19  21
ATOM     21  C   UNL     1      -0.017   1.385   0.010  0.00  0.00    +0.046 A 
ATOM     22  C   UNL     1       0.002  -0.004   0.002  0.00  0.00    +0.026 A 
ATOM     23  C   UNL     1       1.208  -0.677  -0.013  0.00  0.00    +0.034 A 
ATOM     24  C   UNL     1       2.397   0.030  -0.021  0.00  0.00    +0.128 A 
ATOM     25  C   UNL     1       2.382   1.413  -0.014  0.00  0.00    +0.054 A 
ATOM     26  C   UNL     1       1.179   2.093   0.002  0.00  0.00    +0.064 A 
ATOM     27 CL   UNL     1       1.162   3.829   0.011  0.00  0.00    -0.082 Cl
BRANCH  24  28
ATOM     28  N   UNL     1       3.687  -0.695  -0.038  0.00  0.00    +0.056 N 
ATOM     29  O   UNL     1       3.701  -1.913  -0.045  0.00  0.00    -0.126 OA
ATOM     30  O   UNL     1       4.734  -0.074  -0.045  0.00  0.00    -0.126 OA
ENDBRANCH  24  28
ENDBRANCH  19  21
ENDBRANCH  18  19
ENDBRANCH  17  18
ENDBRANCH   1  17
TORSDOF 8
