REMARK  Name = ZINC08918169
REMARK  11 active torsions:
REMARK  status: ('A' for Active; 'I' for Inactive)
REMARK    1  A    between atoms: C_1  and  C_2
REMARK    2  A    between atoms: C_3  and  C_38
REMARK    3  A    between atoms: C_11  and  O_14
REMARK    4  A    between atoms: C_12  and  C_13
REMARK    5  A    between atoms: O_14  and  C_15
REMARK    6  A    between atoms: C_15  and  C_16
REMARK    7  A    between atoms: N_18  and  C_19
REMARK    8  A    between atoms: C_19  and  C_20
REMARK    9  A    between atoms: N_22  and  C_23
REMARK   10  A    between atoms: C_23  and  C_24
REMARK   11  A    between atoms: C_29  and  O_37
REMARK                            x       y       z     vdW  Elec       q    Type
REMARK                         _______ _______ _______ _____ _____    ______ ____
ROOT
ATOM      1  C   UNL     1      -6.344   4.282   7.255  0.00  0.00    +0.251 C 
ATOM      2  O   UNL     1      -5.547   4.426   8.158  0.00  0.00    -0.272 OA
ATOM      3  N   UNL     1      -7.649   4.552   7.458  0.00  0.00    -0.304 N 
ATOM      4  H   UNL     1      -8.286   4.437   6.736  0.00  0.00    +0.149 HD
ENDROOT
BRANCH   1   5
ATOM      5  C   UNL     1      -5.875   3.801   5.906  0.00  0.00    +0.324 C 
BRANCH   5   6
ATOM      6  O   UNL     1      -4.463   3.585   5.941  0.00  0.00    -0.482 OA
BRANCH   6  17
ATOM      7  C   UNL     1      -2.864   1.544  -0.023  0.00  0.00    +0.045 C 
ATOM      8  C   UNL     1      -2.059   1.786   1.228  0.00  0.00    -0.030 A 
ATOM      9  C   UNL     1      -0.718   1.572   1.248  0.00  0.00    +0.037 A 
ATOM     10  C   UNL     1       0.013   1.811   2.429  0.00  0.00    +0.340 A 
ATOM     11  O   UNL     1       1.216   1.619   2.432  0.00  0.00    -0.245 OA
ATOM     12  O   UNL     1      -0.582   2.244   3.552  0.00  0.00    -0.422 OA
ATOM     13  C   UNL     1      -1.912   2.472   3.601  0.00  0.00    +0.146 A 
ATOM     14  C   UNL     1      -2.703   2.254   2.458  0.00  0.00    +0.021 A 
ATOM     15  C   UNL     1      -4.082   2.490   2.505  0.00  0.00    +0.015 A 
ATOM     16  C   UNL     1      -4.655   2.930   3.662  0.00  0.00    +0.047 A 
ATOM     17  C   UNL     1      -3.877   3.147   4.798  0.00  0.00    +0.128 A 
ATOM     18  C   UNL     1      -2.511   2.920   4.769  0.00  0.00    +0.034 A 
ATOM     19  C   UNL     1      -1.679   3.157   6.002  0.00  0.00    +0.051 C 
ATOM     20  C   UNL     1      -0.013   1.086   0.008  0.00  0.00    +0.051 C 
ENDBRANCH   6  17
ENDBRANCH   5   6
ENDBRANCH   1   5
BRANCH   3  21
ATOM     21  C   UNL     1      -8.104   5.020   8.769  0.00  0.00    +0.200 C 
BRANCH  21  22
ATOM     22  C   UNL     1      -9.593   5.247   8.732  0.00  0.00    +0.231 C 
ATOM     23  O   UNL     1     -10.213   5.040   7.710  0.00  0.00    -0.274 OA
ATOM     24  N   UNL     1     -10.237   5.682   9.833  0.00  0.00    -0.305 N 
ATOM     25  H   UNL     1      -9.741   5.848  10.650  0.00  0.00    +0.149 HD
BRANCH  24  26
ATOM     26  C   UNL     1     -11.684   5.903   9.797  0.00  0.00    +0.200 C 
BRANCH  26  27
ATOM     27  C   UNL     1     -12.153   6.384  11.146  0.00  0.00    +0.233 C 
ATOM     28  O   UNL     1     -11.357   6.528  12.049  0.00  0.00    -0.274 OA
ATOM     29  N   UNL     1     -13.458   6.655  11.349  0.00  0.00    -0.300 N 
ATOM     30  C   UNL     1     -14.435   6.491  10.264  0.00  0.00    +0.110 C 
ATOM     31  C   UNL     1     -15.568   5.581  10.760  0.00  0.00    +0.054 C 
ATOM     32  C   UNL     1     -16.157   6.163  12.048  0.00  0.00    +0.072 C 
ATOM     33  C   UNL     1     -17.301   5.268  12.529  0.00  0.00    +0.035 C 
ATOM     34  C   UNL     1     -16.768   3.856  12.783  0.00  0.00    +0.003 C 
ATOM     35  C   UNL     1     -15.677   3.906  13.853  0.00  0.00    +0.001 C 
ATOM     36  C   UNL     1     -14.535   4.807  13.378  0.00  0.00    +0.008 C 
ATOM     37  C   UNL     1     -15.072   6.217  13.127  0.00  0.00    +0.038 C 
ATOM     38  C   UNL     1     -13.931   7.124  12.658  0.00  0.00    +0.114 C 
BRANCH  32  39
ATOM     39  O   UNL     1     -16.652   7.481  11.802  0.00  0.00    -0.388 OA
ATOM     40  H   UNL     1     -17.344   7.521  11.127  0.00  0.00    +0.210 HD
ENDBRANCH  32  39
ENDBRANCH  26  27
ENDBRANCH  24  26
ENDBRANCH  21  22
ENDBRANCH   3  21
TORSDOF 8
