REMARK  Name = ZINC45874291
REMARK  11 active torsions:
REMARK  status: ('A' for Active; 'I' for Inactive)
REMARK    1  A    between atoms: C_1  and  C_2
REMARK    2  A    between atoms: C_2  and  C_3
REMARK    3  A    between atoms: C_3  and  C_5
REMARK    4  A    between atoms: C_3  and  C_6
REMARK    5  A    between atoms: C_11  and  N_12
REMARK    6  A    between atoms: C_13  and  C_15
REMARK    7  A    between atoms: C_15  and  C_17
REMARK    8  A    between atoms: C_15  and  O_18
REMARK    9  A    between atoms: O_18  and  C_19
REMARK   10  A    between atoms: C_19  and  C_21
REMARK   11  A    between atoms: C_25  and  N_27
REMARK                            x       y       z     vdW  Elec       q    Type
REMARK                         _______ _______ _______ _____ _____    ______ ____
ROOT
ATOM      1  C   UNL     1      -4.295  -1.475  -3.963  0.00  0.00    +0.259 C 
ATOM      2  C   UNL     1      -3.241  -0.806  -4.848  0.00  0.00    +0.062 C 
ENDROOT
BRANCH   1   4
ATOM      3  N   UNL     1      -2.825  -1.792  -1.999  0.00  0.00    -0.282 N 
ATOM      4  C   UNL     1      -3.613  -2.347  -2.941  0.00  0.00    +0.258 C 
ATOM      5  O   UNL     1      -3.772  -3.549  -2.967  0.00  0.00    -0.271 OA
ATOM      6  H   UNL     1      -2.743  -0.827  -1.943  0.00  0.00    +0.155 HD
BRANCH   3  12
ATOM      7  C   UNL     1      -0.955  -2.149  -0.514  0.00  0.00    -0.023 A 
ATOM      8  C   UNL     1      -0.270  -2.954   0.376  0.00  0.00    +0.006 A 
ATOM      9  C   UNL     1      -0.747  -4.216   0.676  0.00  0.00    +0.000 A 
ATOM     10  C   UNL     1      -1.911  -4.677   0.089  0.00  0.00    +0.002 A 
ATOM     11  C   UNL     1      -2.601  -3.877  -0.801  0.00  0.00    +0.023 A 
ATOM     12  C   UNL     1      -2.126  -2.607  -1.102  0.00  0.00    +0.037 A 
BRANCH   7  13
ATOM     13  C   UNL     1      -0.434  -0.774  -0.842  0.00  0.00    +0.017 C 
ATOM     14  C   UNL     1      -0.477   0.101   0.413  0.00  0.00    +0.012 C 
BRANCH  13  16
ATOM     15  C   UNL     1       1.496   0.499  -1.789  0.00  0.00    +0.004 C 
ATOM     16  C   UNL     1       1.009  -0.880  -1.339  0.00  0.00    +0.004 C 
ENDBRANCH  13  16
ENDBRANCH   7  13
ENDBRANCH   3  12
ENDBRANCH   1   4
BRANCH   1  17
ATOM     17  O   UNL     1      -5.158  -2.275  -4.773  0.00  0.00    -0.449 OA
BRANCH  17  18
ATOM     18  C   UNL     1      -6.255  -1.676  -5.275  0.00  0.00    +0.340 C 
ATOM     19  O   UNL     1      -6.474  -0.506  -5.032  0.00  0.00    -0.245 OA
BRANCH  18  20
ATOM     20  C   UNL     1      -7.193  -2.442  -6.121  0.00  0.00    +0.061 A 
ATOM     21  C   UNL     1      -6.947  -3.789  -6.397  0.00  0.00    +0.016 A 
ATOM     22  C   UNL     1      -7.825  -4.503  -7.187  0.00  0.00    +0.022 A 
ATOM     23  C   UNL     1      -8.950  -3.889  -7.708  0.00  0.00    +0.062 A 
ATOM     24  C   UNL     1      -9.204  -2.547  -7.439  0.00  0.00    +0.044 A 
ATOM     25  C   UNL     1      -8.331  -1.824  -6.642  0.00  0.00    +0.039 A 
ATOM     26 CL   UNL     1     -10.048  -4.794  -8.701  0.00  0.00    -0.082 Cl
BRANCH  24  27
ATOM     27  N   UNL     1     -10.341  -1.931  -7.968  0.00  0.00    -0.357 N 
ATOM     28  H   UNL     1     -10.954  -2.439  -8.523  0.00  0.00    +0.142 HD
ATOM     29  H   UNL     1     -10.518  -0.996  -7.780  0.00  0.00    +0.142 HD
ENDBRANCH  24  27
ENDBRANCH  18  20
ENDBRANCH  17  18
ENDBRANCH   1  17
TORSDOF 8
