REMARK  Name = ZINC20786116
REMARK  6 active torsions:
REMARK  status: ('A' for Active; 'I' for Inactive)
REMARK    1  A    between atoms: C_4  and  C_7
REMARK    2  A    between atoms: C_7  and  N_8
REMARK    3  A    between atoms: N_8  and  C_9
REMARK    4  A    between atoms: C_9  and  N_11
REMARK    5  A    between atoms: N_11  and  N_12
REMARK    6  A    between atoms: C_21  and  O_22
REMARK                            x       y       z     vdW  Elec       q    Type
REMARK                         _______ _______ _______ _____ _____    ______ ____
ROOT
ATOM      1  N   UNL     1      -2.352  -0.878   0.021  0.00  0.00    -0.175 NA
ATOM      2  C   UNL     1      -1.050  -1.048   0.025  0.00  0.00    +0.152 C 
ATOM      3  C   UNL     1      -0.001  -0.031   0.265  0.00  0.00    +0.035 A 
ATOM      4  C   UNL     1      -0.022   1.328   0.543  0.00  0.00    +0.032 A 
ATOM      5  C   UNL     1       1.167   2.011   0.719  0.00  0.00    +0.043 A 
ATOM      6  C   UNL     1       2.377   1.341   0.619  0.00  0.00    +0.042 A 
ATOM      7  C   UNL     1       2.416  -0.009   0.344  0.00  0.00    +0.068 A 
ATOM      8  C   UNL     1       1.224  -0.721   0.162  0.00  0.00    +0.095 A 
ATOM      9  N   UNL     1       0.979  -2.029  -0.113  0.00  0.00    -0.210 NA
ATOM     10  C   UNL     1      -0.297  -2.296  -0.206  0.00  0.00    +0.241 C 
ATOM     11 CL   UNL     1       3.942  -0.827   0.223  0.00  0.00    -0.081 Cl
ATOM     12 CL   UNL     1       1.144   3.712   1.066  0.00  0.00    -0.083 Cl
ENDROOT
BRANCH   1  13
ATOM     13  N   UNL     1      -2.849   0.307   0.130  0.00  0.00    -0.218 N 
ATOM     14  H   UNL     1      -2.184   1.184   0.128  0.00  0.00    +0.176 HD
BRANCH  13  15
ATOM     15  C   UNL     1      -4.181   0.472   0.245  0.00  0.00    +0.150 C 
ATOM     16  S   UNL     1      -4.840   2.045   0.389  0.00  0.00    -0.017 S 
BRANCH  15  17
ATOM     17  N   UNL     1      -4.995  -0.602   0.247  0.00  0.00    -0.321 N 
ATOM     18  H   UNL     1      -4.572  -1.613   0.155  0.00  0.00    +0.148 HD
BRANCH  17  19
ATOM     19  C   UNL     1      -6.444  -0.423   0.373  0.00  0.00    +0.138 C 
BRANCH  19  23
ATOM     20  C   UNL     1      -8.362  -4.239   0.303  0.00  0.00    +0.000 A 
ATOM     21  C   UNL     1      -7.957  -3.691   1.506  0.00  0.00    +0.000 A 
ATOM     22  C   UNL     1      -7.336  -2.457   1.528  0.00  0.00    +0.005 A 
ATOM     23  C   UNL     1      -7.120  -1.770   0.348  0.00  0.00    -0.030 A 
ATOM     24  C   UNL     1      -7.530  -2.315  -0.854  0.00  0.00    +0.005 A 
ATOM     25  C   UNL     1      -8.147  -3.552  -0.877  0.00  0.00    +0.000 A 
ENDBRANCH  19  23
ENDBRANCH  17  19
ENDBRANCH  15  17
ENDBRANCH  13  15
ENDBRANCH   1  13
BRANCH  10  26
ATOM     26  O   UNL     1      -0.837  -3.510  -0.470  0.00  0.00    -0.491 OA
ATOM     27  H   UNL     1      -0.183  -4.380  -0.628  0.00  0.00    +0.294 HD
ENDBRANCH  10  26
TORSDOF 6
