REMARK  Name = ZINC40840193
REMARK  10 active torsions:
REMARK  status: ('A' for Active; 'I' for Inactive)
REMARK    1  A    between atoms: C_1  and  C_2
REMARK    2  A    between atoms: C_2  and  O_3
REMARK    3  A    between atoms: O_3  and  C_4
REMARK    4  A    between atoms: C_4  and  C_6
REMARK    5  A    between atoms: C_7  and  C_28
REMARK    6  A    between atoms: C_8  and  C_25
REMARK    7  A    between atoms: C_10  and  N_11
REMARK    8  A    between atoms: N_14  and  N_15
REMARK    9  A    between atoms: C_16  and  C_17
REMARK   10  A    between atoms: C_25  and  C_27
REMARK                            x       y       z     vdW  Elec       q    Type
REMARK                         _______ _______ _______ _____ _____    ______ ____
ROOT
ATOM      1  N   UNL     1      -0.608  -2.455  -3.926  0.00  0.00    -0.262 N 
ATOM      2  C   UNL     1      -1.128  -2.780  -5.126  0.00  0.00    +0.324 C 
ATOM      3  O   UNL     1      -0.408  -3.224  -6.000  0.00  0.00    -0.251 OA
ATOM      4  N   UNL     1      -2.445  -2.614  -5.357  0.00  0.00    -0.191 N 
ATOM      5  H   UNL     1      -1.181  -2.101  -3.229  0.00  0.00    +0.157 HD
ATOM      6  H   UNL     1      -2.820  -2.849  -6.221  0.00  0.00    +0.179 HD
ENDROOT
BRANCH   1  11
ATOM      7  C   UNL     1       1.450  -2.345  -2.519  0.00  0.00    +0.091 A 
ATOM      8  C   UNL     1       2.811  -2.605  -2.512  0.00  0.00    -0.017 A 
ATOM      9  C   UNL     1       3.337  -3.118  -3.685  0.00  0.00    +0.060 A 
ATOM     10  S   UNL     1       1.908  -3.213  -4.744  0.00  0.00    -0.069 S 
ATOM     11  C   UNL     1       0.741  -2.625  -3.690  0.00  0.00    +0.088 A 
ATOM     12  C   UNL     1       3.667  -2.345  -1.299  0.00  0.00    +0.046 C 
BRANCH   9  13
ATOM     13  C   UNL     1       4.671  -3.475  -3.971  0.00  0.00    +0.167 C 
ATOM     14  O   UNL     1       5.530  -3.343  -3.122  0.00  0.00    -0.292 OA
ATOM     15  C   UNL     1       5.030  -4.021  -5.329  0.00  0.00    +0.092 C 
ENDBRANCH   9  13
BRANCH   7  16
ATOM     16  C   UNL     1       0.776  -1.800  -1.335  0.00  0.00    +0.342 C 
ATOM     17  O   UNL     1       0.312  -2.551  -0.499  0.00  0.00    -0.245 OA
BRANCH  16  18
ATOM     18  O   UNL     1       0.671  -0.465  -1.174  0.00  0.00    -0.461 OA
BRANCH  18  20
ATOM     19  C   UNL     1      -0.019   1.526   0.010  0.00  0.00    +0.048 C 
ATOM     20  C   UNL     1       0.002  -0.004   0.002  0.00  0.00    +0.229 C 
ENDBRANCH  18  20
ENDBRANCH  16  18
ENDBRANCH   7  16
ENDBRANCH   1  11
BRANCH   4  21
ATOM     21  N   UNL     1      -3.274  -2.103  -4.350  0.00  0.00    -0.186 NA
ATOM     22  C   UNL     1      -4.542  -1.943  -4.572  0.00  0.00    +0.139 C 
BRANCH  22  23
ATOM     23  C   UNL     1      -5.414  -1.405  -3.512  0.00  0.00    +0.013 A 
ATOM     24  C   UNL     1      -6.781  -1.237  -3.746  0.00  0.00    +0.012 A 
ATOM     25  C   UNL     1      -7.591  -0.734  -2.750  0.00  0.00    +0.021 A 
ATOM     26  C   UNL     1      -7.053  -0.394  -1.520  0.00  0.00    +0.042 A 
ATOM     27  C   UNL     1      -5.700  -0.558  -1.280  0.00  0.00    +0.040 A 
ATOM     28  C   UNL     1      -4.878  -1.066  -2.266  0.00  0.00    +0.051 A 
ATOM     29 CL   UNL     1      -3.182  -1.278  -1.962  0.00  0.00    -0.083 Cl
ATOM     30 CL   UNL     1      -8.081   0.240  -0.272  0.00  0.00    -0.083 Cl
ENDBRANCH  22  23
ENDBRANCH   4  21
TORSDOF 7
