REMARK  Name = ZINC21100741
REMARK  7 active torsions:
REMARK  status: ('A' for Active; 'I' for Inactive)
REMARK    1  A    between atoms: C_1  and  C_2
REMARK    2  A    between atoms: C_5  and  C_7
REMARK    3  A    between atoms: C_9  and  C_17
REMARK    4  A    between atoms: C_17  and  O_19
REMARK    5  A    between atoms: O_19  and  C_20
REMARK    6  A    between atoms: C_20  and  C_21
REMARK    7  A    between atoms: C_34  and  C_36
REMARK                            x       y       z     vdW  Elec       q    Type
REMARK                         _______ _______ _______ _____ _____    ______ ____
ROOT
ATOM      1  C   UNL     1      -0.210   1.218  -2.368  0.00  0.00    +0.340 C 
ATOM      2  O   UNL     1       0.783   0.522  -2.429  0.00  0.00    -0.245 OA
ENDROOT
BRANCH   1   5
ATOM      3  C   UNL     1      -2.662   2.785  -4.779  0.00  0.00    +0.107 A 
ATOM      4  C   UNL     1      -2.070   2.369  -3.573  0.00  0.00    +0.047 A 
ATOM      5  C   UNL     1      -0.872   1.672  -3.608  0.00  0.00    +0.070 A 
ATOM      6  C   UNL     1      -0.292   1.397  -4.925  0.00  0.00    +0.014 A 
ATOM      7  C   UNL     1       0.910   0.695  -5.061  0.00  0.00    +0.011 A 
ATOM      8  C   UNL     1       1.416   0.460  -6.305  0.00  0.00    +0.001 A 
ATOM      9  C   UNL     1       0.750   0.910  -7.443  0.00  0.00    +0.002 A 
ATOM     10  C   UNL     1      -0.422   1.595  -7.346  0.00  0.00    +0.028 A 
ATOM     11  C   UNL     1      -0.974   1.857  -6.079  0.00  0.00    +0.073 A 
ATOM     12  N   UNL     1      -2.122   2.526  -5.954  0.00  0.00    -0.244 NA
BRANCH   3  17
ATOM     13  C   UNL     1      -6.738   5.094  -2.985  0.00  0.00    +0.086 C 
ATOM     14  C   UNL     1      -5.719   4.542  -3.948  0.00  0.00    +0.103 A 
ATOM     15  C   UNL     1      -5.774   4.642  -5.292  0.00  0.00    +0.045 A 
ATOM     16  C   UNL     1      -4.628   4.000  -5.800  0.00  0.00    +0.052 A 
ATOM     17  C   UNL     1      -3.934   3.531  -4.728  0.00  0.00    +0.153 A 
ATOM     18  O   UNL     1      -4.607   3.871  -3.611  0.00  0.00    -0.458 OA
ENDBRANCH   3  17
ENDBRANCH   1   5
BRANCH   1  19
ATOM     19  O   UNL     1      -0.708   1.578  -1.168  0.00  0.00    -0.452 OA
BRANCH  19  20
ATOM     20  C   UNL     1      -0.006   1.096   0.008  0.00  0.00    +0.328 C 
BRANCH  20  21
ATOM     21  C   UNL     1      -0.702   1.595   1.248  0.00  0.00    +0.258 C 
ATOM     22  O   UNL     1      -1.692   2.288   1.150  0.00  0.00    -0.271 OA
ATOM     23  N   UNL     1      -0.225   1.271   2.466  0.00  0.00    -0.264 N 
ATOM     24  C   UNL     1       0.919   0.470   2.594  0.00  0.00    +0.058 A 
ATOM     25  C   UNL     1       0.871  -0.883   2.300  0.00  0.00    +0.025 A 
ATOM     26  C   UNL     1       2.004  -1.661   2.454  0.00  0.00    +0.002 A 
ATOM     27  C   UNL     1       3.183  -1.095   2.903  0.00  0.00    +0.002 A 
ATOM     28  C   UNL     1       3.241   0.257   3.190  0.00  0.00    +0.025 A 
ATOM     29  C   UNL     1       2.114   1.045   3.027  0.00  0.00    +0.055 A 
ATOM     30  N   UNL     1       2.164   2.425   3.259  0.00  0.00    -0.284 N 
ATOM     31  C   UNL     1       1.217   3.028   4.010  0.00  0.00    +0.219 C 
ATOM     32  O   UNL     1       1.224   4.234   4.134  0.00  0.00    -0.275 OA
ATOM     33  C   UNL     1       0.153   2.212   4.695  0.00  0.00    +0.118 C 
ATOM     34  C   UNL     1      -0.887   1.753   3.679  0.00  0.00    +0.087 C 
ATOM     35  C   UNL     1      -1.721   0.623   4.286  0.00  0.00    +0.029 C 
ATOM     36  H   UNL     1       2.978   3.026   2.827  0.00  0.00    +0.155 HD
ENDBRANCH  20  21
ENDBRANCH  19  20
ENDBRANCH   1  19
TORSDOF 5
