REMARK  Name = ZINC12135171
REMARK  6 active torsions:
REMARK  status: ('A' for Active; 'I' for Inactive)
REMARK    1  A    between atoms: C_4  and  C_7
REMARK    2  A    between atoms: C_7  and  C_8
REMARK    3  A    between atoms: C_7  and  C_14
REMARK    4  A    between atoms: C_14  and  C_16
REMARK    5  A    between atoms: C_14  and  O_32
REMARK    6  A    between atoms: C_26  and  N_63
REMARK                            x       y       z     vdW  Elec       q    Type
REMARK                         _______ _______ _______ _____ _____    ______ ____
ROOT
ATOM      1  C   UNL     1       0.287  -0.990   0.281  0.00  0.00    -0.018 A 
ATOM      2  C   UNL     1      -0.829  -0.279   0.682  0.00  0.00    +0.010 A 
ATOM      3  C   UNL     1      -0.910   1.080   0.445  0.00  0.00    +0.046 A 
ATOM      4  C   UNL     1       0.137   1.728  -0.195  0.00  0.00    +0.122 A 
ATOM      5  C   UNL     1       1.242   1.011  -0.610  0.00  0.00    -0.022 A 
ATOM      6  C   UNL     1       1.325  -0.345  -0.369  0.00  0.00    +0.011 A 
ATOM      7  C   UNL     1       2.360   1.723  -1.346  0.00  0.00    -0.039 C 
ATOM      8  C   UNL     1       2.362   3.920  -0.295  0.00  0.00    -0.036 C 
ATOM      9  C   UNL     1       1.016   3.840   0.392  0.00  0.00    +0.210 C 
ATOM     10  O   UNL     1       0.090   3.075  -0.390  0.00  0.00    -0.494 OA
ATOM     11  N   UNL     1       3.046   2.613  -0.378  0.00  0.00    +0.387 N 
ATOM     12  H   UNL     1       3.025   2.171   0.549  0.00  0.00    -0.081 HD
ENDROOT
BRANCH  11  13
ATOM     13  C   UNL     1       4.448   2.807  -0.780  0.00  0.00    -0.066 C 
ATOM     14  C   UNL     1       5.180   3.511   0.359  0.00  0.00    -0.005 C 
ATOM     15  C   UNL     1       6.692   3.446   0.126  0.00  0.00    +0.067 C 
ATOM     16  S   UNL     1       7.084   4.334  -1.411  0.00  0.00    -0.161 S 
ATOM     17  C   UNL     1       5.960   3.574  -2.622  0.00  0.00    +0.067 C 
ATOM     18  C   UNL     1       4.534   3.624  -2.066  0.00  0.00    -0.005 C 
ENDBRANCH  11  13
BRANCH   1  19
ATOM     19  C   UNL     1       0.374  -2.470   0.553  0.00  0.00    +0.156 C 
BRANCH  19  20
ATOM     20  O   UNL     1      -0.903  -3.071   0.329  0.00  0.00    -0.386 OA
ATOM     21  H   UNL     1      -1.607  -2.719   0.889  0.00  0.00    +0.210 HD
ENDBRANCH  19  20
BRANCH  19  22
ATOM     22  C   UNL     1       0.797  -2.698   2.005  0.00  0.00    +0.082 C 
BRANCH  22  26
ATOM     23  C   UNL     1       1.043  -6.893   2.775  0.00  0.00    +0.000 A 
ATOM     24  C   UNL     1       1.711  -6.348   1.695  0.00  0.00    +0.000 A 
ATOM     25  C   UNL     1       1.631  -4.991   1.445  0.00  0.00    +0.004 A 
ATOM     26  C   UNL     1       0.884  -4.178   2.277  0.00  0.00    -0.037 A 
ATOM     27  C   UNL     1       0.220  -4.722   3.361  0.00  0.00    +0.004 A 
ATOM     28  C   UNL     1       0.296  -6.080   3.607  0.00  0.00    +0.000 A 
ENDBRANCH  22  26
BRANCH  22  29
ATOM     29  C   UNL     1       2.143  -2.064   2.242  0.00  0.00    -0.037 A 
ATOM     30  C   UNL     1       3.204  -2.364   1.408  0.00  0.00    +0.004 A 
ATOM     31  C   UNL     1       4.439  -1.779   1.622  0.00  0.00    +0.000 A 
ATOM     32  C   UNL     1       4.614  -0.902   2.676  0.00  0.00    +0.000 A 
ATOM     33  C   UNL     1       3.554  -0.607   3.514  0.00  0.00    +0.000 A 
ATOM     34  C   UNL     1       2.319  -1.188   3.296  0.00  0.00    +0.004 A 
ENDBRANCH  22  29
ENDBRANCH  19  22
ENDBRANCH   1  19
TORSDOF 6
