REMARK  Name = ZINC21036850
REMARK  8 active torsions:
REMARK  status: ('A' for Active; 'I' for Inactive)
REMARK    1  A    between atoms: C_4  and  C_7
REMARK    2  A    between atoms: N_8  and  N_9
REMARK    3  A    between atoms: C_12  and  S_15
REMARK    4  A    between atoms: S_15  and  C_16
REMARK    5  A    between atoms: C_16  and  C_17
REMARK    6  A    between atoms: C_17  and  C_18
REMARK    7  A    between atoms: N_20  and  C_21
REMARK    8  A    between atoms: N_20  and  C_27
REMARK                            x       y       z     vdW  Elec       q    Type
REMARK                         _______ _______ _______ _____ _____    ______ ____
ROOT
ATOM      1  S   UNL     1      -1.550  -1.181  -1.108  0.00  0.00    -0.084 S 
ENDROOT
BRANCH   1   5
ATOM      2  N   UNL     1       1.427   2.953  -2.189  0.00  0.00    -0.205 N 
ATOM      3  C   UNL     1       1.054   1.653  -1.876  0.00  0.00    +0.232 A 
ATOM      4  N   UNL     1      -0.226   1.203  -1.711  0.00  0.00    -0.186 NA
ATOM      5  C   UNL     1      -0.170  -0.129  -1.413  0.00  0.00    +0.210 A 
ATOM      6  N   UNL     1       1.092  -0.487  -1.394  0.00  0.00    -0.144 NA
ATOM      7  N   UNL     1       1.867   0.642  -1.688  0.00  0.00    -0.245 N 
ATOM      8  H   UNL     1       0.659   3.727  -2.327  0.00  0.00    +0.177 HD
ATOM      9  H   UNL     1       2.954   0.787  -1.774  0.00  0.00    +0.192 HD
BRANCH   2  11
ATOM     10  C   UNL     1       3.132   4.493  -2.622  0.00  0.00    +0.138 C 
ATOM     11  N   UNL     1       2.783   3.277  -2.329  0.00  0.00    -0.188 NA
BRANCH  10  15
ATOM     12  C   UNL     1       7.239   5.477  -3.046  0.00  0.00    +0.000 A 
ATOM     13  C   UNL     1       6.275   6.455  -3.220  0.00  0.00    +0.001 A 
ATOM     14  C   UNL     1       4.938   6.142  -3.084  0.00  0.00    +0.009 A 
ATOM     15  C   UNL     1       4.559   4.835  -2.769  0.00  0.00    -0.005 A 
ATOM     16  C   UNL     1       5.538   3.855  -2.589  0.00  0.00    +0.009 A 
ATOM     17  C   UNL     1       6.870   4.181  -2.735  0.00  0.00    +0.001 A 
ENDBRANCH  10  15
ENDBRANCH   2  11
ENDBRANCH   1   5
BRANCH   1  18
ATOM     18  C   UNL     1      -0.803  -2.801  -0.778  0.00  0.00    +0.087 C 
BRANCH  18  19
ATOM     19  C   UNL     1      -1.905  -3.823  -0.494  0.00  0.00    +0.108 C 
BRANCH  19  20
ATOM     20  C   UNL     1      -1.284  -5.169  -0.220  0.00  0.00    +0.225 C 
ATOM     21  O   UNL     1      -0.080  -5.304  -0.277  0.00  0.00    -0.275 OA
ATOM     22  N   UNL     1      -2.067  -6.222   0.089  0.00  0.00    -0.240 N 
BRANCH  22  23
ATOM     23  C   UNL     1      -3.460  -6.094   0.049  0.00  0.00    +0.041 A 
ATOM     24  C   UNL     1      -4.112  -5.290   0.975  0.00  0.00    +0.024 A 
ATOM     25  C   UNL     1      -5.487  -5.162   0.929  0.00  0.00    +0.002 A 
ATOM     26  C   UNL     1      -6.215  -5.842  -0.029  0.00  0.00    +0.000 A 
ATOM     27  C   UNL     1      -5.569  -6.647  -0.949  0.00  0.00    +0.002 A 
ATOM     28  C   UNL     1      -4.194  -6.775  -0.913  0.00  0.00    +0.024 A 
ENDBRANCH  22  23
BRANCH  22  29
ATOM     29  C   UNL     1      -1.486  -7.444   0.450  0.00  0.00    +0.041 A 
ATOM     30  C   UNL     1      -0.787  -8.187  -0.493  0.00  0.00    +0.024 A 
ATOM     31  C   UNL     1      -0.211  -9.390  -0.133  0.00  0.00    +0.002 A 
ATOM     32  C   UNL     1      -0.339  -9.859   1.162  0.00  0.00    +0.000 A 
ATOM     33  C   UNL     1      -1.038  -9.123   2.101  0.00  0.00    +0.002 A 
ATOM     34  C   UNL     1      -1.612  -7.917   1.749  0.00  0.00    +0.024 A 
ENDBRANCH  22  29
ENDBRANCH  19  20
ENDBRANCH  18  19
ENDBRANCH   1  18
TORSDOF 8
