REMARK  Name = ZINC13027115
REMARK  8 active torsions:
REMARK  status: ('A' for Active; 'I' for Inactive)
REMARK    1  A    between atoms: C_4  and  C_7
REMARK    2  A    between atoms: C_7  and  N_8
REMARK    3  A    between atoms: N_8  and  C_9
REMARK    4  A    between atoms: C_9  and  C_11
REMARK    5  A    between atoms: C_9  and  C_18
REMARK    6  A    between atoms: C_14  and  O_17
REMARK    7  A    between atoms: N_20  and  C_21
REMARK    8  A    between atoms: C_27  and  C_29
REMARK                            x       y       z     vdW  Elec       q    Type
REMARK                         _______ _______ _______ _____ _____    ______ ____
ROOT
ATOM      1  C   UNL     1      -2.541   0.918   0.200  0.00  0.00    +0.193 C 
ENDROOT
BRANCH   1   2
ATOM      2  C   UNL     1      -1.337   1.784  -0.067  0.00  0.00    -0.018 A 
ATOM      3  C   UNL     1      -0.378   1.954   0.914  0.00  0.00    +0.009 A 
ATOM      4  C   UNL     1       0.730   2.743   0.669  0.00  0.00    +0.046 A 
ATOM      5  C   UNL     1       0.876   3.369  -0.561  0.00  0.00    +0.117 A 
ATOM      6  C   UNL     1      -0.091   3.201  -1.541  0.00  0.00    +0.046 A 
ATOM      7  C   UNL     1      -1.197   2.412  -1.291  0.00  0.00    +0.009 A 
BRANCH   5   8
ATOM      8  O   UNL     1       1.965   4.144  -0.804  0.00  0.00    -0.507 OA
ATOM      9  H   UNL     1       2.714   3.663  -1.182  0.00  0.00    +0.292 HD
ENDBRANCH   5   8
ENDBRANCH   1   2
BRANCH   1  10
ATOM     10  C   UNL     1      -3.187   0.538  -1.107  0.00  0.00    +0.238 C 
ATOM     11  O   UNL     1      -4.337   0.854  -1.330  0.00  0.00    -0.273 OA
ATOM     12  N   UNL     1      -2.487  -0.153  -2.029  0.00  0.00    -0.311 N 
ATOM     13  H   UNL     1      -1.568  -0.406  -1.850  0.00  0.00    +0.149 HD
BRANCH  12  14
ATOM     14  C   UNL     1      -3.115  -0.522  -3.300  0.00  0.00    +0.073 C 
ATOM     15  C   UNL     1      -3.892  -1.829  -3.124  0.00  0.00    +0.022 C 
ATOM     16  C   UNL     1      -4.548  -2.215  -4.451  0.00  0.00    +0.002 C 
ATOM     17  C   UNL     1      -3.467  -2.404  -5.518  0.00  0.00    +0.000 C 
ATOM     18  C   UNL     1      -2.690  -1.097  -5.694  0.00  0.00    +0.002 C 
ATOM     19  C   UNL     1      -2.034  -0.711  -4.366  0.00  0.00    +0.022 C 
ENDBRANCH  12  14
ENDBRANCH   1  10
BRANCH   1  20
ATOM     20  N   UNL     1      -3.502   1.658   1.022  0.00  0.00    -0.276 N 
ATOM     21  C   UNL     1      -3.934   2.872   0.626  0.00  0.00    +0.268 C 
ATOM     22  O   UNL     1      -3.457   3.394  -0.362  0.00  0.00    -0.268 OA
BRANCH  21  23
ATOM     23  C   UNL     1      -4.987   3.567   1.393  0.00  0.00    +0.154 A 
ATOM     24  C   UNL     1      -5.509   4.785   0.960  0.00  0.00    +0.098 A 
ATOM     25  C   UNL     1      -6.472   5.279   1.784  0.00  0.00    +0.117 A 
ATOM     26  S   UNL     1      -6.550   4.076   3.023  0.00  0.00    +0.026 S 
ATOM     27  N   UNL     1      -5.462   3.061   2.510  0.00  0.00    -0.203 NA
ATOM     28 CL   UNL     1      -7.385   6.748   1.632  0.00  0.00    -0.073 Cl
ATOM     29 CL   UNL     1      -4.987   5.588  -0.488  0.00  0.00    -0.079 Cl
ENDBRANCH  21  23
BRANCH  20  30
ATOM     30  C   UNL     1      -3.993   1.079   2.275  0.00  0.00    +0.144 C 
BRANCH  30  34
ATOM     31  C   UNL     1      -1.452   2.281   5.492  0.00  0.00    +0.000 A 
ATOM     32  C   UNL     1      -2.615   2.981   5.231  0.00  0.00    +0.000 A 
ATOM     33  C   UNL     1      -3.437   2.592   4.190  0.00  0.00    +0.005 A 
ATOM     34  C   UNL     1      -3.096   1.503   3.410  0.00  0.00    -0.030 A 
ATOM     35  C   UNL     1      -1.936   0.799   3.675  0.00  0.00    +0.005 A 
ATOM     36  C   UNL     1      -1.111   1.192   4.712  0.00  0.00    +0.000 A 
ENDBRANCH  30  34
ENDBRANCH  20  30
ENDBRANCH   1  20
TORSDOF 8
