REMARK  Name = ZINC06178582
REMARK  6 active torsions:
REMARK  status: ('A' for Active; 'I' for Inactive)
REMARK    1  A    between atoms: C_1  and  C_2
REMARK    2  A    between atoms: C_2  and  C_4
REMARK    3  A    between atoms: C_2  and  S_18
REMARK    4  A    between atoms: C_9  and  C_12
REMARK    5  A    between atoms: S_18  and  C_19
REMARK    6  A    between atoms: C_21  and  C_25
REMARK                            x       y       z     vdW  Elec       q    Type
REMARK                         _______ _______ _______ _____ _____    ______ ____
ROOT
ATOM      1  C   UNL     1      -0.019   1.526   0.010  0.00  0.00    +0.029 C 
ATOM      2  C   UNL     1       0.002  -0.004   0.002  0.00  0.00    +0.137 C 
ENDROOT
BRANCH   2   3
ATOM      3  C   UNL     1       0.707  -0.490  -1.238  0.00  0.00    +0.232 C 
ATOM      4  O   UNL     1       0.066  -0.782  -2.225  0.00  0.00    -0.274 OA
ATOM      5  N   UNL     1       2.051  -0.601  -1.250  0.00  0.00    -0.264 N 
ATOM      6  C   UNL     1       2.701  -1.049  -2.393  0.00  0.00    +0.165 A 
ATOM      7  N   UNL     1       3.991  -1.230  -2.603  0.00  0.00    -0.225 NA
ATOM      8  C   UNL     1       4.444  -1.669  -3.768  0.00  0.00    +0.080 A 
ATOM      9  C   UNL     1       3.557  -1.941  -4.772  0.00  0.00    +0.076 A 
ATOM     10  S   UNL     1       2.012  -1.541  -3.967  0.00  0.00    -0.060 S 
ATOM     11  H   UNL     1       2.563  -0.367  -0.460  0.00  0.00    +0.157 HD
BRANCH   8  12
ATOM     12  C   UNL     1       5.899  -1.864  -3.980  0.00  0.00    +0.001 A 
ATOM     13  C   UNL     1       6.371  -2.321  -5.210  0.00  0.00    +0.010 A 
ATOM     14  C   UNL     1       7.726  -2.501  -5.402  0.00  0.00    +0.001 A 
ATOM     15  C   UNL     1       8.614  -2.229  -4.377  0.00  0.00    +0.000 A 
ATOM     16  C   UNL     1       8.151  -1.776  -3.155  0.00  0.00    +0.001 A 
ATOM     17  C   UNL     1       6.799  -1.586  -2.953  0.00  0.00    +0.010 A 
ENDBRANCH   8  12
ENDBRANCH   2   3
BRANCH   2  18
ATOM     18  S   UNL     1      -1.700  -0.632   0.015  0.00  0.00    -0.074 S 
BRANCH  18  19
ATOM     19  C   UNL     1      -2.335  -0.110   1.573  0.00  0.00    +0.185 A 
ATOM     20  N   UNL     1      -1.680   0.578   2.483  0.00  0.00    -0.201 NA
ATOM     21  C   UNL     1      -2.475   0.797   3.541  0.00  0.00    +0.182 A 
ATOM     22  N   UNL     1      -3.647   0.249   3.313  0.00  0.00    -0.152 NA
ATOM     23  H   UNL     1      -4.292  -0.822   1.586  0.00  0.00    +0.191 HD
ATOM     24  N   UNL     1      -3.582  -0.341   2.040  0.00  0.00    -0.253 N 
BRANCH  21  25
ATOM     25  C   UNL     1      -2.093   1.537   4.769  0.00  0.00    +0.021 A 
ATOM     26  C   UNL     1      -0.815   2.078   4.890  0.00  0.00    +0.011 A 
ATOM     27  C   UNL     1      -0.464   2.765   6.034  0.00  0.00    +0.001 A 
ATOM     28  C   UNL     1      -1.380   2.918   7.060  0.00  0.00    +0.000 A 
ATOM     29  C   UNL     1      -2.650   2.383   6.945  0.00  0.00    +0.001 A 
ATOM     30  C   UNL     1      -3.013   1.698   5.803  0.00  0.00    +0.011 A 
ENDBRANCH  21  25
ENDBRANCH  18  19
ENDBRANCH   2  18
TORSDOF 5
