REMARK  Name = ZINC08667138
REMARK  7 active torsions:
REMARK  status: ('A' for Active; 'I' for Inactive)
REMARK    1  A    between atoms: C_4  and  S_18
REMARK    2  A    between atoms: C_5  and  N_7
REMARK    3  A    between atoms: N_7  and  S_8
REMARK    4  A    between atoms: S_8  and  C_11
REMARK    5  A    between atoms: S_18  and  C_19
REMARK    6  A    between atoms: C_19  and  C_20
REMARK    7  A    between atoms: C_26  and  C_28
REMARK                            x       y       z     vdW  Elec       q    Type
REMARK                         _______ _______ _______ _____ _____    ______ ____
ROOT
ATOM      1  C   UNL     1      -0.017   1.379   0.010  0.00  0.00    +0.002 A 
ATOM      2  C   UNL     1       1.169   2.090   0.002  0.00  0.00    +0.001 A 
ATOM      3  C   UNL     1       2.380   1.424  -0.013  0.00  0.00    +0.017 A 
ATOM      4  C   UNL     1       2.408   0.037  -0.021  0.00  0.00    +0.033 A 
ATOM      5  C   UNL     1       1.212  -0.681  -0.013  0.00  0.00    +0.088 A 
ATOM      6  C   UNL     1       0.002  -0.004   0.002  0.00  0.00    +0.028 A 
ENDROOT
BRANCH   5   7
ATOM      7  N   UNL     1       1.233  -2.081  -0.021  0.00  0.00    -0.097 NA
BRANCH   7   8
ATOM      8  S   UNL     1      -0.188  -2.931  -0.012  0.00  0.00    +0.092 S 
ATOM      9  O   UNL     1      -0.807  -2.673   1.242  0.00  0.00    -0.148 OA
ATOM     10  O   UNL     1      -0.832  -2.659  -1.249  0.00  0.00    -0.148 OA
BRANCH   8  11
ATOM     11  C   UNL     1       0.228  -4.643  -0.025  0.00  0.00    +0.110 A 
ATOM     12  C   UNL     1       0.385  -5.306  -1.228  0.00  0.00    +0.030 A 
ATOM     13  C   UNL     1       0.712  -6.649  -1.240  0.00  0.00    +0.022 A 
ATOM     14  C   UNL     1       0.882  -7.329  -0.047  0.00  0.00    +0.041 A 
ATOM     15  C   UNL     1       0.725  -6.665   1.156  0.00  0.00    +0.022 A 
ATOM     16  C   UNL     1       0.404  -5.321   1.166  0.00  0.00    +0.030 A 
ATOM     17 CL   UNL     1       1.292  -9.016  -0.061  0.00  0.00    -0.084 Cl
ENDBRANCH   8  11
ENDBRANCH   7   8
ENDBRANCH   5   7
BRANCH   4  18
ATOM     18  S   UNL     1       3.950  -0.815  -0.042  0.00  0.00    -0.114 S 
BRANCH  18  19
ATOM     19  C   UNL     1       5.186   0.513  -0.047  0.00  0.00    +0.170 C 
BRANCH  19  20
ATOM     20  C   UNL     1       6.568  -0.087  -0.065  0.00  0.00    +0.229 C 
ATOM     21  O   UNL     1       6.706  -1.292  -0.072  0.00  0.00    -0.275 OA
ATOM     22  N   UNL     1       7.651   0.716  -0.071  0.00  0.00    -0.263 N 
ATOM     23  C   UNL     1       8.927   0.162  -0.087  0.00  0.00    +0.188 A 
ATOM     24  N   UNL     1       9.282  -1.107  -0.104  0.00  0.00    -0.125 NA
ATOM     25  N   UNL     1      10.495  -1.461  -0.117  0.00  0.00    -0.136 NA
ATOM     26  C   UNL     1      11.433  -0.535  -0.115  0.00  0.00    +0.206 A 
ATOM     27  S   UNL     1      10.423   0.939  -0.099  0.00  0.00    -0.027 S 
ATOM     28  H   UNL     1       7.540   1.679  -0.065  0.00  0.00    +0.157 HD
BRANCH  26  29
ATOM     29  C   UNL     1      12.933  -0.679  -0.129  0.00  0.00    +0.443 C 
ATOM     30  F   UNL     1      13.271  -2.030  -0.261  0.00  0.00    -0.164 F 
ATOM     31  F   UNL     1      13.461   0.042  -1.205  0.00  0.00    -0.164 F 
ATOM     32  F   UNL     1      13.460  -0.182   1.068  0.00  0.00    -0.164 F 
ENDBRANCH  26  29
ENDBRANCH  19  20
ENDBRANCH  18  19
ENDBRANCH   4  18
TORSDOF 7
