REMARK  Name = ZINC02205396
REMARK  6 active torsions:
REMARK  status: ('A' for Active; 'I' for Inactive)
REMARK    1  A    between atoms: C_8  and  N_26
REMARK    2  A    between atoms: C_9  and  C_12
REMARK    3  A    between atoms: C_13  and  C_14
REMARK    4  A    between atoms: C_13  and  S_16
REMARK    5  A    between atoms: S_16  and  C_19
REMARK    6  A    between atoms: C_29  and  C_32
REMARK                            x       y       z     vdW  Elec       q    Type
REMARK                         _______ _______ _______ _____ _____    ______ ____
ROOT
ATOM      1  C   UNL     1       0.046   1.375   0.588  0.00  0.00    +0.005 A 
ATOM      2  C   UNL     1       1.205   2.091   0.256  0.00  0.00    +0.018 A 
ATOM      3  C   UNL     1       2.342   1.432  -0.061  0.00  0.00    +0.096 A 
ATOM      4  N   UNL     1       2.381   0.069  -0.063  0.00  0.00    -0.268 N 
ATOM      5  C   UNL     1       1.268  -0.657   0.256  0.00  0.00    +0.142 A 
ATOM      6  C   UNL     1       0.075   0.012   0.589  0.00  0.00    +0.047 A 
ATOM      7  N   UNL     1       1.287  -1.990   0.260  0.00  0.00    -0.214 NA
ATOM      8  C   UNL     1       2.383  -2.670  -0.046  0.00  0.00    +0.136 A 
ATOM      9  C   UNL     1       3.565  -1.972  -0.384  0.00  0.00    +0.082 A 
ATOM     10  C   UNL     1       3.533  -0.558  -0.385  0.00  0.00    +0.267 A 
ATOM     11  O   UNL     1       4.529   0.084  -0.671  0.00  0.00    -0.267 OA
ENDROOT
BRANCH   8  12
ATOM     12  N   UNL     1       2.371  -4.047  -0.032  0.00  0.00    -0.314 N 
ATOM     13  C   UNL     1       3.510  -4.801   0.509  0.00  0.00    +0.107 C 
ATOM     14  C   UNL     1       2.994  -5.778   1.571  0.00  0.00    +0.031 C 
ATOM     15  C   UNL     1       1.895  -6.652   0.963  0.00  0.00    +0.078 C 
ATOM     16  C   UNL     1       0.729  -5.768   0.513  0.00  0.00    +0.031 C 
ATOM     17  C   UNL     1       1.216  -4.791  -0.554  0.00  0.00    +0.107 C 
BRANCH  15  18
ATOM     18  C   UNL     1       1.409  -7.637   1.994  0.00  0.00    +0.214 C 
ATOM     19  O   UNL     1       1.894  -7.641   3.106  0.00  0.00    -0.276 OA
ATOM     20  N   UNL     1       0.435  -8.515   1.682  0.00  0.00    -0.329 N 
ATOM     21  H   UNL     1       0.047  -8.512   0.793  0.00  0.00    +0.145 HD
ATOM     22  H   UNL     1       0.122  -9.149   2.346  0.00  0.00    +0.145 HD
ENDBRANCH  15  18
ENDBRANCH   8  12
BRANCH   9  23
ATOM     23  C   UNL     1       4.752  -2.672  -0.716  0.00  0.00    +0.055 C 
ATOM     24  C   UNL     1       5.848  -2.563   0.077  0.00  0.00    +0.170 C 
BRANCH  24  25
ATOM     25  S   UNL     1       7.368  -3.304  -0.415  0.00  0.00    +0.035 S 
ATOM     26  O   UNL     1       7.843  -4.039   0.705  0.00  0.00    -0.164 OA
ATOM     27  O   UNL     1       7.135  -3.909  -1.679  0.00  0.00    -0.164 OA
BRANCH  25  28
ATOM     28  C   UNL     1       8.521  -1.999  -0.685  0.00  0.00    +0.094 A 
ATOM     29  C   UNL     1       8.628  -1.421  -1.936  0.00  0.00    +0.029 A 
ATOM     30  C   UNL     1       9.532  -0.397  -2.149  0.00  0.00    +0.022 A 
ATOM     31  C   UNL     1      10.329   0.049  -1.110  0.00  0.00    +0.041 A 
ATOM     32  C   UNL     1      10.221  -0.530   0.142  0.00  0.00    +0.022 A 
ATOM     33  C   UNL     1       9.313  -1.550   0.355  0.00  0.00    +0.029 A 
ATOM     34 CL   UNL     1      11.464   1.335  -1.376  0.00  0.00    -0.084 Cl
ENDBRANCH  25  28
ENDBRANCH  24  25
BRANCH  24  35
ATOM     35  C   UNL     1       5.768  -1.846   1.314  0.00  0.00    +0.119 C 
ATOM     36  N   UNL     1       5.704  -1.278   2.296  0.00  0.00    -0.189 NA
ENDBRANCH  24  35
ENDBRANCH   9  23
TORSDOF 6
