REMARK  Name = ZINC19626155
REMARK  7 active torsions:
REMARK  status: ('A' for Active; 'I' for Inactive)
REMARK    1  A    between atoms: C_5  and  C_7
REMARK    2  A    between atoms: C_7  and  N_8
REMARK    3  A    between atoms: N_8  and  C_9
REMARK    4  A    between atoms: C_9  and  C_11
REMARK    5  A    between atoms: C_9  and  N_15
REMARK    6  A    between atoms: C_16  and  C_18
REMARK    7  A    between atoms: C_21  and  N_24
REMARK                            x       y       z     vdW  Elec       q    Type
REMARK                         _______ _______ _______ _____ _____    ______ ____
ROOT
ATOM      1  C   UNL     1      -0.062   1.117  -2.413  0.00  0.00    +0.193 C 
ENDROOT
BRANCH   1   2
ATOM      2  C   UNL     1      -1.115   0.602  -3.396  0.00  0.00    +0.222 C 
ATOM      3 CL   UNL     1      -2.271   1.929  -3.790  0.00  0.00    -0.080 Cl
ATOM      4 CL   UNL     1      -0.304   0.043  -4.906  0.00  0.00    -0.080 Cl
ATOM      5 CL   UNL     1      -2.011  -0.774  -2.651  0.00  0.00    -0.080 Cl
ENDBRANCH   1   2
BRANCH   1   6
ATOM      6  N   UNL     1       0.666   2.235  -3.018  0.00  0.00    -0.292 N 
ATOM      7  C   UNL     1       2.009   2.293  -2.926  0.00  0.00    +0.245 C 
ATOM      8  O   UNL     1       2.616   1.417  -2.341  0.00  0.00    -0.270 OA
ATOM      9  H   UNL     1       0.116   3.027  -3.548  0.00  0.00    +0.151 HD
BRANCH   7  10
ATOM     10  C   UNL     1       2.744   3.421  -3.538  0.00  0.00    +0.037 A 
ATOM     11  C   UNL     1       2.050   4.424  -4.215  0.00  0.00    +0.015 A 
ATOM     12  C   UNL     1       2.741   5.477  -4.778  0.00  0.00    +0.033 A 
ATOM     13  C   UNL     1       4.120   5.534  -4.682  0.00  0.00    +0.126 A 
ATOM     14  C   UNL     1       4.815   4.539  -4.017  0.00  0.00    +0.033 A 
ATOM     15  C   UNL     1       4.135   3.484  -3.444  0.00  0.00    +0.015 A 
BRANCH  13  16
ATOM     16  N   UNL     1       4.856   6.663  -5.294  0.00  0.00    +0.056 N 
ATOM     17  O   UNL     1       6.070   6.715  -5.210  0.00  0.00    -0.126 OA
ATOM     18  O   UNL     1       4.247   7.540  -5.880  0.00  0.00    -0.126 OA
ENDBRANCH  13  16
ENDBRANCH   7  10
ENDBRANCH   1   6
BRANCH   1  19
ATOM     19  N   UNL     1      -0.723   1.572  -1.182  0.00  0.00    -0.291 NA
ATOM     20  H   UNL     1      -1.755   1.192  -1.174  0.00  0.00    +0.124 HD
BRANCH  19  21
ATOM     21  C   UNL     1      -0.013   1.086   0.008  0.00  0.00    +0.119 C 
BRANCH  21  26
ATOM     22  C   UNL     1      -0.879   3.115   3.072  0.00  0.00    +0.000 A 
ATOM     23  C   UNL     1      -2.012   2.463   3.524  0.00  0.00    +0.001 A 
ATOM     24  C   UNL     1      -2.498   1.366   2.839  0.00  0.00    +0.020 A 
ATOM     25  C   UNL     1      -1.851   0.919   1.700  0.00  0.00    +0.045 A 
ATOM     26  C   UNL     1      -0.718   1.572   1.248  0.00  0.00    -0.015 A 
ATOM     27  C   UNL     1      -0.230   2.666   1.937  0.00  0.00    +0.006 A 
ATOM     28 CL   UNL     1      -2.461  -0.460   0.839  0.00  0.00    -0.083 Cl
ENDBRANCH  21  26
ENDBRANCH  19  21
ENDBRANCH   1  19
TORSDOF 7
