REMARK  Name = ZINC48533530
REMARK  10 active torsions:
REMARK  status: ('A' for Active; 'I' for Inactive)
REMARK    1  A    between atoms: C_1  and  C_2
REMARK    2  A    between atoms: C_2  and  O_4
REMARK    3  A    between atoms: O_4  and  C_5
REMARK    4  A    between atoms: C_9  and  C_34
REMARK    5  A    between atoms: C_14  and  C_33
REMARK    6  A    between atoms: C_24  and  O_26
REMARK    7  A    between atoms: C_31  and  O_32
REMARK    8  A    between atoms: C_34  and  O_35
REMARK    9  A    between atoms: O_35  and  S_36
REMARK   10  A    between atoms: S_36  and  C_39
REMARK                            x       y       z     vdW  Elec       q    Type
REMARK                         _______ _______ _______ _____ _____    ______ ____
ROOT
ATOM      1  C   UNL     1      -1.057  -2.114   0.001  0.00  0.00    +0.179 C 
ATOM      2  C   UNL     1      -1.018  -2.639   1.438  0.00  0.00    +0.045 C 
ATOM      3  C   UNL     1      -0.826  -4.152   1.403  0.00  0.00    +0.016 C 
ATOM      4  C   UNL     1      -1.876  -4.862   0.567  0.00  0.00    +0.028 C 
ATOM      5  C   UNL     1      -1.556  -6.349   0.456  0.00  0.00    +0.006 C 
ATOM      6  C   UNL     1      -1.163  -6.938   1.808  0.00  0.00    +0.005 C 
ATOM      7  C   UNL     1       0.335  -6.785   2.063  0.00  0.00    +0.014 C 
ATOM      8  C   UNL     1       1.129  -7.537   0.997  0.00  0.00    +0.022 C 
ATOM      9  C   UNL     1       2.580  -7.122   0.972  0.00  0.00    -0.016 C 
ATOM     10  C   UNL     1       2.408  -5.599   0.982  0.00  0.00    +0.038 C 
ATOM     11  C   UNL     1       1.542  -5.539  -0.327  0.00  0.00    +0.040 C 
ATOM     12  C   UNL     1       0.828  -6.917  -0.392  0.00  0.00    +0.083 C 
ATOM     13  C   UNL     1      -0.649  -6.784  -0.656  0.00  0.00    +0.026 C 
ATOM     14  C   UNL     1      -0.901  -6.070  -1.978  0.00  0.00    +0.009 C 
ATOM     15  C   UNL     1      -1.071  -4.568  -1.820  0.00  0.00    +0.036 C 
ATOM     16  C   UNL     1      -2.145  -4.237  -0.793  0.00  0.00    +0.077 C 
ATOM     17  C   UNL     1      -2.283  -2.717  -0.681  0.00  0.00    +0.080 C 
ATOM     18  O   UNL     1       1.436  -7.758  -1.350  0.00  0.00    -0.364 OA
ATOM     19  C   UNL     1       2.417  -8.726  -1.297  0.00  0.00    +0.243 C 
ATOM     20  C   UNL     1       3.479  -8.816  -0.257  0.00  0.00    +0.222 C 
ATOM     21  O   UNL     1       4.170  -9.810  -0.191  0.00  0.00    -0.286 OA
ATOM     22  C   UNL     1       3.683  -7.709   0.679  0.00  0.00    +0.161 C 
ATOM     23  C   UNL     1       0.863  -9.049   1.096  0.00  0.00    +0.019 C 
ENDROOT
BRANCH  22  25
ATOM     24  H   UNL     1       5.633  -7.894   0.858  0.00  0.00    +0.292 HD
ATOM     25  O   UNL     1       4.901  -7.350   1.179  0.00  0.00    -0.503 OA
ENDBRANCH  22  25
BRANCH  16  26
ATOM     26  O   UNL     1      -3.400  -4.753  -1.281  0.00  0.00    -0.388 OA
ATOM     27  H   UNL     1      -3.656  -4.408  -2.147  0.00  0.00    +0.210 HD
ENDBRANCH  16  26
BRANCH   1  28
ATOM     28  O   UNL     1      -1.151  -0.691   0.009  0.00  0.00    -0.461 OA
BRANCH  28  30
ATOM     29  C   UNL     1      -0.018   1.503   0.010  0.00  0.00    +0.136 C 
ATOM     30  C   UNL     1       0.002  -0.004   0.002  0.00  0.00    +0.304 C 
ATOM     31  O   UNL     1       1.056  -0.594  -0.011  0.00  0.00    -0.251 OA
ENDBRANCH  28  30
ENDBRANCH   1  28
BRANCH   4  32
ATOM     32  C   UNL     1      -3.216  -4.772   1.353  0.00  0.00    +0.203 C 
BRANCH  32  33
ATOM     33  O   UNL     1      -3.564  -3.400   1.545  0.00  0.00    -0.238 OA
BRANCH  33  34
ATOM     34  S   UNL     1      -4.865  -3.192   2.308  0.00  0.00    +0.079 S 
ATOM     35  O   UNL     1      -5.155  -1.809   2.160  0.00  0.00    -0.147 OA
ATOM     36  O   UNL     1      -5.750  -4.177   1.791  0.00  0.00    -0.147 OA
ATOM     37  C   UNL     1      -4.457  -3.565   4.036  0.00  0.00    +0.228 C 
ENDBRANCH  33  34
ENDBRANCH  32  33
ENDBRANCH   4  32
TORSDOF 7
