REMARK  Name = ZINC09420768
REMARK  6 active torsions:
REMARK  status: ('A' for Active; 'I' for Inactive)
REMARK    1  A    between atoms: C_1  and  C_2
REMARK    2  A    between atoms: C_5  and  C_32
REMARK    3  A    between atoms: C_9  and  C_10
REMARK    4  A    between atoms: C_9  and  N_55
REMARK    5  A    between atoms: C_11  and  O_31
REMARK    6  A    between atoms: C_18  and  C_19
REMARK                            x       y       z     vdW  Elec       q    Type
REMARK                         _______ _______ _______ _____ _____    ______ ____
ROOT
ATOM      1  C   UNL     1       2.395   1.417  -0.014  0.00  0.00    +0.020 A 
ATOM      2  C   UNL     1       1.177   2.078   0.002  0.00  0.00    +0.122 A 
ATOM      3  C   UNL     1      -0.017   1.362   0.009  0.00  0.00    +0.046 A 
ATOM      4  C   UNL     1       0.002  -0.004   0.002  0.00  0.00    +0.019 A 
ATOM      5  C   UNL     1       1.221  -0.683  -0.013  0.00  0.00    +0.068 A 
ATOM      6  C   UNL     1       2.432   0.028  -0.021  0.00  0.00    +0.144 A 
ATOM      7  O   UNL     1       3.468  -0.839  -0.035  0.00  0.00    -0.451 OA
ATOM      8  C   UNL     1       3.047  -2.125  -0.037  0.00  0.00    +0.179 C 
ATOM      9  C   UNL     1       3.842  -3.231  -0.050  0.00  0.00    +0.096 C 
ATOM     10  C   UNL     1       1.579  -2.113  -0.024  0.00  0.00    +0.232 C 
ATOM     11  O   UNL     1       0.825  -3.071  -0.021  0.00  0.00    -0.283 OA
ENDROOT
BRANCH   9  12
ATOM     12  C   UNL     1       5.251  -3.090  -0.062  0.00  0.00    +0.133 A 
ATOM     13  C   UNL     1       6.146  -4.119  -0.070  0.00  0.00    +0.058 A 
ATOM     14  C   UNL     1       7.439  -3.539  -0.084  0.00  0.00    +0.022 A 
ATOM     15  C   UNL     1       8.735  -4.065  -0.099  0.00  0.00    +0.027 A 
ATOM     16  C   UNL     1       9.810  -3.220  -0.104  0.00  0.00    +0.019 A 
ATOM     17  C   UNL     1       9.624  -1.844  -0.095  0.00  0.00    +0.019 A 
ATOM     18  C   UNL     1       8.355  -1.306  -0.080  0.00  0.00    +0.048 A 
ATOM     19  C   UNL     1       7.247  -2.144  -0.074  0.00  0.00    +0.136 A 
ATOM     20  O   UNL     1       5.918  -1.916  -0.061  0.00  0.00    -0.455 OA
ATOM     21 BR   UNL     1      11.562  -3.931  -0.126  0.00  0.00    -0.050 Br
ENDBRANCH   9  12
BRANCH   2  22
ATOM     22  O   UNL     1       1.149   3.435   0.009  0.00  0.00    -0.506 OA
ATOM     23  H   UNL     1       1.149   3.824   0.895  0.00  0.00    +0.292 HD
ENDBRANCH   2  22
BRANCH   1  24
ATOM     24  C   UNL     1       3.680   2.205  -0.022  0.00  0.00    -0.036 C 
BRANCH  24  32
ATOM     25  C   UNL     1       5.084   0.217  -4.296  0.00  0.00    +0.005 C 
ATOM     26  C   UNL     1       4.704   1.513  -3.579  0.00  0.00    -0.031 C 
ATOM     27  C   UNL     1       5.857   2.515  -3.689  0.00  0.00    +0.003 C 
ATOM     28  C   UNL     1       5.492   3.787  -2.919  0.00  0.00    -0.031 C 
ATOM     29  C   UNL     1       5.194   3.428  -1.461  0.00  0.00    -0.075 C 
ATOM     30  C   UNL     1       4.429   1.219  -2.102  0.00  0.00    -0.075 C 
ATOM     31  C   UNL     1       4.255   4.430  -3.549  0.00  0.00    +0.005 C 
ATOM     32  N   UNL     1       4.061   2.479  -1.423  0.00  0.00    +0.383 N 
ATOM     33  H   UNL     1       3.260   2.898  -1.910  0.00  0.00    -0.081 HD
ENDBRANCH  24  32
ENDBRANCH   1  24
TORSDOF 4
