REMARK  Name = ZINC11819801
REMARK  7 active torsions:
REMARK  status: ('A' for Active; 'I' for Inactive)
REMARK    1  A    between atoms: C_9  and  C_10
REMARK    2  A    between atoms: C_10  and  N_56
REMARK    3  A    between atoms: C_11  and  C_12
REMARK    4  A    between atoms: C_11  and  N_56
REMARK    5  A    between atoms: C_12  and  O_26
REMARK    6  A    between atoms: N_16  and  C_19
REMARK    7  A    between atoms: C_19  and  C_20
REMARK                            x       y       z     vdW  Elec       q    Type
REMARK                         _______ _______ _______ _____ _____    ______ ____
ROOT
ATOM      1  C   UNL     1      -2.312  -4.330  -2.825  0.00  0.00    +0.127 C 
ATOM      2  C   UNL     1      -2.862  -5.757  -2.775  0.00  0.00    +0.044 C 
ATOM      3  C   UNL     1      -2.607  -6.424  -4.132  0.00  0.00    +0.022 C 
ATOM      4  C   UNL     1      -1.101  -6.614  -4.308  0.00  0.00    +0.108 C 
ATOM      5  N   UNL     1      -0.395  -5.366  -4.049  0.00  0.00    -0.299 N 
ATOM      6  C   UNL     1      -0.912  -4.341  -3.369  0.00  0.00    +0.245 C 
ATOM      7  O   UNL     1      -0.215  -3.367  -3.181  0.00  0.00    -0.273 OA
ENDROOT
BRANCH   1   8
ATOM      8  O   UNL     1      -3.141  -3.531  -3.671  0.00  0.00    -0.381 OA
ATOM      9  H   UNL     1      -2.853  -2.611  -3.749  0.00  0.00    +0.211 HD
ENDBRANCH   1   8
BRANCH   1  10
ATOM     10  C   UNL     1      -2.304  -3.737  -1.415  0.00  0.00    -0.037 C 
BRANCH  10  11
ATOM     11  N   UNL     1      -3.676  -3.758  -0.874  0.00  0.00    +0.385 N 
ATOM     12  H   UNL     1      -4.269  -3.132  -1.431  0.00  0.00    -0.085 HD
ATOM     13  H   UNL     1      -4.046  -4.715  -0.926  0.00  0.00    -0.085 HD
BRANCH  11  14
ATOM     14  C   UNL     1      -3.680  -3.310   0.531  0.00  0.00    -0.026 C 
BRANCH  14  23
ATOM     15  C   UNL     1      -8.272  -0.756   0.968  0.00  0.00    +0.005 A 
ATOM     16  C   UNL     1      -7.090  -0.331   0.338  0.00  0.00    +0.018 A 
ATOM     17  C   UNL     1      -6.001  -1.127   0.326  0.00  0.00    +0.093 A 
ATOM     18  N   UNL     1      -6.030  -2.354   0.923  0.00  0.00    -0.305 N 
ATOM     19  C   UNL     1      -7.169  -2.797   1.545  0.00  0.00    +0.138 A 
ATOM     20  C   UNL     1      -8.315  -1.977   1.567  0.00  0.00    +0.047 A 
ATOM     21  N   UNL     1      -6.924  -4.002   2.039  0.00  0.00    -0.236 NA
ATOM     22  C   UNL     1      -5.669  -4.350   1.746  0.00  0.00    +0.132 A 
ATOM     23  C   UNL     1      -5.092  -3.341   1.056  0.00  0.00    +0.026 A 
ENDBRANCH  14  23
ENDBRANCH  11  14
ENDBRANCH  10  11
ENDBRANCH   1  10
BRANCH   5  24
ATOM     24  C   UNL     1       0.969  -5.227  -4.567  0.00  0.00    +0.111 C 
BRANCH  24  25
ATOM     25  C   UNL     1       0.921  -4.629  -5.974  0.00  0.00    +0.006 C 
ATOM     26  C   UNL     1       0.225  -5.609  -6.922  0.00  0.00    +0.005 C 
ATOM     27  C   UNL     1       0.178  -5.010  -8.329  0.00  0.00    +0.000 C 
ATOM     28  C   UNL     1       1.603  -4.750  -8.821  0.00  0.00    +0.000 C 
ATOM     29  C   UNL     1       2.299  -3.770  -7.874  0.00  0.00    +0.000 C 
ATOM     30  C   UNL     1       2.346  -4.369  -6.466  0.00  0.00    +0.005 C 
ENDBRANCH  24  25
ENDBRANCH   5  24
TORSDOF 7
