REMARK  Name = ZINC01844054
REMARK  3 active torsions:
REMARK  status: ('A' for Active; 'I' for Inactive)
REMARK    1  A    between atoms: C_4  and  C_7
REMARK    2  A    between atoms: C_7  and  N_8
REMARK    3  A    between atoms: C_18  and  C_20
REMARK                            x       y       z     vdW  Elec       q    Type
REMARK                         _______ _______ _______ _____ _____    ______ ____
ROOT
ATOM      1  N   UNL     1       4.153  -0.953   1.342  0.00  0.00    +0.383 N 
ATOM      2  C   UNL     1       3.204  -1.855   2.005  0.00  0.00    -0.073 C 
ATOM      3  C   UNL     1       3.616  -2.053   3.465  0.00  0.00    +0.048 C 
ATOM      4  C   UNL     1       5.019  -2.667   3.514  0.00  0.00    +0.177 C 
ATOM      5  C   UNL     1       5.987  -1.748   2.759  0.00  0.00    +0.048 C 
ATOM      6  C   UNL     1       5.489  -1.562   1.325  0.00  0.00    -0.073 C 
ATOM      7  N   UNL     1       5.447  -2.838   4.881  0.00  0.00    -0.177 NA
ATOM      8  C   UNL     1       6.724  -3.613   4.929  0.00  0.00    +0.138 C 
ATOM      9  C   UNL     1       7.119  -3.424   6.368  0.00  0.00    +0.023 C 
ATOM     10  C   UNL     1       6.442  -2.330   6.783  0.00  0.00    +0.053 C 
ATOM     11  N   UNL     1       5.672  -1.813   5.721  0.00  0.00    -0.273 N 
ATOM     12  C   UNL     1       6.302  -4.999   4.539  0.00  0.00    +0.018 A 
ATOM     13  C   UNL     1       6.749  -6.136   5.156  0.00  0.00    +0.024 A 
ATOM     14  C   UNL     1       6.288  -7.373   4.732  0.00  0.00    +0.018 A 
ATOM     15  C   UNL     1       5.380  -7.448   3.691  0.00  0.00    +0.019 A 
ATOM     16  C   UNL     1       4.933  -6.302   3.064  0.00  0.00    +0.047 A 
ATOM     17  C   UNL     1       5.394  -5.060   3.476  0.00  0.00    +0.128 A 
ATOM     18  O   UNL     1       4.989  -3.942   2.856  0.00  0.00    -0.469 OA
ATOM     19 BR   UNL     1       6.899  -8.953   5.573  0.00  0.00    -0.050 Br
ATOM     20  H   UNL     1       5.365  -0.899   5.617  0.00  0.00    +0.167 HD
ATOM     21  H   UNL     1       4.189  -0.078   1.843  0.00  0.00    -0.081 HD
ENDROOT
BRANCH  10  22
ATOM     22  C   UNL     1       6.501  -1.763   8.142  0.00  0.00    +0.034 A 
ATOM     23  C   UNL     1       5.850  -0.668   8.650  0.00  0.00    +0.017 A 
ATOM     24  C   UNL     1       6.063  -0.324   9.966  0.00  0.00    +0.008 A 
ATOM     25  C   UNL     1       6.907  -1.076  10.719  0.00  0.00    +0.046 A 
ATOM     26  S   UNL     1       7.432  -2.326   9.558  0.00  0.00    -0.095 S 
ENDBRANCH  10  22
BRANCH   1  27
ATOM     27  C   UNL     1       3.711  -0.707  -0.038  0.00  0.00    -0.043 C 
BRANCH  27  31
ATOM     28  C   UNL     1      -0.017   1.378   0.010  0.00  0.00    +0.000 A 
ATOM     29  C   UNL     1       1.171   2.086   0.002  0.00  0.00    +0.000 A 
ATOM     30  C   UNL     1       2.377   1.411  -0.013  0.00  0.00    +0.002 A 
ATOM     31  C   UNL     1       2.396   0.029  -0.020  0.00  0.00    -0.064 A 
ATOM     32  C   UNL     1       1.208  -0.679  -0.012  0.00  0.00    +0.002 A 
ATOM     33  C   UNL     1       0.002  -0.004   0.002  0.00  0.00    +0.000 A 
ENDBRANCH  27  31
ENDBRANCH   1  27
TORSDOF 3
