REMARK  Name = ZINC21256167
REMARK  11 active torsions:
REMARK  status: ('A' for Active; 'I' for Inactive)
REMARK    1  A    between atoms: C_1  and  C_2
REMARK    2  A    between atoms: C_2  and  O_3
REMARK    3  A    between atoms: O_3  and  C_4
REMARK    4  A    between atoms: C_7  and  C_12
REMARK    5  A    between atoms: C_9  and  O_10
REMARK    6  A    between atoms: O_10  and  C_11
REMARK    7  A    between atoms: C_17  and  C_27
REMARK    8  A    between atoms: C_30  and  O_35
REMARK    9  A    between atoms: C_32  and  O_33
REMARK   10  A    between atoms: O_33  and  C_34
REMARK   11  A    between atoms: O_35  and  C_36
REMARK                            x       y       z     vdW  Elec       q    Type
REMARK                         _______ _______ _______ _____ _____    ______ ____
ROOT
ATOM      1  C   UNL     1      -0.179   1.006   0.107  0.00  0.00    +0.032 C 
ATOM      2  C   UNL     1      -0.801   1.522   1.403  0.00  0.00    +0.059 C 
ATOM      3  C   UNL     1       0.019   1.057   2.594  0.00  0.00    +0.017 C 
ATOM      4  C   UNL     1       1.349   0.892   2.485  0.00  0.00    +0.037 C 
ATOM      5  C   UNL     1       2.281   0.451   3.587  0.00  0.00    +0.139 C 
ATOM      6  N   UNL     1       1.691   0.448   4.909  0.00  0.00    -0.331 N 
ATOM      7  C   UNL     1       0.642  -0.415   5.224  0.00  0.00    +0.049 A 
ATOM      8  C   UNL     1       0.788  -1.420   6.167  0.00  0.00    +0.025 A 
ATOM      9  C   UNL     1      -0.267  -2.282   6.411  0.00  0.00    +0.002 A 
ATOM     10  C   UNL     1      -1.457  -2.145   5.720  0.00  0.00    +0.002 A 
ATOM     11  C   UNL     1      -1.613  -1.130   4.791  0.00  0.00    +0.025 A 
ATOM     12  C   UNL     1      -0.566  -0.254   4.562  0.00  0.00    +0.052 A 
ATOM     13  N   UNL     1      -0.692   0.853   3.731  0.00  0.00    -0.316 N 
ATOM     14  C   UNL     1       1.997   1.136   1.250  0.00  0.00    +0.163 C 
ATOM     15  O   UNL     1       3.203   0.996   1.183  0.00  0.00    -0.292 OA
ATOM     16  C   UNL     1       1.249   1.560   0.022  0.00  0.00    +0.088 C 
ATOM     17  H   UNL     1       2.070   1.133   5.682  0.00  0.00    +0.147 HD
ATOM     18  H   UNL     1      -1.435   1.596   4.056  0.00  0.00    +0.152 HD
ENDROOT
BRANCH   1  22
ATOM     19  C   UNL     1      -2.460   2.376  -3.241  0.00  0.00    +0.162 A 
ATOM     20  C   UNL     1      -1.889   3.288  -2.369  0.00  0.00    +0.050 A 
ATOM     21  C   UNL     1      -1.152   2.842  -1.288  0.00  0.00    +0.008 A 
ATOM     22  C   UNL     1      -0.983   1.487  -1.074  0.00  0.00    -0.040 A 
ATOM     23  C   UNL     1      -1.547   0.572  -1.943  0.00  0.00    +0.053 A 
ATOM     24  C   UNL     1      -2.291   1.012  -3.026  0.00  0.00    +0.162 A 
BRANCH  24  25
ATOM     25  O   UNL     1      -2.850   0.113  -3.879  0.00  0.00    -0.491 OA
ATOM     26  C   UNL     1      -2.634  -1.271  -3.596  0.00  0.00    +0.277 C 
ENDBRANCH  24  25
BRANCH  19  27
ATOM     27  O   UNL     1      -3.185   2.813  -4.306  0.00  0.00    -0.489 OA
BRANCH  27  29
ATOM     28  C   UNL     1      -4.159   4.525  -5.707  0.00  0.00    +0.048 C 
ATOM     29  C   UNL     1      -3.317   4.227  -4.464  0.00  0.00    +0.226 C 
ENDBRANCH  27  29
ENDBRANCH  19  27
ENDBRANCH   1  22
BRANCH   5  30
ATOM     30  C   UNL     1       2.761  -0.944   3.276  0.00  0.00    +0.019 A 
ATOM     31  C   UNL     1       2.084  -1.717   2.352  0.00  0.00    +0.013 A 
ATOM     32  C   UNL     1       2.522  -2.995   2.064  0.00  0.00    +0.046 A 
ATOM     33  C   UNL     1       3.643  -3.506   2.703  0.00  0.00    +0.124 A 
ATOM     34  C   UNL     1       4.324  -2.733   3.631  0.00  0.00    +0.091 A 
ATOM     35  C   UNL     1       3.886  -1.448   3.913  0.00  0.00    +0.129 A 
BRANCH  35  36
ATOM     36  O   UNL     1       4.554  -0.685   4.817  0.00  0.00    -0.495 OA
ATOM     37  C   UNL     1       5.703  -1.268   5.435  0.00  0.00    +0.277 C 
ENDBRANCH  35  36
BRANCH  33  38
ATOM     38  O   UNL     1       4.073  -4.764   2.420  0.00  0.00    -0.495 OA
ATOM     39  C   UNL     1       3.324  -5.504   1.454  0.00  0.00    +0.277 C 
ENDBRANCH  33  38
ENDBRANCH   5  30
TORSDOF 7
