REMARK  Name = ZINC01367653
REMARK  8 active torsions:
REMARK  status: ('A' for Active; 'I' for Inactive)
REMARK    1  A    between atoms: C_1  and  C_2
REMARK    2  A    between atoms: C_9  and  C_13
REMARK    3  A    between atoms: C_13  and  N_14
REMARK    4  A    between atoms: N_14  and  C_15
REMARK    5  A    between atoms: C_15  and  C_16
REMARK    6  A    between atoms: C_22  and  C_24
REMARK    7  A    between atoms: C_24  and  O_25
REMARK    8  A    between atoms: O_25  and  C_26
REMARK                            x       y       z     vdW  Elec       q    Type
REMARK                         _______ _______ _______ _____ _____    ______ ____
ROOT
ATOM      1  C   UNL     1       1.354   6.090  -2.071  0.00  0.00    +0.146 C 
ENDROOT
BRANCH   1  10
ATOM      2  C   UNL     1       7.032   8.436   2.091  0.00  0.00    +0.044 C 
ATOM      3  C   UNL     1       5.798   8.704   1.268  0.00  0.00    -0.050 A 
ATOM      4  C   UNL     1       5.357  10.015   1.099  0.00  0.00    +0.005 A 
ATOM      5  C   UNL     1       4.247  10.293   0.361  0.00  0.00    +0.028 A 
ATOM      6  C   UNL     1       3.530   9.244  -0.242  0.00  0.00    +0.073 A 
ATOM      7  C   UNL     1       3.981   7.912  -0.068  0.00  0.00    +0.001 A 
ATOM      8  C   UNL     1       5.130   7.663   0.700  0.00  0.00    +0.013 A 
ATOM      9  C   UNL     1       3.262   6.864  -0.673  0.00  0.00    +0.018 A 
ATOM     10  C   UNL     1       2.154   7.180  -1.405  0.00  0.00    +0.007 A 
ATOM     11  C   UNL     1       1.768   8.513  -1.542  0.00  0.00    +0.135 A 
ATOM     12  N   UNL     1       2.437   9.487  -0.972  0.00  0.00    -0.235 NA
ATOM     13 CL   UNL     1       0.360   8.892  -2.484  0.00  0.00    -0.062 Cl
ENDBRANCH   1  10
BRANCH   1  14
ATOM     14  N   UNL     1       0.080   5.921  -1.367  0.00  0.00    -0.291 N 
ATOM     15  C   UNL     1      -1.081   6.158  -2.009  0.00  0.00    +0.242 C 
ATOM     16  O   UNL     1      -2.129   6.121  -1.400  0.00  0.00    -0.273 OA
BRANCH  14  17
ATOM     17  C   UNL     1       0.069   5.493   0.034  0.00  0.00    +0.143 C 
BRANCH  17  18
ATOM     18  C   UNL     1       0.136   3.989   0.101  0.00  0.00    -0.030 A 
ATOM     19  C   UNL     1       1.361   3.350   0.056  0.00  0.00    +0.005 A 
ATOM     20  C   UNL     1       1.423   1.970   0.118  0.00  0.00    +0.000 A 
ATOM     21  C   UNL     1       0.260   1.230   0.224  0.00  0.00    +0.000 A 
ATOM     22  C   UNL     1      -0.965   1.869   0.263  0.00  0.00    +0.000 A 
ATOM     23  C   UNL     1      -1.026   3.249   0.207  0.00  0.00    +0.005 A 
ENDBRANCH  17  18
ENDBRANCH  14  17
BRANCH  15  24
ATOM     24  C   UNL     1      -1.077   6.470  -3.483  0.00  0.00    +0.255 C 
BRANCH  24  25
ATOM     25  O   UNL     1      -2.399   6.816  -3.901  0.00  0.00    -0.374 OA
ATOM     26  C   UNL     1      -2.506   7.131  -5.290  0.00  0.00    +0.194 C 
ENDBRANCH  24  25
ENDBRANCH  15  24
ENDBRANCH   1  14
TORSDOF 6
