REMARK  Name = ZINC21218499
REMARK  9 active torsions:
REMARK  status: ('A' for Active; 'I' for Inactive)
REMARK    1  A    between atoms: C_1  and  C_2
REMARK    2  A    between atoms: C_2  and  C_3
REMARK    3  A    between atoms: C_2  and  C_4
REMARK    4  A    between atoms: C_4  and  O_5
REMARK    5  A    between atoms: O_5  and  C_6
REMARK    6  A    between atoms: C_9  and  C_12
REMARK    7  A    between atoms: C_17  and  C_23
REMARK    8  A    between atoms: C_28  and  O_29
REMARK    9  A    between atoms: O_29  and  C_30
REMARK                            x       y       z     vdW  Elec       q    Type
REMARK                         _______ _______ _______ _____ _____    ______ ____
ROOT
ATOM      1  C   UNL     1       4.168  -0.171   2.458  0.00  0.00    +0.032 C 
ATOM      2  C   UNL     1       2.751  -0.743   2.372  0.00  0.00    +0.059 C 
ATOM      3  C   UNL     1       1.968  -0.001   1.318  0.00  0.00    +0.018 C 
ATOM      4  C   UNL     1       2.224   1.297   1.052  0.00  0.00    +0.020 C 
ATOM      5  C   UNL     1       1.420   2.023  -0.001  0.00  0.00    +0.066 C 
ATOM      6  C   UNL     1      -0.018   1.503   0.010  0.00  0.00    +0.109 C 
ATOM      7  C   UNL     1       0.002  -0.004   0.002  0.00  0.00    +0.218 C 
ATOM      8  O   UNL     1      -0.869  -0.618  -0.576  0.00  0.00    -0.275 OA
ATOM      9  N   UNL     1       0.984  -0.669   0.635  0.00  0.00    -0.289 N 
ATOM     10  C   UNL     1       3.231   1.999   1.736  0.00  0.00    +0.162 C 
ATOM     11  O   UNL     1       3.424   3.171   1.477  0.00  0.00    -0.292 OA
ATOM     12  C   UNL     1       4.073   1.323   2.784  0.00  0.00    +0.088 C 
ATOM     13  H   UNL     1       0.990  -1.769   0.598  0.00  0.00    +0.155 HD
ENDROOT
BRANCH   5  14
ATOM     14  C   UNL     1       2.032   1.780  -1.356  0.00  0.00    +0.003 A 
ATOM     15  C   UNL     1       2.145   0.492  -1.843  0.00  0.00    +0.023 A 
ATOM     16  C   UNL     1       2.702   0.270  -3.090  0.00  0.00    +0.018 A 
ATOM     17  C   UNL     1       3.157   1.335  -3.846  0.00  0.00    +0.019 A 
ATOM     18  C   UNL     1       3.051   2.623  -3.361  0.00  0.00    +0.047 A 
ATOM     19  C   UNL     1       2.488   2.849  -2.113  0.00  0.00    +0.124 A 
ATOM     20 BR   UNL     1       2.848  -1.494  -3.757  0.00  0.00    -0.050 Br
BRANCH  19  21
ATOM     21  O   UNL     1       2.383   4.117  -1.634  0.00  0.00    -0.495 OA
ATOM     22  C   UNL     1       2.873   5.169  -2.468  0.00  0.00    +0.277 C 
ENDBRANCH  19  21
ENDBRANCH   5  14
BRANCH   1  26
ATOM     23  C   UNL     1       6.342  -2.177   5.542  0.00  0.00    +0.121 A 
ATOM     24  C   UNL     1       6.796  -2.219   4.232  0.00  0.00    +0.046 A 
ATOM     25  C   UNL     1       6.092  -1.569   3.236  0.00  0.00    +0.007 A 
ATOM     26  C   UNL     1       4.934  -0.879   3.545  0.00  0.00    -0.043 A 
ATOM     27  C   UNL     1       4.482  -0.831   4.851  0.00  0.00    +0.007 A 
ATOM     28  C   UNL     1       5.180  -1.484   5.849  0.00  0.00    +0.046 A 
BRANCH  23  29
ATOM     29  O   UNL     1       7.034  -2.814   6.523  0.00  0.00    -0.492 OA
BRANCH  29  30
ATOM     30  C   UNL     1       6.507  -2.729   7.848  0.00  0.00    +0.232 C 
BRANCH  30  32
ATOM     31  C   UNL     1       8.784  -2.824   8.873  0.00  0.00    +0.010 C 
ATOM     32  C   UNL     1       7.414  -3.502   8.808  0.00  0.00    +0.020 C 
ATOM     33  C   UNL     1       6.786  -3.516  10.203  0.00  0.00    +0.010 C 
ENDBRANCH  30  32
ENDBRANCH  29  30
ENDBRANCH  23  29
ENDBRANCH   1  26
TORSDOF 6
