REMARK  Name = ZINC22221865
REMARK  8 active torsions:
REMARK  status: ('A' for Active; 'I' for Inactive)
REMARK    1  A    between atoms: C_1  and  C_2
REMARK    2  A    between atoms: C_2  and  C_3
REMARK    3  A    between atoms: C_3  and  C_4
REMARK    4  A    between atoms: C_7  and  C_10
REMARK    5  A    between atoms: C_10  and  C_28
REMARK    6  A    between atoms: N_13  and  C_17
REMARK    7  A    between atoms: C_17  and  C_18
REMARK    8  A    between atoms: N_20  and  C_21
REMARK                            x       y       z     vdW  Elec       q    Type
REMARK                         _______ _______ _______ _____ _____    ______ ____
ROOT
ATOM      1  C   UNL     1      -0.000  -0.001  -0.003  0.00  0.00    +0.135 C 
ATOM      2  C   UNL     1      -0.017   1.514   0.002  0.00  0.00    +0.251 C 
ATOM      3  O   UNL     1      -0.991   2.236   0.003  0.00  0.00    -0.272 OA
ATOM      4  N   UNL     1       1.277   1.893  -0.000  0.00  0.00    -0.215 N 
ATOM      5  C   UNL     1       2.100   0.838  -0.006  0.00  0.00    +0.310 C 
ATOM      6  O   UNL     1       3.312   0.927  -0.009  0.00  0.00    -0.252 OA
ATOM      7  N   UNL     1       1.435  -0.332  -0.008  0.00  0.00    -0.281 N 
ATOM      8  C   UNL     1      -0.682  -0.543  -1.261  0.00  0.00    +0.047 C 
ATOM      9  H   UNL     1       1.758  -1.384  -0.013  0.00  0.00    +0.152 HD
ENDROOT
BRANCH   1  13
ATOM     10  C   UNL     1      -1.883  -1.536   3.511  0.00  0.00    -0.047 A 
ATOM     11  C   UNL     1      -0.868  -2.251   2.902  0.00  0.00    +0.004 A 
ATOM     12  C   UNL     1      -0.259  -1.754   1.765  0.00  0.00    +0.006 A 
ATOM     13  C   UNL     1      -0.664  -0.543   1.236  0.00  0.00    -0.015 A 
ATOM     14  C   UNL     1      -1.676   0.174   1.848  0.00  0.00    +0.006 A 
ATOM     15  C   UNL     1      -2.288  -0.325   2.982  0.00  0.00    +0.004 A 
BRANCH  10  16
ATOM     16  C   UNL     1      -2.547  -2.078   4.750  0.00  0.00    +0.035 C 
BRANCH  16  18
ATOM     17  C   UNL     1      -2.474  -2.129   7.247  0.00  0.00    +0.004 C 
ATOM     18  C   UNL     1      -1.800  -1.579   5.989  0.00  0.00    +0.001 C 
ENDBRANCH  16  18
ENDBRANCH  10  16
ENDBRANCH   1  13
BRANCH   4  19
ATOM     19  C   UNL     1       1.726   3.287   0.002  0.00  0.00    +0.214 C 
BRANCH  19  20
ATOM     20  C   UNL     1       1.884   3.762   1.424  0.00  0.00    +0.235 C 
ATOM     21  O   UNL     1       1.645   3.009   2.344  0.00  0.00    -0.274 OA
ATOM     22  N   UNL     1       2.291   5.022   1.672  0.00  0.00    -0.284 N 
ATOM     23  H   UNL     1       2.581   5.681   0.840  0.00  0.00    +0.155 HD
BRANCH  22  24
ATOM     24  C   UNL     1       2.345   5.494   2.989  0.00  0.00    +0.033 A 
ATOM     25  C   UNL     1       2.046   6.821   3.265  0.00  0.00    +0.024 A 
ATOM     26  C   UNL     1       2.095   7.282   4.566  0.00  0.00    +0.017 A 
ATOM     27  C   UNL     1       2.452   6.426   5.592  0.00  0.00    +0.018 A 
ATOM     28  C   UNL     1       2.756   5.104   5.319  0.00  0.00    +0.017 A 
ATOM     29  C   UNL     1       2.703   4.636   4.021  0.00  0.00    +0.024 A 
ATOM     30 BR   UNL     1       2.524   7.062   7.371  0.00  0.00    -0.050 Br
ENDBRANCH  22  24
ENDBRANCH  19  20
ENDBRANCH   4  19
TORSDOF 6
