REMARK  Name = ZINC66895188
REMARK  7 active torsions:
REMARK  status: ('A' for Active; 'I' for Inactive)
REMARK    1  A    between atoms: C_4  and  O_7
REMARK    2  A    between atoms: O_7  and  C_8
REMARK    3  A    between atoms: N_10  and  C_11
REMARK    4  A    between atoms: N_14  and  C_17
REMARK    5  A    between atoms: C_17  and  C_18
REMARK    6  A    between atoms: C_18  and  C_20
REMARK    7  A    between atoms: C_18  and  O_28
REMARK                            x       y       z     vdW  Elec       q    Type
REMARK                         _______ _______ _______ _____ _____    ______ ____
ROOT
ATOM      1  C   UNL     1       4.606  -4.143   0.178  0.00  0.00    +0.073 C 
ATOM      2  C   UNL     1       4.629  -4.753  -1.227  0.00  0.00    +0.004 C 
ATOM      3  C   UNL     1       4.692  -6.278  -1.114  0.00  0.00    -0.077 C 
ATOM      4  N   UNL     1       5.908  -6.668  -0.390  0.00  0.00    +0.382 N 
ATOM      5  C   UNL     1       5.860  -6.147   0.981  0.00  0.00    -0.077 C 
ATOM      6  C   UNL     1       5.841  -4.617   0.949  0.00  0.00    +0.004 C 
ATOM      7  H   UNL     1       6.716  -6.292  -0.864  0.00  0.00    -0.082 HD
ENDROOT
BRANCH   1  10
ATOM      8  C   UNL     1       3.468  -2.005  -0.085  0.00  0.00    +0.406 C 
ATOM      9  O   UNL     1       2.415  -2.607  -0.148  0.00  0.00    -0.226 OA
ATOM     10  N   UNL     1       4.622  -2.682   0.078  0.00  0.00    -0.278 N 
ATOM     11  H   UNL     1       5.463  -2.201   0.129  0.00  0.00    +0.152 HD
BRANCH   8  12
ATOM     12  O   UNL     1       3.483  -0.661  -0.176  0.00  0.00    -0.412 OA
BRANCH  12  16
ATOM     13  C   UNL     1      -0.138   1.313  -0.297  0.00  0.00    +0.000 A 
ATOM     14  C   UNL     1       0.281   0.710   0.875  0.00  0.00    +0.004 A 
ATOM     15  C   UNL     1       1.493   0.049   0.918  0.00  0.00    +0.046 A 
ATOM     16  C   UNL     1       2.290  -0.011  -0.216  0.00  0.00    +0.133 A 
ATOM     17  C   UNL     1       1.867   0.594  -1.391  0.00  0.00    +0.046 A 
ATOM     18  C   UNL     1       0.654   1.254  -1.429  0.00  0.00    +0.004 A 
ENDBRANCH  12  16
ENDBRANCH   8  12
ENDBRANCH   1  10
BRANCH   4  19
ATOM     19  C   UNL     1       6.004  -8.134  -0.353  0.00  0.00    -0.042 C 
BRANCH  19  20
ATOM     20  C   UNL     1       6.216  -8.668  -1.771  0.00  0.00    +0.128 C 
BRANCH  20  21
ATOM     21  C   UNL     1       6.299 -10.172  -1.734  0.00  0.00    -0.018 A 
ATOM     22  C   UNL     1       7.478 -10.789  -1.357  0.00  0.00    +0.009 A 
ATOM     23  C   UNL     1       7.557 -12.168  -1.323  0.00  0.00    +0.041 A 
ATOM     24  C   UNL     1       6.456 -12.933  -1.665  0.00  0.00    +0.158 A 
ATOM     25  C   UNL     1       5.274 -12.315  -2.043  0.00  0.00    +0.159 A 
ATOM     26  C   UNL     1       5.196 -10.933  -2.072  0.00  0.00    +0.047 A 
ATOM     27  F   UNL     1       4.198 -13.059  -2.378  0.00  0.00    -0.202 F 
ATOM     28  F   UNL     1       6.532 -14.282  -1.633  0.00  0.00    -0.202 F 
ENDBRANCH  20  21
BRANCH  20  29
ATOM     29  O   UNL     1       7.430  -8.136  -2.304  0.00  0.00    -0.389 OA
ATOM     30  H   UNL     1       8.218  -8.365  -1.792  0.00  0.00    +0.210 HD
ENDBRANCH  20  29
ENDBRANCH  19  20
ENDBRANCH   4  19
TORSDOF 7
