REMARK  Name = ZINC35048246
REMARK  4 active torsions:
REMARK  status: ('A' for Active; 'I' for Inactive)
REMARK    1  A    between atoms: C_8  and  C_21
REMARK    2  A    between atoms: N_10  and  C_12
REMARK    3  A    between atoms: C_12  and  C_13
REMARK    4  A    between atoms: C_18  and  O_19
REMARK                            x       y       z     vdW  Elec       q    Type
REMARK                         _______ _______ _______ _____ _____    ______ ____
ROOT
ATOM      1  C   UNL     1       0.545   1.639   0.723  0.00  0.00    +0.000 A 
ATOM      2  C   UNL     1       1.742   2.233   0.369  0.00  0.00    +0.000 A 
ATOM      3  C   UNL     1       2.821   1.448   0.018  0.00  0.00    +0.005 A 
ATOM      4  C   UNL     1       2.713   0.065   0.019  0.00  0.00    -0.030 A 
ATOM      5  C   UNL     1       1.520  -0.527   0.376  0.00  0.00    -0.041 A 
ATOM      6  C   UNL     1       0.435   0.263   0.726  0.00  0.00    +0.004 A 
ATOM      7  C   UNL     1       1.358  -2.025   0.404  0.00  0.00    +0.063 C 
ATOM      8  C   UNL     1       2.484  -2.687  -0.390  0.00  0.00    +0.148 C 
ATOM      9  N   UNL     1       3.768  -2.137   0.072  0.00  0.00    -0.283 NA
ATOM     10  C   UNL     1       3.917  -0.749  -0.376  0.00  0.00    +0.121 C 
ENDROOT
BRANCH   8  11
ATOM     11  C   UNL     1       2.455  -4.176  -0.164  0.00  0.00    +0.233 C 
ATOM     12  O   UNL     1       3.096  -4.664   0.744  0.00  0.00    -0.274 OA
ATOM     13  N   UNL     1       1.718  -4.967  -0.969  0.00  0.00    -0.300 N 
ATOM     14  C   UNL     1       1.619  -6.375  -0.656  0.00  0.00    +0.108 C 
ATOM     15  C   UNL     1       2.772  -7.143  -1.347  0.00  0.00    +0.019 C 
ATOM     16  C   UNL     1       2.551  -7.198  -2.800  0.00  0.00    +0.002 C 
ATOM     17  C   UNL     1       2.540  -5.835  -3.486  0.00  0.00    +0.002 C 
ATOM     18  C   UNL     1       1.158  -5.238  -3.392  0.00  0.00    +0.019 C 
ATOM     19  C   UNL     1       1.040  -4.358  -2.130  0.00  0.00    +0.108 C 
ENDBRANCH   8  11
BRANCH   9  20
ATOM     20  C   UNL     1       4.891  -2.963  -0.390  0.00  0.00    +0.124 C 
BRANCH  20  21
ATOM     21  C   UNL     1       6.132  -2.603   0.387  0.00  0.00    +0.009 A 
ATOM     22  C   UNL     1       7.075  -1.760  -0.169  0.00  0.00    +0.028 A 
ATOM     23  C   UNL     1       8.214  -1.429   0.544  0.00  0.00    +0.041 A 
ATOM     24  C   UNL     1       8.411  -1.943   1.813  0.00  0.00    +0.023 A 
ATOM     25  C   UNL     1       7.471  -2.787   2.372  0.00  0.00    +0.047 A 
ATOM     26  C   UNL     1       6.325  -3.115   1.661  0.00  0.00    +0.121 A 
ATOM     27 CL   UNL     1       9.397  -0.369  -0.156  0.00  0.00    -0.084 Cl
BRANCH  26  28
ATOM     28  O   UNL     1       5.396  -3.941   2.211  0.00  0.00    -0.506 OA
ATOM     29  H   UNL     1       5.545  -4.878   2.027  0.00  0.00    +0.292 HD
ENDBRANCH  26  28
ENDBRANCH  20  21
ENDBRANCH   9  20
TORSDOF 4
