REMARK  Name = ZINC09632179
REMARK  9 active torsions:
REMARK  status: ('A' for Active; 'I' for Inactive)
REMARK    1  A    between atoms: C_1  and  C_2
REMARK    2  A    between atoms: C_8  and  C_16
REMARK    3  A    between atoms: C_12  and  C_13
REMARK    4  A    between atoms: C_13  and  C_15
REMARK    5  A    between atoms: C_16  and  S_17
REMARK    6  A    between atoms: S_17  and  C_18
REMARK    7  A    between atoms: N_23  and  C_24
REMARK    8  A    between atoms: C_29  and  O_30
REMARK    9  A    between atoms: O_30  and  C_31
REMARK                            x       y       z     vdW  Elec       q    Type
REMARK                         _______ _______ _______ _____ _____    ______ ____
ROOT
ATOM      1  C   UNL     1      -0.464  -3.369  -4.538  0.00  0.00    +0.150 C 
ENDROOT
BRANCH   1   9
ATOM      2  C   UNL     1      -0.739   1.431   0.060  0.00  0.00    +0.046 C 
ATOM      3  C   UNL     1      -0.447  -0.047   0.031  0.00  0.00    -0.018 A 
ATOM      4  C   UNL     1      -0.487  -0.748  -1.173  0.00  0.00    +0.076 A 
ATOM      5  C   UNL     1      -0.791  -0.248  -2.535  0.00  0.00    +0.260 A 
ATOM      6  O   UNL     1      -1.054   0.926  -2.725  0.00  0.00    -0.267 OA
ATOM      7  N   UNL     1      -0.767  -1.125  -3.557  0.00  0.00    -0.310 N 
ATOM      8  H   UNL     1      -0.964  -0.814  -4.454  0.00  0.00    +0.170 HD
ATOM      9  C   UNL     1      -0.475  -2.434  -3.357  0.00  0.00    +0.121 A 
ATOM     10  N   UNL     1      -0.202  -2.907  -2.171  0.00  0.00    -0.226 NA
ATOM     11  C   UNL     1      -0.197  -2.130  -1.095  0.00  0.00    +0.116 A 
ATOM     12  S   UNL     1       0.113  -2.391   0.633  0.00  0.00    -0.065 S 
ATOM     13  C   UNL     1      -0.132  -0.715   1.196  0.00  0.00    +0.060 A 
BRANCH  13  14
ATOM     14  C   UNL     1      -0.031  -0.202   2.508  0.00  0.00    +0.167 C 
ATOM     15  O   UNL     1      -0.235   0.978   2.716  0.00  0.00    -0.292 OA
ATOM     16  C   UNL     1       0.330  -1.117   3.650  0.00  0.00    +0.092 C 
ENDBRANCH  13  14
ENDBRANCH   1   9
BRANCH   1  17
ATOM     17  S   UNL     1      -0.044  -5.043  -3.979  0.00  0.00    -0.089 S 
BRANCH  17  18
ATOM     18  C   UNL     1      -0.073  -6.005  -5.455  0.00  0.00    +0.160 A 
ATOM     19  N   UNL     1      -0.328  -5.628  -6.694  0.00  0.00    -0.133 NA
ATOM     20  N   UNL     1      -0.295  -6.554  -7.711  0.00  0.00    -0.125 NA
ATOM     21  C   UNL     1      -0.009  -7.813  -7.444  0.00  0.00    +0.187 A 
ATOM     22  S   UNL     1       0.244  -7.749  -5.676  0.00  0.00    -0.024 S 
ATOM     23  N   UNL     1       0.077  -8.899  -8.307  0.00  0.00    -0.289 N 
ATOM     24  H   UNL     1       0.214  -9.792  -7.952  0.00  0.00    +0.154 HD
BRANCH  23  25
ATOM     25  C   UNL     1      -0.032  -8.705  -9.689  0.00  0.00    +0.075 A 
ATOM     26  C   UNL     1      -0.045  -7.420 -10.212  0.00  0.00    +0.027 A 
ATOM     27  C   UNL     1      -0.153  -7.231 -11.577  0.00  0.00    +0.002 A 
ATOM     28  C   UNL     1      -0.249  -8.320 -12.424  0.00  0.00    +0.004 A 
ATOM     29  C   UNL     1      -0.237  -9.604 -11.909  0.00  0.00    +0.047 A 
ATOM     30  C   UNL     1      -0.123  -9.802 -10.543  0.00  0.00    +0.141 A 
BRANCH  30  31
ATOM     31  O   UNL     1      -0.105 -11.064 -10.037  0.00  0.00    -0.493 OA
ATOM     32  C   UNL     1      -0.202 -12.140 -10.972  0.00  0.00    +0.277 C 
ENDBRANCH  30  31
ENDBRANCH  23  25
ENDBRANCH  17  18
ENDBRANCH   1  17
TORSDOF 6
