REMARK  Name = ZINC39673689
REMARK  8 active torsions:
REMARK  status: ('A' for Active; 'I' for Inactive)
REMARK    1  A    between atoms: C_1  and  C_2
REMARK    2  A    between atoms: C_2  and  C_3
REMARK    3  A    between atoms: C_3  and  C_4
REMARK    4  A    between atoms: C_4  and  C_6
REMARK    5  A    between atoms: C_4  and  N_7
REMARK    6  A    between atoms: C_8  and  C_10
REMARK    7  A    between atoms: C_21  and  C_23
REMARK    8  A    between atoms: C_26  and  C_31
REMARK                            x       y       z     vdW  Elec       q    Type
REMARK                         _______ _______ _______ _____ _____    ______ ____
ROOT
ATOM      1  C   UNL     1       0.392  -4.261   2.569  0.00  0.00    +0.100 C 
ATOM      2  C   UNL     1      -0.659  -4.299   3.701  0.00  0.00    +0.121 C 
ATOM      3  N   UNL     1      -1.171  -5.689   3.690  0.00  0.00    -0.296 N 
ATOM      4  C   UNL     1       0.029  -6.522   3.434  0.00  0.00    +0.115 C 
ATOM      5  C   UNL     1       0.843  -5.721   2.399  0.00  0.00    -0.004 C 
ATOM      6  C   UNL     1       0.529  -6.211   0.989  0.00  0.00    -0.010 C 
ATOM      7  C   UNL     1       1.037  -7.646   0.827  0.00  0.00    -0.082 C 
ATOM      8  N   UNL     1       2.485  -7.684   1.068  0.00  0.00    +0.379 N 
ATOM      9  C   UNL     1       2.771  -7.300   2.456  0.00  0.00    -0.082 C 
ATOM     10  C   UNL     1       2.336  -5.851   2.687  0.00  0.00    -0.010 C 
ATOM     11  C   UNL     1      -2.441  -6.103   3.871  0.00  0.00    +0.250 C 
ATOM     12  O   UNL     1      -3.337  -5.288   3.975  0.00  0.00    -0.270 OA
ATOM     13  H   UNL     1       2.828  -8.618   0.901  0.00  0.00    -0.086 HD
ATOM     14  H   UNL     1       2.946  -7.042   0.441  0.00  0.00    -0.086 HD
ENDROOT
BRANCH  11  15
ATOM     15  C   UNL     1      -2.744  -7.547   3.942  0.00  0.00    +0.075 A 
ATOM     16  C   UNL     1      -1.835  -8.426   4.537  0.00  0.00    +0.016 A 
ATOM     17  C   UNL     1      -2.123  -9.773   4.601  0.00  0.00    +0.007 A 
ATOM     18  C   UNL     1      -3.309 -10.258   4.079  0.00  0.00    -0.012 A 
ATOM     19  C   UNL     1      -4.217  -9.396   3.488  0.00  0.00    +0.162 A 
ATOM     20  C   UNL     1      -3.943  -8.040   3.421  0.00  0.00    +0.171 A 
ATOM     21  F   UNL     1      -4.831  -7.196   2.850  0.00  0.00    -0.202 F 
ATOM     22  F   UNL     1      -5.372  -9.877   2.980  0.00  0.00    -0.202 F 
ATOM     23  C   UNL     1      -3.615 -11.732   4.153  0.00  0.00    +0.047 C 
ENDBRANCH  11  15
BRANCH   1  25
ATOM     24  N   UNL     1       0.520  -3.070   0.404  0.00  0.00    -0.312 N 
ATOM     25  C   UNL     1      -0.229  -3.752   1.294  0.00  0.00    +0.218 C 
ATOM     26  O   UNL     1      -1.403  -3.955   1.068  0.00  0.00    -0.275 OA
ATOM     27  H   UNL     1       1.459  -2.908   0.585  0.00  0.00    +0.149 HD
BRANCH  24  28
ATOM     28  C   UNL     1      -0.084  -2.576  -0.835  0.00  0.00    +0.070 C 
ATOM     29  C   UNL     1      -0.744  -1.220  -0.575  0.00  0.00    +0.028 C 
BRANCH  28  30
ATOM     30  C   UNL     1       1.001  -2.418  -1.903  0.00  0.00    +0.022 C 
BRANCH  30  32
ATOM     31  C   UNL     1       2.659  -3.635  -3.321  0.00  0.00    +0.004 C 
ATOM     32  C   UNL     1       1.575  -3.792  -2.253  0.00  0.00    -0.002 C 
ENDBRANCH  30  32
ENDBRANCH  28  30
ENDBRANCH  24  28
ENDBRANCH   1  25
TORSDOF 5
