REMARK  Name = ZINC12275529
REMARK  4 active torsions:
REMARK  status: ('A' for Active; 'I' for Inactive)
REMARK    1  A    between atoms: C_6  and  C_7
REMARK    2  A    between atoms: C_14  and  C_15
REMARK    3  A    between atoms: C_19  and  C_20
REMARK    4  A    between atoms: C_19  and  O_27
REMARK                            x       y       z     vdW  Elec       q    Type
REMARK                         _______ _______ _______ _____ _____    ______ ____
ROOT
ATOM      1  C   UNL     1      -2.256   2.574  -3.503  0.00  0.00    +0.070 C 
ATOM      2  C   UNL     1      -0.737   2.477  -3.604  0.00  0.00    +0.110 C 
ATOM      3  C   UNL     1      -0.159   1.696  -2.455  0.00  0.00    +0.224 C 
ATOM      4  O   UNL     1       0.750   0.914  -2.638  0.00  0.00    -0.275 OA
ATOM      5  N   UNL     1      -0.674   1.883  -1.201  0.00  0.00    -0.231 N 
ATOM      6  C   UNL     1      -1.873   2.565  -1.075  0.00  0.00    +0.087 C 
ATOM      7  C   UNL     1      -2.659   2.957  -2.108  0.00  0.00    +0.065 C 
ATOM      8  S   UNL     1      -2.147   2.796   0.658  0.00  0.00    -0.104 S 
ATOM      9  C   UNL     1      -0.689   1.897   1.311  0.00  0.00    +0.136 C 
ATOM     10  C   UNL     1      -0.017   1.425   0.010  0.00  0.00    +0.175 C 
ENDROOT
BRANCH   1  16
ATOM     11  C   UNL     1      -2.328   4.930  -4.345  0.00  0.00    +0.006 A 
ATOM     12  C   UNL     1      -2.780   5.889  -5.233  0.00  0.00    +0.020 A 
ATOM     13  C   UNL     1      -3.666   5.540  -6.236  0.00  0.00    +0.041 A 
ATOM     14  C   UNL     1      -4.096   4.230  -6.354  0.00  0.00    +0.020 A 
ATOM     15  C   UNL     1      -3.639   3.271  -5.470  0.00  0.00    +0.006 A 
ATOM     16  C   UNL     1      -2.753   3.620  -4.467  0.00  0.00    -0.039 A 
ATOM     17 CL   UNL     1      -4.239   6.745  -7.347  0.00  0.00    -0.084 Cl
ENDBRANCH   1  16
BRANCH  10  18
ATOM     18  C   UNL     1       1.406   1.920  -0.001  0.00  0.00    +0.004 A 
ATOM     19  C   UNL     1       1.710   3.134  -0.588  0.00  0.00    +0.009 A 
ATOM     20  C   UNL     1       3.014   3.592  -0.594  0.00  0.00    +0.020 A 
ATOM     21  C   UNL     1       4.017   2.830  -0.021  0.00  0.00    +0.041 A 
ATOM     22  C   UNL     1       3.713   1.612   0.562  0.00  0.00    +0.020 A 
ATOM     23  C   UNL     1       2.407   1.158   0.571  0.00  0.00    +0.009 A 
ATOM     24 CL   UNL     1       5.657   3.400  -0.034  0.00  0.00    -0.084 Cl
ENDBRANCH  10  18
BRANCH   7  25
ATOM     25  C   UNL     1      -3.851   3.715  -1.876  0.00  0.00    +0.098 C 
ATOM     26  N   UNL     1      -4.797   4.317  -1.692  0.00  0.00    -0.191 NA
ENDBRANCH   7  25
BRANCH  10  27
ATOM     27  O   UNL     1       0.002  -0.004   0.002  0.00  0.00    -0.366 OA
ATOM     28  H   UNL     1       0.466  -0.395   0.755  0.00  0.00    +0.212 HD
ENDBRANCH  10  27
TORSDOF 4
