REMARK  Name = ZINC05276089
REMARK  7 active torsions:
REMARK  status: ('A' for Active; 'I' for Inactive)
REMARK    1  A    between atoms: C_1  and  C_2
REMARK    2  A    between atoms: C_2  and  C_4
REMARK    3  A    between atoms: C_2  and  O_29
REMARK    4  A    between atoms: C_4  and  O_28
REMARK    5  A    between atoms: C_9  and  C_27
REMARK    6  A    between atoms: C_19  and  C_26
REMARK    7  A    between atoms: C_22  and  O_25
REMARK                            x       y       z     vdW  Elec       q    Type
REMARK                         _______ _______ _______ _____ _____    ______ ____
ROOT
ATOM      1  C   UNL     1       1.413   1.645  -0.017  0.00  0.00    +0.097 C 
ATOM      2  C   UNL     1       1.415   3.188  -0.180  0.00  0.00    +0.038 C 
ATOM      3  C   UNL     1       1.782   3.475  -1.660  0.00  0.00    +0.007 C 
ATOM      4  C   UNL     1       1.661   2.101  -2.337  0.00  0.00    +0.002 C 
ATOM      5  C   UNL     1       2.199   1.153  -1.247  0.00  0.00    +0.002 C 
ATOM      6  C   UNL     1       2.030  -0.295  -1.616  0.00  0.00    +0.010 C 
ATOM      7  C   UNL     1       2.100  -0.488  -3.141  0.00  0.00    +0.005 C 
ATOM      8  C   UNL     1       3.006   0.559  -3.770  0.00  0.00    +0.003 C 
ATOM      9  C   UNL     1       2.340   1.939  -3.659  0.00  0.00    +0.000 C 
ATOM     10  C   UNL     1       3.414   2.982  -3.969  0.00  0.00    +0.031 C 
ATOM     11  C   UNL     1       3.901   2.698  -5.369  0.00  0.00    -0.027 C 
ATOM     12  C   UNL     1       3.841   1.524  -5.918  0.00  0.00    -0.065 C 
ATOM     13  C   UNL     1       3.318   0.282  -5.232  0.00  0.00    -0.008 C 
ATOM     14  C   UNL     1       2.105  -0.221  -6.004  0.00  0.00    +0.014 C 
ATOM     15  C   UNL     1       1.932   0.585  -7.292  0.00  0.00    +0.032 C 
ATOM     16  C   UNL     1       3.214   0.621  -8.118  0.00  0.00    +0.119 C 
ATOM     17  C   UNL     1       4.324   1.348  -7.348  0.00  0.00    +0.062 C 
ATOM     18  C   UNL     1       4.410  -0.793  -5.282  0.00  0.00    +0.016 C 
ATOM     19  C   UNL     1       3.680   1.440  -0.938  0.00  0.00    +0.014 C 
ENDROOT
BRANCH   1  21
ATOM     20  C   UNL     1      -0.701   1.550   1.301  0.00  0.00    +0.040 C 
ATOM     21  C   UNL     1      -0.018   1.125  -0.001  0.00  0.00    +0.144 C 
BRANCH  21  22
ATOM     22  O   UNL     1      -0.735   1.666  -1.112  0.00  0.00    -0.389 OA
ATOM     23  H   UNL     1      -1.656   1.377  -1.165  0.00  0.00    +0.210 HD
ENDBRANCH  21  22
ENDBRANCH   1  21
BRANCH  16  24
ATOM     24  O   UNL     1       3.631  -0.711  -8.425  0.00  0.00    -0.391 OA
ATOM     25  H   UNL     1       4.429  -0.757  -8.969  0.00  0.00    +0.210 HD
ENDBRANCH  16  24
BRANCH   1  26
ATOM     26  O   UNL     1       2.103   1.273   1.176  0.00  0.00    -0.385 OA
ATOM     27  H   UNL     1       1.692   1.604   1.987  0.00  0.00    +0.210 HD
ENDBRANCH   1  26
TORSDOF 4
