REMARK  Name = ZINC16555523
REMARK  7 active torsions:
REMARK  status: ('A' for Active; 'I' for Inactive)
REMARK    1  A    between atoms: C_5  and  C_7
REMARK    2  A    between atoms: C_10  and  S_17
REMARK    3  A    between atoms: N_11  and  C_12
REMARK    4  A    between atoms: S_17  and  C_18
REMARK    5  A    between atoms: C_18  and  C_19
REMARK    6  A    between atoms: C_22  and  C_28
REMARK    7  A    between atoms: C_24  and  N_25
REMARK                            x       y       z     vdW  Elec       q    Type
REMARK                         _______ _______ _______ _____ _____    ______ ____
ROOT
ATOM      1  C   UNL     1      -6.484  -1.135   1.556  0.00  0.00    +0.167 A 
ATOM      2  N   UNL     1      -6.310  -1.062   0.257  0.00  0.00    -0.128 NA
ATOM      3  N   UNL     1      -5.240  -0.402  -0.006  0.00  0.00    -0.122 NA
ATOM      4  C   UNL     1      -4.658  -0.021   1.110  0.00  0.00    +0.192 A 
ATOM      5  N   UNL     1      -5.431  -0.471   2.142  0.00  0.00    -0.299 N 
ENDROOT
BRANCH   1  10
ATOM      6  C   UNL     1      -8.387  -3.281   3.981  0.00  0.00    +0.001 A 
ATOM      7  C   UNL     1      -9.690  -3.061   3.571  0.00  0.00    +0.001 A 
ATOM      8  C   UNL     1      -9.954  -2.217   2.508  0.00  0.00    +0.021 A 
ATOM      9  C   UNL     1      -8.917  -1.587   1.848  0.00  0.00    +0.052 A 
ATOM     10  C   UNL     1      -7.599  -1.805   2.257  0.00  0.00    +0.038 A 
ATOM     11  C   UNL     1      -7.341  -2.663   3.328  0.00  0.00    +0.013 A 
ATOM     12 CL   UNL     1      -9.250  -0.529   0.513  0.00  0.00    -0.083 Cl
ENDBRANCH   1  10
BRANCH   5  13
ATOM     13  C   UNL     1      -5.189  -0.285   3.575  0.00  0.00    +0.091 C 
ATOM     14  C   UNL     1      -5.139   1.219   3.912  0.00  0.00    +0.025 C 
ATOM     15  C   UNL     1      -4.036   1.329   4.995  0.00  0.00    +0.002 C 
ATOM     16  C   UNL     1      -2.980   0.303   4.514  0.00  0.00    +0.002 C 
ATOM     17  C   UNL     1      -3.817  -0.868   3.958  0.00  0.00    +0.025 C 
ENDBRANCH   5  13
BRANCH   4  18
ATOM     18  S   UNL     1      -3.164   0.903   1.248  0.00  0.00    -0.081 S 
BRANCH  18  19
ATOM     19  C   UNL     1      -2.759   1.107  -0.505  0.00  0.00    +0.114 C 
BRANCH  19  20
ATOM     20  C   UNL     1      -1.479   1.893  -0.636  0.00  0.00    -0.007 A 
ATOM     21  C   UNL     1      -1.528   3.255  -0.873  0.00  0.00    +0.007 A 
ATOM     22  C   UNL     1      -0.361   3.981  -0.988  0.00  0.00    +0.013 A 
ATOM     23  C   UNL     1       0.872   3.337  -0.870  0.00  0.00    +0.039 A 
ATOM     24  C   UNL     1       0.914   1.962  -0.636  0.00  0.00    +0.046 A 
ATOM     25  C   UNL     1      -0.261   1.248  -0.523  0.00  0.00    +0.131 A 
BRANCH  23  26
ATOM     26  C   UNL     1       2.127   4.108  -0.992  0.00  0.00    +0.242 C 
ATOM     27  O   UNL     1       3.199   3.545  -0.889  0.00  0.00    -0.270 OA
ATOM     28  N   UNL     1       2.083   5.436  -1.218  0.00  0.00    -0.325 N 
ATOM     29  H   UNL     1       1.227   5.886  -1.300  0.00  0.00    +0.145 HD
ATOM     30  H   UNL     1       2.906   5.942  -1.298  0.00  0.00    +0.145 HD
ENDBRANCH  23  26
BRANCH  25  31
ATOM     31  N   UNL     1      -0.217  -0.211  -0.276  0.00  0.00    +0.057 N 
ATOM     32  O   UNL     1       0.848  -0.801  -0.298  0.00  0.00    -0.126 OA
ATOM     33  O   UNL     1      -1.247  -0.821  -0.050  0.00  0.00    -0.126 OA
ENDBRANCH  25  31
ENDBRANCH  19  20
ENDBRANCH  18  19
ENDBRANCH   4  18
TORSDOF 7
