REMARK  Name = ZINC25530025
REMARK  11 active torsions:
REMARK  status: ('A' for Active; 'I' for Inactive)
REMARK    1  A    between atoms: C_1  and  C_2
REMARK    2  A    between atoms: C_3  and  C_13
REMARK    3  A    between atoms: C_7  and  S_9
REMARK    4  A    between atoms: S_9  and  C_10
REMARK    5  A    between atoms: C_13  and  C_14
REMARK    6  A    between atoms: C_14  and  C_15
REMARK    7  A    between atoms: N_17  and  N_18
REMARK    8  A    between atoms: C_19  and  C_21
REMARK    9  A    between atoms: C_21  and  O_22
REMARK   10  A    between atoms: O_22  and  C_23
REMARK   11  A    between atoms: C_28  and  C_29
REMARK                            x       y       z     vdW  Elec       q    Type
REMARK                         _______ _______ _______ _____ _____    ______ ____
ROOT
ATOM      1  C   UNL     1       5.396   3.125   1.406  0.00  0.00    +0.229 C 
ATOM      2  O   UNL     1       5.854   3.527   0.357  0.00  0.00    -0.274 OA
ATOM      3  N   UNL     1       6.033   3.387   2.564  0.00  0.00    -0.234 N 
ATOM      4  H   UNL     1       5.617   3.023   3.515  0.00  0.00    +0.173 HD
ENDROOT
BRANCH   3   5
ATOM      5  N   UNL     1       7.225   4.123   2.557  0.00  0.00    -0.232 N 
ATOM      6  C   UNL     1       7.862   4.385   3.716  0.00  0.00    +0.267 C 
ATOM      7  O   UNL     1       7.404   3.983   4.764  0.00  0.00    -0.271 OA
ATOM      8  H   UNL     1       7.640   4.488   1.606  0.00  0.00    +0.173 HD
BRANCH   6   9
ATOM      9  C   UNL     1       9.144   5.178   3.708  0.00  0.00    +0.326 C 
BRANCH   9  10
ATOM     10  O   UNL     1       9.623   5.321   5.047  0.00  0.00    -0.482 OA
BRANCH  10  11
ATOM     11  C   UNL     1      10.778   6.015   5.217  0.00  0.00    +0.129 A 
ATOM     12  C   UNL     1      11.438   6.547   4.121  0.00  0.00    +0.046 A 
ATOM     13  C   UNL     1      12.613   7.253   4.295  0.00  0.00    +0.004 A 
ATOM     14  C   UNL     1      13.138   7.433   5.563  0.00  0.00    +0.001 A 
ATOM     15  C   UNL     1      12.491   6.909   6.664  0.00  0.00    +0.012 A 
ATOM     16  C   UNL     1      11.303   6.200   6.500  0.00  0.00    +0.024 A 
BRANCH  16  17
ATOM     17  C   UNL     1      10.600   5.640   7.680  0.00  0.00    -0.014 A 
ATOM     18  C   UNL     1       9.238   5.875   7.860  0.00  0.00    +0.008 A 
ATOM     19  C   UNL     1       8.588   5.346   8.957  0.00  0.00    +0.001 A 
ATOM     20  C   UNL     1       9.289   4.595   9.883  0.00  0.00    +0.000 A 
ATOM     21  C   UNL     1      10.642   4.363   9.712  0.00  0.00    +0.001 A 
ATOM     22  C   UNL     1      11.301   4.881   8.616  0.00  0.00    +0.008 A 
ENDBRANCH  16  17
ENDBRANCH  10  11
ENDBRANCH   9  10
ENDBRANCH   6   9
ENDBRANCH   3   5
BRANCH   1  23
ATOM     23  C   UNL     1       4.114   2.333   1.413  0.00  0.00    +0.102 C 
BRANCH  23  24
ATOM     24  C   UNL     1       3.601   2.179  -0.020  0.00  0.00    +0.052 C 
BRANCH  24  27
ATOM     25  C   UNL     1       1.053   3.528   0.011  0.00  0.00    +0.066 C 
ATOM     26  C   UNL     1       1.111   2.022   0.002  0.00  0.00    +0.049 A 
ATOM     27  C   UNL     1       2.319   1.387  -0.013  0.00  0.00    +0.040 A 
ATOM     28  C   UNL     1       2.348  -0.019  -0.020  0.00  0.00    +0.277 A 
ATOM     29  O   UNL     1       3.410  -0.619  -0.033  0.00  0.00    -0.265 OA
ATOM     30  N   UNL     1       1.177  -0.692  -0.012  0.00  0.00    -0.183 NA
ATOM     31  C   UNL     1       0.002  -0.004   0.002  0.00  0.00    +0.197 A 
ATOM     32  N   UNL     1      -0.016   1.315   0.009  0.00  0.00    -0.227 NA
BRANCH  31  33
ATOM     33  S   UNL     1      -1.520  -0.891   0.012  0.00  0.00    -0.016 S 
BRANCH  33  34
ATOM     34  C   UNL     1      -2.689   0.491   0.030  0.00  0.00    +0.407 C 
ATOM     35  F   UNL     1      -2.476   1.267   1.175  0.00  0.00    -0.196 F 
ATOM     36  F   UNL     1      -2.498   1.279  -1.110  0.00  0.00    -0.196 F 
ENDBRANCH  33  34
ENDBRANCH  31  33
ENDBRANCH  24  27
ENDBRANCH  23  24
ENDBRANCH   1  23
TORSDOF 10
