REMARK  Name = ZINC34814711
REMARK  5 active torsions:
REMARK  status: ('A' for Active; 'I' for Inactive)
REMARK    1  A    between atoms: C_1  and  C_2
REMARK    2  A    between atoms: C_12  and  O_34
REMARK    3  A    between atoms: N_21  and  S_24
REMARK    4  A    between atoms: S_24  and  C_27
REMARK    5  A    between atoms: O_34  and  C_35
REMARK                            x       y       z     vdW  Elec       q    Type
REMARK                         _______ _______ _______ _____ _____    ______ ____
ROOT
ATOM      1  C   UNL     1      -0.018   1.503   0.010  0.00  0.00    +0.044 C 
ATOM      2  C   UNL     1       0.002  -0.004   0.002  0.00  0.00    -0.047 A 
ATOM      3  C   UNL     1       0.006  -0.690  -1.198  0.00  0.00    +0.005 A 
ATOM      4  C   UNL     1       0.025  -2.068  -1.198  0.00  0.00    +0.027 A 
ATOM      5  C   UNL     1       0.041  -2.781   0.003  0.00  0.00    +0.075 A 
ATOM      6  C   UNL     1       0.037  -2.098   1.204  0.00  0.00    +0.150 A 
ATOM      7  C   UNL     1       0.023  -0.700   1.191  0.00  0.00    +0.051 A 
ATOM      8  O   UNL     1       0.049  -2.676   2.425  0.00  0.00    -0.453 OA
ATOM      9  C   UNL     1       0.897  -3.668   2.770  0.00  0.00    +0.139 A 
ATOM     10  C   UNL     1       1.858  -3.497   3.751  0.00  0.00    +0.050 A 
ATOM     11  C   UNL     1       2.666  -4.558   4.114  0.00  0.00    +0.049 A 
ATOM     12  C   UNL     1       2.518  -5.796   3.504  0.00  0.00    +0.121 A 
ATOM     13  C   UNL     1       1.575  -5.973   2.504  0.00  0.00    +0.060 A 
ATOM     14  C   UNL     1       0.779  -4.899   2.118  0.00  0.00    +0.059 A 
ATOM     15  C   UNL     1      -0.146  -5.008   0.969  0.00  0.00    +0.110 C 
ATOM     16  N   UNL     1       0.060  -4.180  -0.113  0.00  0.00    -0.298 N 
ATOM     17  N   UNL     1      -1.128  -5.864   0.979  0.00  0.00    -0.357 N 
ATOM     18  C   UNL     1      -1.997  -5.938  -0.161  0.00  0.00    +0.119 C 
ATOM     19  C   UNL     1      -3.107  -4.889   0.020  0.00  0.00    +0.038 C 
ATOM     20  C   UNL     1      -4.144  -5.346   0.959  0.00  0.00    +0.111 C 
ATOM     21  N   UNL     1      -3.545  -5.652   2.279  0.00  0.00    -0.175 NA
ATOM     22  C   UNL     1      -2.825  -6.879   2.475  0.00  0.00    +0.130 C 
ATOM     23  C   UNL     1      -1.310  -6.738   2.170  0.00  0.00    +0.134 C 
ATOM     24  H   UNL     1       0.223  -4.577  -0.983  0.00  0.00    +0.154 HD
ENDROOT
BRANCH  21  25
ATOM     25  S   UNL     1      -3.706  -4.579   3.530  0.00  0.00    +0.061 S 
ATOM     26  O   UNL     1      -2.628  -4.830   4.421  0.00  0.00    -0.153 OA
ATOM     27  O   UNL     1      -3.929  -3.304   2.944  0.00  0.00    -0.153 OA
BRANCH  25  28
ATOM     28  C   UNL     1      -5.182  -5.003   4.393  0.00  0.00    +0.106 A 
ATOM     29  C   UNL     1      -6.388  -4.439   4.018  0.00  0.00    +0.030 A 
ATOM     30  C   UNL     1      -7.546  -4.771   4.695  0.00  0.00    +0.022 A 
ATOM     31  C   UNL     1      -7.499  -5.667   5.748  0.00  0.00    +0.041 A 
ATOM     32  C   UNL     1      -6.293  -6.230   6.123  0.00  0.00    +0.022 A 
ATOM     33  C   UNL     1      -5.136  -5.902   5.442  0.00  0.00    +0.030 A 
ATOM     34 CL   UNL     1      -8.954  -6.084   6.599  0.00  0.00    -0.084 Cl
ENDBRANCH  25  28
ENDBRANCH  21  25
BRANCH  12  35
ATOM     35  O   UNL     1       3.302  -6.839   3.888  0.00  0.00    -0.495 OA
ATOM     36  C   UNL     1       4.254  -6.588   4.924  0.00  0.00    +0.277 C 
ENDBRANCH  12  35
TORSDOF 3
