REMARK  Name = ZINC63480061
REMARK  5 active torsions:
REMARK  status: ('A' for Active; 'I' for Inactive)
REMARK    1  A    between atoms: C_1  and  C_2
REMARK    2  A    between atoms: C_5  and  N_9
REMARK    3  A    between atoms: C_7  and  C_8
REMARK    4  A    between atoms: C_14  and  C_31
REMARK    5  A    between atoms: C_31  and  C_32
REMARK                            x       y       z     vdW  Elec       q    Type
REMARK                         _______ _______ _______ _____ _____    ______ ____
ROOT
ATOM      1  N   UNL     1       0.059  -4.172  -0.021  0.00  0.00    -0.210 N 
ATOM      2  C   UNL     1       0.167  -4.901   1.096  0.00  0.00    +0.232 C 
ATOM      3  O   UNL     1       0.257  -4.452   2.219  0.00  0.00    -0.274 OA
ATOM      4  C   UNL     1       0.157  -6.370   0.741  0.00  0.00    +0.107 C 
ATOM      5  C   UNL     1       1.552  -6.968   1.023  0.00  0.00    +0.072 C 
ATOM      6  N   UNL     1       1.869  -7.780  -0.182  0.00  0.00    -0.295 NA
ATOM      7  C   UNL     1       1.346  -6.979  -1.305  0.00  0.00    +0.136 C 
ATOM      8  C   UNL     1       0.016  -6.363  -0.807  0.00  0.00    +0.123 C 
ATOM      9  C   UNL     1      -0.036  -4.891  -1.146  0.00  0.00    +0.233 C 
ATOM     10  O   UNL     1      -0.143  -4.433  -2.263  0.00  0.00    -0.274 OA
ATOM     11  C   UNL     1       2.326  -5.925  -1.733  0.00  0.00    +0.003 A 
ATOM     12  C   UNL     1       2.922  -4.864  -1.087  0.00  0.00    +0.008 A 
ATOM     13  C   UNL     1       3.808  -4.048  -1.767  0.00  0.00    +0.000 A 
ATOM     14  C   UNL     1       4.095  -4.300  -3.097  0.00  0.00    +0.002 A 
ATOM     15  C   UNL     1       3.501  -5.361  -3.748  0.00  0.00    +0.023 A 
ATOM     16  C   UNL     1       2.607  -6.188  -3.071  0.00  0.00    +0.039 A 
ATOM     17  N   UNL     1       1.890  -7.305  -3.505  0.00  0.00    -0.283 N 
ATOM     18  C   UNL     1       1.126  -7.829  -2.527  0.00  0.00    +0.243 C 
ATOM     19  O   UNL     1       0.401  -8.797  -2.615  0.00  0.00    -0.273 OA
ATOM     20  H   UNL     1       2.864  -7.921  -0.271  0.00  0.00    +0.124 HD
ATOM     21  H   UNL     1       1.937  -7.662  -4.405  0.00  0.00    +0.155 HD
ENDROOT
BRANCH   1  26
ATOM     22  C   UNL     1      -0.016   1.503   0.009  0.00  0.00    +0.044 C 
ATOM     23  C   UNL     1       0.004  -0.004   0.001  0.00  0.00    -0.047 A 
ATOM     24  C   UNL     1       1.154  -0.681   0.365  0.00  0.00    +0.005 A 
ATOM     25  C   UNL     1       1.175  -2.062   0.359  0.00  0.00    +0.024 A 
ATOM     26  C   UNL     1       0.040  -2.771  -0.013  0.00  0.00    +0.044 A 
ATOM     27  C   UNL     1      -1.113  -2.088  -0.378  0.00  0.00    +0.027 A 
ATOM     28  C   UNL     1      -1.129  -0.707  -0.365  0.00  0.00    -0.046 A 
ATOM     29  C   UNL     1      -2.382   0.034  -0.755  0.00  0.00    +0.044 C 
ENDBRANCH   1  26
BRANCH   5  30
ATOM     30  C   UNL     1       1.509  -7.855   2.269  0.00  0.00    +0.052 C 
BRANCH  30  31
ATOM     31  C   UNL     1       2.902  -8.329   2.596  0.00  0.00    -0.040 C 
ATOM     32  C   UNL     1       3.767  -7.768   3.473  0.00  0.00    -0.001 A 
ATOM     33  C   UNL     1       3.673  -6.594   4.349  0.00  0.00    +0.010 A 
ATOM     34  C   UNL     1       4.728  -6.274   5.132  0.00  0.00    +0.001 A 
ATOM     35  C   UNL     1       5.907  -7.033   5.127  0.00  0.00    +0.002 A 
ATOM     36  C   UNL     1       6.068  -8.124   4.349  0.00  0.00    +0.026 A 
ATOM     37  C   UNL     1       5.021  -8.553   3.486  0.00  0.00    +0.043 A 
ATOM     38  N   UNL     1       4.936  -9.560   2.651  0.00  0.00    -0.380 N 
ATOM     39  C   UNL     1       3.614  -9.530   2.016  0.00  0.00    +0.144 C 
ATOM     40  H   UNL     1       5.630 -10.216   2.483  0.00  0.00    +0.160 HD
ENDBRANCH  30  31
ENDBRANCH   5  30
TORSDOF 3
