REMARK  Name = ZINC30962030
REMARK  11 active torsions:
REMARK  status: ('A' for Active; 'I' for Inactive)
REMARK    1  A    between atoms: C_1  and  C_2
REMARK    2  A    between atoms: C_2  and  C_3
REMARK    3  A    between atoms: C_2  and  C_4
REMARK    4  A    between atoms: C_4  and  C_6
REMARK    5  A    between atoms: C_4  and  N_29
REMARK    6  A    between atoms: N_8  and  N_9
REMARK    7  A    between atoms: C_10  and  C_11
REMARK    8  A    between atoms: N_13  and  C_20
REMARK    9  A    between atoms: C_20  and  C_21
REMARK   10  A    between atoms: C_26  and  C_27
REMARK   11  A    between atoms: C_30  and  C_32
REMARK                            x       y       z     vdW  Elec       q    Type
REMARK                         _______ _______ _______ _____ _____    ______ ____
ROOT
ATOM      1  N   UNL     1       5.373   4.575   0.428  0.00  0.00    -0.188 NA
ATOM      2  C   UNL     1       4.100   4.761   0.606  0.00  0.00    +0.140 C 
ENDROOT
BRANCH   2   3
ATOM      3  C   UNL     1       3.126   3.982  -0.176  0.00  0.00    +0.020 A 
ATOM      4  C   UNL     1       3.367   2.832  -0.862  0.00  0.00    +0.096 A 
ATOM      5  N   UNL     1       2.221   2.407  -1.464  0.00  0.00    -0.342 N 
ATOM      6  C   UNL     1       1.184   3.271  -1.180  0.00  0.00    +0.050 A 
ATOM      7  C   UNL     1       1.698   4.292  -0.364  0.00  0.00    +0.009 A 
ATOM      8  C   UNL     1       0.864   5.315   0.082  0.00  0.00    +0.010 A 
ATOM      9  C   UNL     1      -0.465   5.319  -0.281  0.00  0.00    +0.001 A 
ATOM     10  C   UNL     1      -0.974   4.311  -1.088  0.00  0.00    +0.002 A 
ATOM     11  C   UNL     1      -0.161   3.293  -1.536  0.00  0.00    +0.026 A 
BRANCH   5  12
ATOM     12  C   UNL     1       2.106   1.203  -2.291  0.00  0.00    +0.158 C 
BRANCH  12  13
ATOM     13  C   UNL     1       2.263   1.574  -3.743  0.00  0.00    -0.010 A 
ATOM     14  C   UNL     1       1.148   1.814  -4.520  0.00  0.00    +0.006 A 
ATOM     15  C   UNL     1       1.291   2.154  -5.854  0.00  0.00    +0.000 A 
ATOM     16  C   UNL     1       2.550   2.256  -6.417  0.00  0.00    +0.001 A 
ATOM     17  C   UNL     1       3.673   2.019  -5.652  0.00  0.00    +0.019 A 
ATOM     18  C   UNL     1       3.537   1.681  -4.304  0.00  0.00    +0.057 A 
BRANCH  18  19
ATOM     19  C   UNL     1       4.698   1.439  -3.502  0.00  0.00    +0.099 C 
ATOM     20  N   UNL     1       5.620   1.247  -2.866  0.00  0.00    -0.191 NA
ENDBRANCH  18  19
ENDBRANCH  12  13
ENDBRANCH   5  12
ENDBRANCH   2   3
BRANCH   1  23
ATOM     21  C   UNL     1       7.136   3.605  -0.844  0.00  0.00    +0.253 C 
ATOM     22  O   UNL     1       7.517   2.950  -1.793  0.00  0.00    -0.272 OA
ATOM     23  N   UNL     1       5.831   3.917  -0.722  0.00  0.00    -0.205 N 
ATOM     24  H   UNL     1       5.125   3.656  -1.524  0.00  0.00    +0.177 HD
BRANCH  21  25
ATOM     25  C   UNL     1       8.123   4.068   0.196  0.00  0.00    +0.163 C 
BRANCH  25  26
ATOM     26  N   UNL     1       9.373   4.463  -0.458  0.00  0.00    -0.300 N 
ATOM     27  C   UNL     1      10.194   5.350   0.139  0.00  0.00    +0.245 C 
ATOM     28  O   UNL     1       9.897   5.822   1.219  0.00  0.00    -0.270 OA
ATOM     29  H   UNL     1       9.641   4.037  -1.435  0.00  0.00    +0.150 HD
BRANCH  27  30
ATOM     30  C   UNL     1      11.455   5.750  -0.521  0.00  0.00    +0.038 A 
ATOM     31  C   UNL     1      12.308   6.668   0.094  0.00  0.00    +0.013 A 
ATOM     32  C   UNL     1      13.483   7.037  -0.526  0.00  0.00    +0.002 A 
ATOM     33  C   UNL     1      13.819   6.498  -1.756  0.00  0.00    +0.020 A 
ATOM     34  C   UNL     1      12.979   5.586  -2.372  0.00  0.00    +0.042 A 
ATOM     35  C   UNL     1      11.801   5.206  -1.759  0.00  0.00    +0.033 A 
ATOM     36 CL   UNL     1      13.409   4.915  -3.914  0.00  0.00    -0.084 Cl
ENDBRANCH  27  30
ENDBRANCH  25  26
BRANCH  25  38
ATOM     37  C   UNL     1       7.107   2.558   1.909  0.00  0.00    +0.009 C 
ATOM     38  C   UNL     1       8.400   2.928   1.179  0.00  0.00    +0.012 C 
ATOM     39  C   UNL     1       8.921   1.710   0.414  0.00  0.00    +0.009 C 
ENDBRANCH  25  38
ENDBRANCH  21  25
ENDBRANCH   1  23
TORSDOF 9
