REMARK  Name = ZINC15772098
REMARK  6 active torsions:
REMARK  status: ('A' for Active; 'I' for Inactive)
REMARK    1  A    between atoms: C_1  and  C_2
REMARK    2  A    between atoms: C_5  and  N_8
REMARK    3  A    between atoms: C_9  and  C_32
REMARK    4  A    between atoms: C_11  and  C_26
REMARK    5  A    between atoms: C_14  and  N_18
REMARK    6  A    between atoms: N_19  and  C_20
REMARK                            x       y       z     vdW  Elec       q    Type
REMARK                         _______ _______ _______ _____ _____    ______ ____
ROOT
ATOM      1  N   UNL     1       0.660  -4.773   0.320  0.00  0.00    -0.267 N 
ATOM      2  C   UNL     1       1.075  -5.758  -0.540  0.00  0.00    +0.047 C 
ATOM      3  C   UNL     1       1.082  -7.064  -0.151  0.00  0.00    +0.033 C 
ATOM      4  C   UNL     1       0.660  -7.413   1.148  0.00  0.00    -0.011 C 
ATOM      5  C   UNL     1       0.241  -6.418   2.020  0.00  0.00    -0.016 C 
ATOM      6  C   UNL     1       0.246  -5.084   1.599  0.00  0.00    +0.065 C 
ATOM      7  C   UNL     1      -0.168  -4.061   2.454  0.00  0.00    +0.085 C 
ATOM      8  C   UNL     1      -0.624  -4.366   3.856  0.00  0.00    +0.059 C 
ATOM      9  C   UNL     1      -1.240  -5.767   3.896  0.00  0.00    +0.011 C 
ATOM     10  C   UNL     1      -0.211  -6.783   3.410  0.00  0.00    +0.038 C 
ENDROOT
BRANCH   1  15
ATOM     11  C   UNL     1       0.667   0.635  -1.390  0.00  0.00    +0.044 C 
ATOM     12  C   UNL     1       0.665  -0.801  -0.935  0.00  0.00    -0.050 A 
ATOM     13  C   UNL     1      -0.377  -1.637  -1.294  0.00  0.00    +0.005 A 
ATOM     14  C   UNL     1      -0.382  -2.954  -0.879  0.00  0.00    +0.024 A 
ATOM     15  C   UNL     1       0.662  -3.440  -0.102  0.00  0.00    +0.039 A 
ATOM     16  C   UNL     1       1.708  -2.598   0.256  0.00  0.00    +0.024 A 
ATOM     17  C   UNL     1       1.709  -1.283  -0.166  0.00  0.00    +0.005 A 
ENDBRANCH   1  15
BRANCH   4  18
ATOM     18  C   UNL     1       0.665  -8.831   1.579  0.00  0.00    -0.018 A 
ATOM     19  C   UNL     1       1.511  -9.248   2.607  0.00  0.00    +0.008 A 
ATOM     20  C   UNL     1       1.510 -10.569   3.003  0.00  0.00    +0.001 A 
ATOM     21  C   UNL     1       0.673 -11.480   2.384  0.00  0.00    +0.000 A 
ATOM     22  C   UNL     1      -0.167 -11.073   1.363  0.00  0.00    +0.001 A 
ATOM     23  C   UNL     1      -0.180  -9.753   0.962  0.00  0.00    +0.008 A 
ENDBRANCH   4  18
BRANCH   2  24
ATOM     24  C   UNL     1       1.518  -5.399  -1.903  0.00  0.00    -0.003 A 
ATOM     25  C   UNL     1       2.468  -4.393  -2.090  0.00  0.00    +0.010 A 
ATOM     26  C   UNL     1       2.877  -4.063  -3.365  0.00  0.00    +0.001 A 
ATOM     27  C   UNL     1       2.349  -4.726  -4.458  0.00  0.00    +0.000 A 
ATOM     28  C   UNL     1       1.407  -5.724  -4.280  0.00  0.00    +0.001 A 
ATOM     29  C   UNL     1       0.993  -6.069  -3.010  0.00  0.00    +0.010 A 
ENDBRANCH   2  24
BRANCH   7  30
ATOM     30  N   UNL     1      -0.158  -2.806   2.027  0.00  0.00    -0.152 NA
ATOM     31  N   UNL     1      -1.234  -2.279   1.549  0.00  0.00    -0.150 NA
BRANCH  31  32
ATOM     32  C   UNL     1      -1.319  -0.927   1.387  0.00  0.00    +0.086 A 
ATOM     33  C   UNL     1      -0.297  -0.097   1.861  0.00  0.00    +0.029 A 
ATOM     34  C   UNL     1      -0.389   1.268   1.693  0.00  0.00    +0.002 A 
ATOM     35  C   UNL     1      -1.489   1.818   1.057  0.00  0.00    +0.000 A 
ATOM     36  C   UNL     1      -2.504   1.004   0.586  0.00  0.00    +0.002 A 
ATOM     37  C   UNL     1      -2.424  -0.364   0.741  0.00  0.00    +0.029 A 
ENDBRANCH  31  32
ENDBRANCH   7  30
TORSDOF 5
