REMARK  Name = ZINC13128956
REMARK  13 active torsions:
REMARK  status: ('A' for Active; 'I' for Inactive)
REMARK    1  A    between atoms: C_1  and  C_2
REMARK    2  A    between atoms: C_2  and  C_4
REMARK    3  A    between atoms: C_2  and  O_37
REMARK    4  A    between atoms: C_4  and  C_6
REMARK    5  A    between atoms: C_4  and  N_23
REMARK    6  A    between atoms: C_6  and  O_8
REMARK    7  A    between atoms: O_8  and  C_9
REMARK    8  A    between atoms: C_9  and  C_10
REMARK    9  A    between atoms: N_12  and  C_13
REMARK   10  A    between atoms: C_18  and  O_19
REMARK   11  A    between atoms: O_19  and  C_20
REMARK   12  A    between atoms: N_23  and  S_24
REMARK   13  A    between atoms: S_24  and  C_27
REMARK                            x       y       z     vdW  Elec       q    Type
REMARK                         _______ _______ _______ _____ _____    ______ ____
ROOT
ATOM      1  C   UNL     1      -8.628  -1.680  -0.538  0.00  0.00    +0.213 C 
ENDROOT
BRANCH   1   3
ATOM      2  C   UNL     1      -7.310  -3.676  -1.260  0.00  0.00    +0.040 C 
ATOM      3  C   UNL     1      -8.336  -2.629  -1.701  0.00  0.00    +0.141 C 
BRANCH   3   4
ATOM      4  O   UNL     1      -7.813  -1.885  -2.804  0.00  0.00    -0.390 OA
ATOM      5  H   UNL     1      -8.411  -1.202  -3.136  0.00  0.00    +0.210 HD
ENDBRANCH   3   4
ENDBRANCH   1   3
BRANCH   1   6
ATOM      6  C   UNL     1      -7.400  -0.860  -0.238  0.00  0.00    +0.329 C 
ATOM      7  O   UNL     1      -7.443   0.345  -0.319  0.00  0.00    -0.249 OA
BRANCH   6   8
ATOM      8  O   UNL     1      -6.258  -1.468   0.119  0.00  0.00    -0.454 OA
BRANCH   8   9
ATOM      9  C   UNL     1      -5.114  -0.615   0.393  0.00  0.00    +0.328 C 
BRANCH   9  10
ATOM     10  C   UNL     1      -3.932  -1.467   0.775  0.00  0.00    +0.255 C 
ATOM     11  O   UNL     1      -4.042  -2.675   0.812  0.00  0.00    -0.272 OA
ATOM     12  N   UNL     1      -2.752  -0.888   1.075  0.00  0.00    -0.280 N 
ATOM     13  H   UNL     1      -2.685   0.078   1.122  0.00  0.00    +0.155 HD
BRANCH  12  14
ATOM     14  C   UNL     1      -1.624  -1.682   1.317  0.00  0.00    +0.076 A 
ATOM     15  C   UNL     1      -1.553  -2.967   0.800  0.00  0.00    +0.027 A 
ATOM     16  C   UNL     1      -0.439  -3.748   1.040  0.00  0.00    +0.002 A 
ATOM     17  C   UNL     1       0.608  -3.252   1.794  0.00  0.00    +0.004 A 
ATOM     18  C   UNL     1       0.547  -1.970   2.309  0.00  0.00    +0.048 A 
ATOM     19  C   UNL     1      -0.569  -1.183   2.077  0.00  0.00    +0.148 A 
BRANCH  19  20
ATOM     20  O   UNL     1      -0.632   0.077   2.587  0.00  0.00    -0.432 OA
BRANCH  20  21
ATOM     21  C   UNL     1       0.486   0.522   3.357  0.00  0.00    +0.541 C 
ATOM     22  F   UNL     1       0.658  -0.321   4.460  0.00  0.00    -0.166 F 
ATOM     23  F   UNL     1       1.639   0.494   2.564  0.00  0.00    -0.166 F 
ENDBRANCH  20  21
ENDBRANCH  19  20
ENDBRANCH  12  14
ENDBRANCH   9  10
ENDBRANCH   8   9
ENDBRANCH   6   8
ENDBRANCH   1   6
BRANCH   1  24
ATOM     24  N   UNL     1      -9.733  -0.789  -0.900  0.00  0.00    -0.174 NA
ATOM     25  H   UNL     1      -9.558   0.023  -1.401  0.00  0.00    +0.149 HD
BRANCH  24  26
ATOM     26  S   UNL     1     -11.283  -1.169  -0.456  0.00  0.00    +0.059 S 
ATOM     27  O   UNL     1     -12.110  -0.114  -0.927  0.00  0.00    -0.153 OA
ATOM     28  O   UNL     1     -11.491  -2.525  -0.827  0.00  0.00    -0.153 OA
BRANCH  26  29
ATOM     29  C   UNL     1     -11.348  -1.113   1.304  0.00  0.00    +0.106 A 
ATOM     30  C   UNL     1     -11.078  -2.267   2.038  0.00  0.00    +0.029 A 
ATOM     31  C   UNL     1     -11.114  -2.256   3.398  0.00  0.00    +0.010 A 
ATOM     32  C   UNL     1     -11.441  -1.069   4.076  0.00  0.00    -0.018 A 
ATOM     33  C   UNL     1     -11.495  -1.022   5.480  0.00  0.00    +0.008 A 
ATOM     34  C   UNL     1     -11.815   0.145   6.102  0.00  0.00    +0.001 A 
ATOM     35  C   UNL     1     -12.091   1.298   5.368  0.00  0.00    +0.001 A 
ATOM     36  C   UNL     1     -12.048   1.289   4.008  0.00  0.00    +0.008 A 
ATOM     37  C   UNL     1     -11.721   0.102   3.330  0.00  0.00    -0.016 A 
ATOM     38  C   UNL     1     -11.668   0.054   1.926  0.00  0.00    +0.037 A 
ENDBRANCH  26  29
ENDBRANCH  24  26
ENDBRANCH   1  24
TORSDOF 12
