REMARK  Name = ZINC39674554
REMARK  8 active torsions:
REMARK  status: ('A' for Active; 'I' for Inactive)
REMARK    1  A    between atoms: C_1  and  C_2
REMARK    2  A    between atoms: C_6  and  C_7
REMARK    3  A    between atoms: C_11  and  C_20
REMARK    4  A    between atoms: N_22  and  C_23
REMARK    5  A    between atoms: C_23  and  C_25
REMARK    6  A    between atoms: C_23  and  C_26
REMARK    7  A    between atoms: C_27  and  C_33
REMARK    8  A    between atoms: C_30  and  C_32
REMARK                            x       y       z     vdW  Elec       q    Type
REMARK                         _______ _______ _______ _____ _____    ______ ____
ROOT
ATOM      1  C   UNL     1      -0.099  -0.738   2.288  0.00  0.00    +0.254 C 
ATOM      2  O   UNL     1      -0.136   0.456   2.521  0.00  0.00    -0.269 OA
ATOM      3  N   UNL     1      -0.336  -1.625   3.274  0.00  0.00    -0.296 N 
ATOM      4  C   UNL     1      -0.230  -3.102   3.212  0.00  0.00    +0.121 C 
ATOM      5  C   UNL     1       0.383  -3.506   4.572  0.00  0.00    +0.100 C 
ATOM      6  C   UNL     1       0.028  -2.350   5.522  0.00  0.00    -0.004 C 
ATOM      7  C   UNL     1      -0.757  -1.344   4.667  0.00  0.00    +0.115 C 
ATOM      8  C   UNL     1       1.299  -1.698   6.059  0.00  0.00    -0.010 C 
ATOM      9  C   UNL     1       0.920  -0.589   7.044  0.00  0.00    -0.082 C 
ATOM     10  N   UNL     1       0.135  -1.158   8.146  0.00  0.00    +0.379 N 
ATOM     11  C   UNL     1      -1.129  -1.700   7.632  0.00  0.00    -0.082 C 
ATOM     12  C   UNL     1      -0.837  -2.856   6.671  0.00  0.00    -0.010 C 
ATOM     13  H   UNL     1       0.662  -1.897   8.587  0.00  0.00    -0.086 HD
ATOM     14  H   UNL     1      -0.061  -0.438   8.825  0.00  0.00    -0.086 HD
ENDROOT
BRANCH   1  20
ATOM     15  C   UNL     1       0.766   1.014  -0.139  0.00  0.00    +0.045 C 
ATOM     16  C   UNL     1       0.592  -0.482  -0.181  0.00  0.00    -0.031 A 
ATOM     17  C   UNL     1       0.812  -1.212  -1.324  0.00  0.00    +0.011 A 
ATOM     18  C   UNL     1       0.637  -2.556  -1.292  0.00  0.00    +0.046 A 
ATOM     19  S   UNL     1       0.168  -2.873   0.289  0.00  0.00    -0.092 S 
ATOM     20  C   UNL     1       0.204  -1.211   0.933  0.00  0.00    +0.077 A 
ENDBRANCH   1  20
BRANCH   5  21
ATOM     21  C   UNL     1      -0.227  -4.795   5.060  0.00  0.00    +0.219 C 
ATOM     22  O   UNL     1      -1.368  -5.078   4.760  0.00  0.00    -0.275 OA
ATOM     23  N   UNL     1       0.495  -5.634   5.829  0.00  0.00    -0.309 N 
ATOM     24  H   UNL     1       1.407  -5.408   6.069  0.00  0.00    +0.149 HD
BRANCH  23  25
ATOM     25  C   UNL     1      -0.098  -6.886   6.303  0.00  0.00    +0.100 C 
ATOM     26  C   UNL     1      -0.887  -6.623   7.587  0.00  0.00    +0.033 C 
BRANCH  25  27
ATOM     27  C   UNL     1       0.995  -7.886   6.582  0.00  0.00    -0.001 C 
ATOM     28  C   UNL     1       1.145  -9.107   6.063  0.00  0.00    +0.063 C 
ATOM     29  N   UNL     1       2.251  -9.706   6.557  0.00  0.00    -0.159 NA
ATOM     30  N   UNL     1       2.885  -9.024   7.366  0.00  0.00    -0.180 NA
ATOM     31  C   UNL     1       2.186  -7.736   7.512  0.00  0.00    +0.154 C 
ATOM     32  C   UNL     1       1.722  -7.536   8.956  0.00  0.00    +0.039 C 
ATOM     33  C   UNL     1       0.207  -9.732   5.063  0.00  0.00    +0.067 C 
ENDBRANCH  25  27
ENDBRANCH  23  25
ENDBRANCH   5  21
TORSDOF 4
