REMARK  Name = ZINC08892969
REMARK  8 active torsions:
REMARK  status: ('A' for Active; 'I' for Inactive)
REMARK    1  A    between atoms: C_4  and  C_7
REMARK    2  A    between atoms: C_7  and  C_8
REMARK    3  A    between atoms: C_7  and  C_14
REMARK    4  A    between atoms: C_7  and  O_40
REMARK    5  A    between atoms: C_16  and  C_26
REMARK    6  A    between atoms: C_26  and  C_27
REMARK    7  A    between atoms: C_26  and  C_33
REMARK    8  A    between atoms: C_26  and  O_39
REMARK                            x       y       z     vdW  Elec       q    Type
REMARK                         _______ _______ _______ _____ _____    ______ ____
ROOT
ATOM      1  C   UNL     1       5.863  -0.129  -1.082  0.00  0.00    +0.194 C 
ATOM      2  C   UNL     1       5.591  -1.454  -0.336  0.00  0.00    +0.194 C 
ATOM      3  O   UNL     1       5.434  -1.076   1.048  0.00  0.00    -0.339 OA
ATOM      4  C   UNL     1       5.636   0.342   1.121  0.00  0.00    +0.171 C 
ATOM      5  O   UNL     1       5.325   0.871  -0.182  0.00  0.00    -0.339 OA
ATOM      6  C   UNL     1       4.702   0.952   2.163  0.00  0.00    +0.065 C 
ATOM      7  C   UNL     1       4.914   2.467   2.213  0.00  0.00    +0.005 C 
ATOM      8  C   UNL     1       6.369   2.767   2.579  0.00  0.00    +0.000 C 
ATOM      9  C   UNL     1       7.296   2.164   1.521  0.00  0.00    +0.005 C 
ATOM     10  C   UNL     1       7.091   0.648   1.469  0.00  0.00    +0.065 C 
ENDROOT
BRANCH   1  11
ATOM     11  C   UNL     1       5.127  -0.102  -2.423  0.00  0.00    +0.144 C 
BRANCH  11  15
ATOM     12  C   UNL     1       4.285   3.944  -3.504  0.00  0.00    +0.000 A 
ATOM     13  C   UNL     1       5.402   3.649  -2.745  0.00  0.00    +0.000 A 
ATOM     14  C   UNL     1       5.674   2.340  -2.395  0.00  0.00    +0.007 A 
ATOM     15  C   UNL     1       4.830   1.325  -2.804  0.00  0.00    -0.009 A 
ATOM     16  C   UNL     1       3.712   1.620  -3.563  0.00  0.00    +0.007 A 
ATOM     17  C   UNL     1       3.440   2.929  -3.913  0.00  0.00    +0.000 A 
ENDBRANCH  11  15
BRANCH  11  18
ATOM     18  C   UNL     1       5.990  -0.736  -3.483  0.00  0.00    -0.009 A 
ATOM     19  C   UNL     1       7.043  -0.028  -4.032  0.00  0.00    +0.007 A 
ATOM     20  C   UNL     1       7.838  -0.611  -5.000  0.00  0.00    +0.000 A 
ATOM     21  C   UNL     1       7.574  -1.899  -5.428  0.00  0.00    +0.000 A 
ATOM     22  C   UNL     1       6.518  -2.605  -4.883  0.00  0.00    +0.000 A 
ATOM     23  C   UNL     1       5.726  -2.024  -3.910  0.00  0.00    +0.007 A 
ENDBRANCH  11  18
BRANCH  11  24
ATOM     24  O   UNL     1       3.902  -0.829  -2.308  0.00  0.00    -0.377 OA
ATOM     25  H   UNL     1       3.296  -0.476  -1.643  0.00  0.00    +0.211 HD
ENDBRANCH  11  24
ENDBRANCH   1  11
BRANCH   2  26
ATOM     26  C   UNL     1       6.776  -2.409  -0.499  0.00  0.00    +0.144 C 
BRANCH  26  27
ATOM     27  C   UNL     1       7.986  -1.829   0.187  0.00  0.00    -0.009 A 
ATOM     28  C   UNL     1       8.127  -1.948   1.557  0.00  0.00    +0.007 A 
ATOM     29  C   UNL     1       9.239  -1.421   2.186  0.00  0.00    +0.000 A 
ATOM     30  C   UNL     1      10.206  -0.766   1.446  0.00  0.00    +0.000 A 
ATOM     31  C   UNL     1      10.063  -0.642   0.077  0.00  0.00    +0.000 A 
ATOM     32  C   UNL     1       8.953  -1.174  -0.553  0.00  0.00    +0.007 A 
ENDBRANCH  26  27
BRANCH  26  33
ATOM     33  C   UNL     1       6.437  -3.740   0.119  0.00  0.00    -0.009 A 
ATOM     34  C   UNL     1       5.600  -3.799   1.218  0.00  0.00    +0.007 A 
ATOM     35  C   UNL     1       5.285  -5.021   1.782  0.00  0.00    +0.000 A 
ATOM     36  C   UNL     1       5.816  -6.184   1.254  0.00  0.00    +0.000 A 
ATOM     37  C   UNL     1       6.658  -6.124   0.159  0.00  0.00    +0.000 A 
ATOM     38  C   UNL     1       6.968  -4.902  -0.408  0.00  0.00    +0.007 A 
ENDBRANCH  26  33
BRANCH  26  39
ATOM     39  O   UNL     1       7.056  -2.586  -1.889  0.00  0.00    -0.377 OA
ATOM     40  H   UNL     1       6.432  -3.168  -2.345  0.00  0.00    +0.211 HD
ENDBRANCH  26  39
ENDBRANCH   2  26
TORSDOF 8
