REMARK  Name = ZINC01035474
REMARK  7 active torsions:
REMARK  status: ('A' for Active; 'I' for Inactive)
REMARK    1  A    between atoms: C_1  and  C_2
REMARK    2  A    between atoms: C_2  and  O_3
REMARK    3  A    between atoms: O_3  and  C_4
REMARK    4  A    between atoms: C_4  and  C_6
REMARK    5  A    between atoms: C_7  and  N_25
REMARK    6  A    between atoms: C_9  and  C_20
REMARK    7  A    between atoms: C_11  and  C_15
REMARK                            x       y       z     vdW  Elec       q    Type
REMARK                         _______ _______ _______ _____ _____    ______ ____
ROOT
ATOM      1  C   UNL     1       0.541   9.620   0.047  0.00  0.00    +0.235 A 
ATOM      2  C   UNL     1       1.853   9.180   0.033  0.00  0.00    +0.088 A 
ATOM      3  C   UNL     1       1.779   7.720   0.026  0.00  0.00    +0.072 A 
ATOM      4  C   UNL     1       2.744   6.688   0.012  0.00  0.00    +0.033 A 
ATOM      5  C   UNL     1       2.289   5.370   0.015  0.00  0.00    +0.041 A 
ATOM      6  C   UNL     1       0.913   5.129   0.020  0.00  0.00    +0.082 A 
ATOM      7  N   UNL     1       0.035   6.126   0.033  0.00  0.00    -0.211 NA
ATOM      8  C   UNL     1       0.411   7.396   0.037  0.00  0.00    +0.231 A 
ATOM      9  O   UNL     1      -0.287   8.550   0.049  0.00  0.00    -0.428 OA
ENDROOT
BRANCH   6  10
ATOM     10  C   UNL     1       0.425   3.737   0.017  0.00  0.00    +0.038 A 
ATOM     11  C   UNL     1      -0.866   3.275   0.026  0.00  0.00    +0.017 A 
ATOM     12  C   UNL     1      -1.081   1.916   0.017  0.00  0.00    +0.008 A 
ATOM     13  C   UNL     1      -0.013   1.076   0.008  0.00  0.00    +0.046 A 
ATOM     14  S   UNL     1       1.360   2.217   0.001  0.00  0.00    -0.095 S 
ENDBRANCH   6  10
BRANCH   4  15
ATOM     15  C   UNL     1       4.186   6.995   0.001  0.00  0.00    +0.136 A 
ATOM     16  C   UNL     1       5.122   6.467   0.838  0.00  0.00    +0.050 A 
ATOM     17  C   UNL     1       6.357   7.033   0.472  0.00  0.00    +0.042 A 
ATOM     18  C   UNL     1       6.118   7.876  -0.553  0.00  0.00    +0.196 A 
ATOM     19  O   UNL     1       4.806   7.850  -0.835  0.00  0.00    -0.463 OA
ENDBRANCH   4  15
BRANCH   2  20
ATOM     20  N   UNL     1       2.997   9.961   0.028  0.00  0.00    -0.354 N 
ATOM     21  H   UNL     1       2.925  10.928   0.034  0.00  0.00    +0.142 HD
ATOM     22  H   UNL     1       3.871   9.540   0.018  0.00  0.00    +0.142 HD
ENDBRANCH   2  20
BRANCH   1  23
ATOM     23  C   UNL     1       0.131  10.971   0.059  0.00  0.00    +0.377 C 
ATOM     24  O   UNL     1       0.964  11.859   0.056  0.00  0.00    -0.241 OA
BRANCH  23  25
ATOM     25  O   UNL     1      -1.184  11.277   0.072  0.00  0.00    -0.459 OA
BRANCH  25  27
ATOM     26  C   UNL     1      -3.049  12.814   0.098  0.00  0.00    +0.048 C 
ATOM     27  C   UNL     1      -1.526  12.665   0.083  0.00  0.00    +0.229 C 
ENDBRANCH  25  27
ENDBRANCH  23  25
ENDBRANCH   1  23
TORSDOF 6
