REMARK  Name = ZINC03400342
REMARK  8 active torsions:
REMARK  status: ('A' for Active; 'I' for Inactive)
REMARK    1  A    between atoms: C_1  and  C_2
REMARK    2  A    between atoms: C_7  and  C_12
REMARK    3  A    between atoms: C_12  and  O_14
REMARK    4  A    between atoms: O_14  and  C_15
REMARK    5  A    between atoms: C_15  and  C_16
REMARK    6  A    between atoms: N_18  and  C_19
REMARK    7  A    between atoms: C_24  and  S_25
REMARK    8  A    between atoms: S_25  and  C_26
REMARK                            x       y       z     vdW  Elec       q    Type
REMARK                         _______ _______ _______ _____ _____    ______ ____
ROOT
ATOM      1  C   UNL     1       0.514   8.116  -1.226  0.00  0.00    +0.255 C 
ATOM      2  O   UNL     1       1.592   8.424  -0.764  0.00  0.00    -0.272 OA
ATOM      3  N   UNL     1      -0.098   8.929  -2.111  0.00  0.00    -0.282 N 
ATOM      4  H   UNL     1      -0.923   8.649  -2.537  0.00  0.00    +0.155 HD
ENDROOT
BRANCH   3   5
ATOM      5  C   UNL     1       0.458  10.179  -2.414  0.00  0.00    +0.047 A 
ATOM      6  C   UNL     1       1.830  10.366  -2.340  0.00  0.00    +0.024 A 
ATOM      7  C   UNL     1       2.377  11.599  -2.641  0.00  0.00    +0.002 A 
ATOM      8  C   UNL     1       1.560  12.650  -3.016  0.00  0.00    +0.001 A 
ATOM      9  C   UNL     1       0.192  12.473  -3.092  0.00  0.00    +0.017 A 
ATOM     10  C   UNL     1      -0.366  11.237  -2.797  0.00  0.00    +0.034 A 
BRANCH  10  11
ATOM     11  S   UNL     1      -2.110  11.006  -2.901  0.00  0.00    -0.088 S 
BRANCH  11  12
ATOM     12  C   UNL     1      -2.715  12.570  -3.440  0.00  0.00    +0.013 A 
ATOM     13  C   UNL     1      -3.178  13.496  -2.513  0.00  0.00    +0.015 A 
ATOM     14  C   UNL     1      -3.646  14.723  -2.939  0.00  0.00    +0.001 A 
ATOM     15  C   UNL     1      -3.666  15.027  -4.288  0.00  0.00    +0.000 A 
ATOM     16  C   UNL     1      -3.212  14.106  -5.215  0.00  0.00    +0.001 A 
ATOM     17  C   UNL     1      -2.736  12.879  -4.795  0.00  0.00    +0.015 A 
ENDBRANCH  11  12
ENDBRANCH  10  11
ENDBRANCH   3   5
BRANCH   1  18
ATOM     18  C   UNL     1      -0.142   6.824  -0.812  0.00  0.00    +0.328 C 
BRANCH  18  19
ATOM     19  O   UNL     1       0.708   6.133   0.141  0.00  0.00    -0.452 OA
BRANCH  19  20
ATOM     20  C   UNL     1       0.263   4.952   0.614  0.00  0.00    +0.340 C 
ATOM     21  O   UNL     1      -0.807   4.512   0.241  0.00  0.00    -0.245 OA
BRANCH  20  27
ATOM     22  C   UNL     1      -0.405  -0.833   3.980  0.00  0.00    +0.008 C 
ATOM     23  C   UNL     1      -0.223   0.624   3.550  0.00  0.00    -0.009 C 
ATOM     24  C   UNL     1      -0.641   0.782   2.085  0.00  0.00    +0.008 C 
ATOM     25  C   UNL     1      -0.703   2.266   1.719  0.00  0.00    +0.037 C 
ATOM     26  C   UNL     1       0.616   2.922   2.107  0.00  0.00    -0.023 A 
ATOM     27  C   UNL     1       1.072   4.196   1.582  0.00  0.00    +0.069 A 
ATOM     28  C   UNL     1       2.288   4.674   2.020  0.00  0.00    +0.060 A 
ATOM     29  S   UNL     1       2.824   3.446   3.119  0.00  0.00    -0.100 S 
ATOM     30  C   UNL     1       1.454   2.332   2.989  0.00  0.00    -0.006 A 
ATOM     31  C   UNL     1       1.252   1.025   3.690  0.00  0.00    +0.046 C 
ENDBRANCH  20  27
ENDBRANCH  19  20
ENDBRANCH  18  19
ENDBRANCH   1  18
TORSDOF 7
