REMARK  Name = ZINC33941793
REMARK  5 active torsions:
REMARK  status: ('A' for Active; 'I' for Inactive)
REMARK    1  A    between atoms: C_4  and  C_7
REMARK    2  A    between atoms: C_7  and  N_8
REMARK    3  A    between atoms: C_18  and  S_21
REMARK    4  A    between atoms: S_21  and  C_22
REMARK    5  A    between atoms: C_22  and  C_23
REMARK                            x       y       z     vdW  Elec       q    Type
REMARK                         _______ _______ _______ _____ _____    ______ ____
ROOT
ATOM      1  N   UNL     1       4.152  -0.952   1.338  0.00  0.00    -0.319 N 
ATOM      2  C   UNL     1       4.941  -0.089   2.081  0.00  0.00    +0.053 A 
ATOM      3  C   UNL     1       5.503   1.149   1.791  0.00  0.00    +0.026 A 
ATOM      4  C   UNL     1       6.261   1.803   2.739  0.00  0.00    +0.002 A 
ATOM      5  C   UNL     1       6.471   1.236   3.987  0.00  0.00    +0.001 A 
ATOM      6  C   UNL     1       5.922   0.010   4.293  0.00  0.00    +0.012 A 
ATOM      7  C   UNL     1       5.154  -0.661   3.345  0.00  0.00    +0.029 A 
ATOM      8  C   UNL     1       4.441  -1.950   3.344  0.00  0.00    +0.138 A 
ATOM      9  C   UNL     1       3.837  -2.067   2.075  0.00  0.00    +0.165 A 
ATOM     10  N   UNL     1       3.118  -3.155   1.816  0.00  0.00    -0.201 NA
ATOM     11  C   UNL     1       2.990  -4.086   2.753  0.00  0.00    +0.212 A 
ATOM     12  N   UNL     1       3.565  -3.951   3.943  0.00  0.00    -0.122 NA
ATOM     13  N   UNL     1       4.279  -2.917   4.234  0.00  0.00    -0.143 NA
ENDROOT
BRANCH   1  14
ATOM     14  C   UNL     1       3.711  -0.707  -0.038  0.00  0.00    +0.159 C 
BRANCH  14  18
ATOM     15  C   UNL     1      -0.017   1.378   0.010  0.00  0.00    +0.000 A 
ATOM     16  C   UNL     1       1.171   2.086   0.002  0.00  0.00    +0.000 A 
ATOM     17  C   UNL     1       2.377   1.411  -0.013  0.00  0.00    +0.005 A 
ATOM     18  C   UNL     1       2.396   0.029  -0.020  0.00  0.00    -0.028 A 
ATOM     19  C   UNL     1       1.208  -0.679  -0.012  0.00  0.00    +0.005 A 
ATOM     20  C   UNL     1       0.002  -0.004   0.002  0.00  0.00    +0.000 A 
ENDBRANCH  14  18
ENDBRANCH   1  14
BRANCH  11  21
ATOM     21  S   UNL     1       2.038  -5.529   2.413  0.00  0.00    -0.075 S 
BRANCH  21  22
ATOM     22  C   UNL     1       2.140  -6.494   3.946  0.00  0.00    +0.173 C 
BRANCH  22  23
ATOM     23  C   UNL     1       1.357  -7.772   3.788  0.00  0.00    +0.229 C 
ATOM     24  O   UNL     1       0.786  -8.008   2.745  0.00  0.00    -0.275 OA
ATOM     25  N   UNL     1       1.292  -8.652   4.807  0.00  0.00    -0.264 N 
ATOM     26  C   UNL     1       0.570  -9.831   4.661  0.00  0.00    +0.165 A 
ATOM     27  N   UNL     1      -0.101 -10.254   3.613  0.00  0.00    -0.229 NA
ATOM     28  C   UNL     1      -0.751 -11.414   3.616  0.00  0.00    +0.054 A 
ATOM     29  C   UNL     1      -0.666 -12.114   4.776  0.00  0.00    +0.014 A 
ATOM     30  S   UNL     1       0.347 -11.068   5.784  0.00  0.00    -0.057 S 
ATOM     31  C   UNL     1      -1.280 -13.436   5.091  0.00  0.00    +0.044 C 
ATOM     32  C   UNL     1      -2.343 -13.737   4.022  0.00  0.00    +0.006 C 
ATOM     33  C   UNL     1      -1.744 -13.466   2.639  0.00  0.00    +0.006 C 
ATOM     34  C   UNL     1      -1.544 -11.963   2.437  0.00  0.00    +0.056 C 
ATOM     35  H   UNL     1       1.749  -8.463   5.641  0.00  0.00    +0.157 HD
ENDBRANCH  22  23
ENDBRANCH  21  22
ENDBRANCH  11  21
TORSDOF 5
