REMARK  Name = ZINC02237327
REMARK  4 active torsions:
REMARK  status: ('A' for Active; 'I' for Inactive)
REMARK    1  A    between atoms: C_4  and  O_7
REMARK    2  A    between atoms: O_7  and  C_8
REMARK    3  A    between atoms: C_8  and  C_9
REMARK    4  A    between atoms: C_12  and  C_17
REMARK                            x       y       z     vdW  Elec       q    Type
REMARK                         _______ _______ _______ _____ _____    ______ ____
ROOT
ATOM      1  C   UNL     1       2.343  -4.165  -0.042  0.00  0.00    +0.140 A 
ATOM      2  N   UNL     1       2.234  -4.970  -1.056  0.00  0.00    -0.157 NA
ATOM      3  N   UNL     1       2.081  -6.339  -0.881  0.00  0.00    -0.186 N 
ATOM      4  C   UNL     1       1.939  -7.489  -1.630  0.00  0.00    +0.199 A 
ATOM      5  N   UNL     1       1.830  -8.495  -0.808  0.00  0.00    -0.128 NA
ATOM      6  N   UNL     1       1.892  -8.078   0.409  0.00  0.00    -0.120 NA
ATOM      7  C   UNL     1       2.042  -6.789   0.416  0.00  0.00    +0.218 A 
ATOM      8  S   UNL     1       2.227  -5.286   1.344  0.00  0.00    -0.028 S 
ENDROOT
BRANCH   4   9
ATOM      9  C   UNL     1       1.915  -7.568  -3.135  0.00  0.00    +0.280 C 
ATOM     10  C   UNL     1       0.480  -7.819  -3.617  0.00  0.00    +0.281 C 
ATOM     11  O   UNL     1       0.495  -7.902  -5.046  0.00  0.00    -0.484 OA
ATOM     12  C   UNL     1       1.468  -8.674  -5.604  0.00  0.00    +0.162 A 
ATOM     13  C   UNL     1       1.336  -9.089  -6.920  0.00  0.00    +0.049 A 
ATOM     14  C   UNL     1       2.317  -9.870  -7.502  0.00  0.00    +0.004 A 
ATOM     15  C   UNL     1       3.431 -10.241  -6.772  0.00  0.00    +0.004 A 
ATOM     16  C   UNL     1       3.568  -9.832  -5.459  0.00  0.00    +0.049 A 
ATOM     17  C   UNL     1       2.587  -9.048  -4.870  0.00  0.00    +0.163 A 
ATOM     18  O   UNL     1       2.733  -8.658  -3.574  0.00  0.00    -0.474 OA
ENDBRANCH   4   9
BRANCH   1  19
ATOM     19  C   UNL     1       2.518  -2.668  -0.036  0.00  0.00    +0.293 C 
BRANCH  19  20
ATOM     20  O   UNL     1       1.234  -2.039  -0.020  0.00  0.00    -0.485 OA
BRANCH  20  24
ATOM     21  C   UNL     1       1.171   2.086   0.002  0.00  0.00    +0.000 A 
ATOM     22  C   UNL     1      -0.017   1.377   0.010  0.00  0.00    +0.004 A 
ATOM     23  C   UNL     1       0.002  -0.004   0.002  0.00  0.00    +0.045 A 
ATOM     24  C   UNL     1       1.213  -0.680  -0.013  0.00  0.00    +0.121 A 
ATOM     25  C   UNL     1       2.403   0.033  -0.021  0.00  0.00    +0.045 A 
ATOM     26  C   UNL     1       2.379   1.415  -0.013  0.00  0.00    +0.004 A 
ENDBRANCH  20  24
ENDBRANCH  19  20
ENDBRANCH   1  19
TORSDOF 4
