REMARK  Name = ZINC22073725
REMARK  6 active torsions:
REMARK  status: ('A' for Active; 'I' for Inactive)
REMARK    1  A    between atoms: C_9  and  O_23
REMARK    2  A    between atoms: C_10  and  C_11
REMARK    3  A    between atoms: C_11  and  N_12
REMARK    4  A    between atoms: N_12  and  C_13
REMARK    5  A    between atoms: O_23  and  C_24
REMARK    6  A    between atoms: C_24  and  C_25
REMARK                            x       y       z     vdW  Elec       q    Type
REMARK                         _______ _______ _______ _____ _____    ______ ____
ROOT
ATOM      1  C   UNL     1      -0.013   1.076   0.008  0.00  0.00    +0.001 A 
ATOM      2  C   UNL     1      -1.235   1.746   0.017  0.00  0.00    +0.001 A 
ATOM      3  C   UNL     1      -1.288   3.105   0.030  0.00  0.00    +0.009 A 
ATOM      4  C   UNL     1      -0.095   3.849   0.023  0.00  0.00    -0.013 A 
ATOM      5  C   UNL     1       1.148   3.167   0.008  0.00  0.00    -0.017 A 
ATOM      6  C   UNL     1       1.163   1.762   0.000  0.00  0.00    +0.008 A 
ATOM      7  C   UNL     1       2.342   3.909  -0.000  0.00  0.00    +0.012 A 
ATOM      8  C   UNL     1       2.292   5.268   0.006  0.00  0.00    +0.046 A 
ATOM      9  C   UNL     1       1.067   5.942   0.021  0.00  0.00    +0.123 A 
ATOM     10  C   UNL     1      -0.112   5.253   0.030  0.00  0.00    -0.015 A 
ENDROOT
BRANCH  10  11
ATOM     11  C   UNL     1      -1.424   5.995   0.046  0.00  0.00    -0.042 C 
BRANCH  11  12
ATOM     12  N   UNL     1      -1.863   6.243  -1.333  0.00  0.00    +0.384 N 
ATOM     13  H   UNL     1      -1.107   6.847  -1.856  0.00  0.00    -0.085 HD
ATOM     14  H   UNL     1      -1.992   5.284  -1.855  0.00  0.00    -0.085 HD
BRANCH  12  15
ATOM     15  C   UNL     1      -3.142   6.966  -1.356  0.00  0.00    -0.065 C 
ATOM     16  C   UNL     1      -4.295   5.968  -1.238  0.00  0.00    -0.024 C 
ATOM     17  C   UNL     1      -5.626   6.721  -1.262  0.00  0.00    +0.005 C 
ATOM     18  C   UNL     1      -5.752   7.492  -2.577  0.00  0.00    -0.010 C 
ATOM     19  C   UNL     1      -5.700   6.512  -3.750  0.00  0.00    +0.007 C 
ATOM     20  C   UNL     1      -4.369   5.758  -3.727  0.00  0.00    -0.010 C 
ATOM     21  C   UNL     1      -4.243   4.987  -2.411  0.00  0.00    +0.005 C 
ATOM     22  C   UNL     1      -3.216   6.757  -3.845  0.00  0.00    +0.005 C 
ATOM     23  C   UNL     1      -3.268   7.738  -2.672  0.00  0.00    -0.024 C 
ATOM     24  C   UNL     1      -4.599   8.491  -2.696  0.00  0.00    +0.005 C 
ENDBRANCH  12  15
ENDBRANCH  11  12
ENDBRANCH  10  11
BRANCH   9  25
ATOM     25  O   UNL     1       1.050   7.301   0.029  0.00  0.00    -0.487 OA
BRANCH  25  26
ATOM     26  C   UNL     1       2.314   7.966   0.020  0.00  0.00    +0.266 C 
BRANCH  26  27
ATOM     27  C   UNL     1       2.098   9.457   0.030  0.00  0.00    +0.008 A 
ATOM     28  C   UNL     1       0.814   9.969   0.044  0.00  0.00    +0.010 A 
ATOM     29  C   UNL     1       0.614  11.336   0.054  0.00  0.00    +0.020 A 
ATOM     30  C   UNL     1       1.700  12.194   0.048  0.00  0.00    +0.042 A 
ATOM     31  C   UNL     1       2.985  11.683   0.034  0.00  0.00    +0.040 A 
ATOM     32  C   UNL     1       3.184  10.314   0.030  0.00  0.00    +0.049 A 
ATOM     33 CL   UNL     1       4.797   9.671   0.018  0.00  0.00    -0.083 Cl
ATOM     34 CL   UNL     1       1.449  13.912   0.059  0.00  0.00    -0.083 Cl
ENDBRANCH  26  27
ENDBRANCH  25  26
ENDBRANCH   9  25
TORSDOF 6
