REMARK  Name = ZINC19933225
REMARK  7 active torsions:
REMARK  status: ('A' for Active; 'I' for Inactive)
REMARK    1  A    between atoms: C_1  and  O_2
REMARK    2  A    between atoms: O_2  and  C_3
REMARK    3  A    between atoms: C_3  and  O_23
REMARK    4  A    between atoms: C_4  and  C_21
REMARK    5  A    between atoms: C_5  and  C_13
REMARK    6  A    between atoms: C_7  and  C_11
REMARK    7  A    between atoms: O_23  and  C_24
REMARK                            x       y       z     vdW  Elec       q    Type
REMARK                         _______ _______ _______ _____ _____    ______ ____
ROOT
ATOM      1  C   UNL     1       1.063  -0.566   0.739  0.00  0.00    +0.294 C 
ATOM      2  C   UNL     1       1.506  -2.037   0.634  0.00  0.00    +0.167 C 
ATOM      3  C   UNL     1       2.049  -2.722   1.889  0.00  0.00    +0.079 C 
ATOM      4  C   UNL     1       3.010  -1.974   0.963  0.00  0.00    +0.146 C 
ATOM      5  C   UNL     1       3.300  -0.519   1.230  0.00  0.00    +0.116 C 
ATOM      6  N   UNL     1       2.250   0.205   1.104  0.00  0.00    -0.211 NA
ATOM      7  N   UNL     1       4.534  -0.030   1.568  0.00  0.00    -0.345 N 
ATOM      8  H   UNL     1       5.289  -0.634   1.648  0.00  0.00    +0.143 HD
ATOM      9  H   UNL     1       4.653   0.919   1.727  0.00  0.00    +0.143 HD
ENDROOT
BRANCH   3  10
ATOM     10  C   UNL     1       2.114  -4.228   1.886  0.00  0.00    -0.022 A 
ATOM     11  C   UNL     1       2.466  -4.902   0.732  0.00  0.00    +0.007 A 
ATOM     12  C   UNL     1       2.526  -6.283   0.728  0.00  0.00    +0.020 A 
ATOM     13  C   UNL     1       2.233  -6.991   1.880  0.00  0.00    +0.042 A 
ATOM     14  C   UNL     1       1.881  -6.317   3.035  0.00  0.00    +0.040 A 
ATOM     15  C   UNL     1       1.826  -4.935   3.040  0.00  0.00    +0.046 A 
ATOM     16 CL   UNL     1       1.390  -4.088   4.491  0.00  0.00    -0.083 Cl
ATOM     17 CL   UNL     1       2.307  -8.726   1.875  0.00  0.00    -0.083 Cl
ENDBRANCH   3  10
BRANCH   1  19
ATOM     18  C   UNL     1       0.137   1.249  -0.524  0.00  0.00    +0.199 C 
ATOM     19  O   UNL     1       0.556  -0.117  -0.520  0.00  0.00    -0.333 OA
ENDBRANCH   1  19
BRANCH   4  20
ATOM     20  C   UNL     1       3.998  -2.737   0.183  0.00  0.00    +0.079 C 
ATOM     21  N   UNL     1       4.760  -3.325  -0.420  0.00  0.00    -0.195 NA
ENDBRANCH   4  20
BRANCH   2  22
ATOM     22  C   UNL     1       0.972  -2.839  -0.479  0.00  0.00    +0.080 C 
ATOM     23  N   UNL     1       0.559  -3.459  -1.337  0.00  0.00    -0.196 NA
ENDBRANCH   2  22
BRANCH   1  24
ATOM     24  O   UNL     1       0.060  -0.427   1.747  0.00  0.00    -0.333 OA
ATOM     25  C   UNL     1      -1.153  -1.125   1.460  0.00  0.00    +0.199 C 
ENDBRANCH   1  24
TORSDOF 5
