REMARK  Name = ZINC03118623
REMARK  13 active torsions:
REMARK  status: ('A' for Active; 'I' for Inactive)
REMARK    1  A    between atoms: C_1  and  C_2
REMARK    2  A    between atoms: C_2  and  C_3
REMARK    3  A    between atoms: C_3  and  C_4
REMARK    4  A    between atoms: C_4  and  C_5
REMARK    5  A    between atoms: C_5  and  C_6
REMARK    6  A    between atoms: N_8  and  C_9
REMARK    7  A    between atoms: C_9  and  C_11
REMARK    8  A    between atoms: C_9  and  N_15
REMARK    9  A    between atoms: N_15  and  C_16
REMARK   10  A    between atoms: C_16  and  N_18
REMARK   11  A    between atoms: N_18  and  C_19
REMARK   12  A    between atoms: C_22  and  O_25
REMARK   13  A    between atoms: O_25  and  C_26
REMARK                            x       y       z     vdW  Elec       q    Type
REMARK                         _______ _______ _______ _____ _____    ______ ____
ROOT
ATOM      1  C   UNL     1      -0.503   1.913  -2.965  0.00  0.00    +0.211 C 
ENDROOT
BRANCH   1   4
ATOM      2  C   UNL     1       0.477   2.050  -0.738  0.00  0.00    +0.214 C 
ATOM      3  O   UNL     1      -0.460   2.741  -0.400  0.00  0.00    -0.276 OA
ATOM      4  N   UNL     1       0.550   1.584  -2.001  0.00  0.00    -0.294 N 
ATOM      5  H   UNL     1       1.400   0.957  -2.307  0.00  0.00    +0.151 HD
BRANCH   2   6
ATOM      6  C   UNL     1       1.560   1.711   0.254  0.00  0.00    +0.096 C 
BRANCH   6   7
ATOM      7  C   UNL     1       1.238   2.359   1.602  0.00  0.00    +0.009 C 
BRANCH   7   8
ATOM      8  C   UNL     1       2.338   2.016   2.609  0.00  0.00    +0.000 C 
BRANCH   8  10
ATOM      9  C   UNL     1       3.115   2.320   4.963  0.00  0.00    +0.004 C 
ATOM     10  C   UNL     1       2.015   2.664   3.957  0.00  0.00    -0.003 C 
ENDBRANCH   8  10
ENDBRANCH   7   8
ENDBRANCH   6   7
ENDBRANCH   2   6
ENDBRANCH   1   4
BRANCH   1  11
ATOM     11  C   UNL     1      -0.898   0.653  -3.738  0.00  0.00    +0.225 C 
ATOM     12 CL   UNL     1      -1.506  -0.593  -2.586  0.00  0.00    -0.080 Cl
ATOM     13 CL   UNL     1      -2.194   1.058  -4.925  0.00  0.00    -0.080 Cl
ATOM     14 CL   UNL     1       0.540   0.010  -4.615  0.00  0.00    -0.080 Cl
ENDBRANCH   1  11
BRANCH   1  15
ATOM     15  N   UNL     1      -0.009   2.926  -3.901  0.00  0.00    -0.305 N 
ATOM     16  H   UNL     1       0.698   2.642  -4.695  0.00  0.00    +0.150 HD
BRANCH  15  17
ATOM     17  C   UNL     1      -0.420   4.204  -3.789  0.00  0.00    +0.136 C 
ATOM     18  S   UNL     1      -1.520   4.645  -2.554  0.00  0.00    -0.019 S 
BRANCH  17  19
ATOM     19  N   UNL     1       0.035   5.136  -4.651  0.00  0.00    -0.297 N 
ATOM     20  H   UNL     1       0.794   4.868  -5.400  0.00  0.00    +0.154 HD
BRANCH  19  21
ATOM     21  C   UNL     1      -0.460   6.445  -4.591  0.00  0.00    +0.033 A 
ATOM     22  C   UNL     1      -0.819   7.106  -5.758  0.00  0.00    +0.027 A 
ATOM     23  C   UNL     1      -1.312   8.394  -5.699  0.00  0.00    +0.047 A 
ATOM     24  C   UNL     1      -1.437   9.033  -4.474  0.00  0.00    +0.120 A 
ATOM     25  C   UNL     1      -1.072   8.376  -3.308  0.00  0.00    +0.047 A 
ATOM     26  C   UNL     1      -0.585   7.085  -3.365  0.00  0.00    +0.027 A 
BRANCH  24  27
ATOM     27  O   UNL     1      -1.917  10.304  -4.416  0.00  0.00    -0.495 OA
ATOM     28  C   UNL     1      -2.273  10.920  -5.655  0.00  0.00    +0.277 C 
ENDBRANCH  24  27
ENDBRANCH  19  21
ENDBRANCH  17  19
ENDBRANCH  15  17
ENDBRANCH   1  15
TORSDOF 11
