REMARK  Name = ZINC67144416
REMARK  6 active torsions:
REMARK  status: ('A' for Active; 'I' for Inactive)
REMARK    1  A    between atoms: C_7  and  C_21
REMARK    2  A    between atoms: C_8  and  C_10
REMARK    3  A    between atoms: N_12  and  N_13
REMARK    4  A    between atoms: N_13  and  C_14
REMARK    5  A    between atoms: C_21  and  S_22
REMARK    6  A    between atoms: S_22  and  C_23
REMARK                            x       y       z     vdW  Elec       q    Type
REMARK                         _______ _______ _______ _____ _____    ______ ____
ROOT
ATOM      1  C   UNL     1      -0.017   1.362   0.009  0.00  0.00    +0.001 A 
ATOM      2  C   UNL     1       1.171   2.082   0.002  0.00  0.00    +0.004 A 
ATOM      3  C   UNL     1       2.387   1.434  -0.013  0.00  0.00    +0.047 A 
ATOM      4  C   UNL     1       2.431   0.044  -0.021  0.00  0.00    +0.136 A 
ATOM      5  C   UNL     1       1.225  -0.680  -0.013  0.00  0.00    +0.025 A 
ATOM      6  C   UNL     1       0.002  -0.004   0.002  0.00  0.00    +0.012 A 
ATOM      7  C   UNL     1       1.609  -2.091  -0.025  0.00  0.00    +0.021 A 
ATOM      8  C   UNL     1       2.967  -2.110  -0.038  0.00  0.00    +0.196 A 
ATOM      9  O   UNL     1       3.441  -0.847  -0.036  0.00  0.00    -0.450 OA
ENDROOT
BRANCH   8  10
ATOM     10  C   UNL     1       3.796  -3.324  -0.052  0.00  0.00    +0.296 C 
ATOM     11  O   UNL     1       3.268  -4.420  -0.052  0.00  0.00    -0.265 OA
ATOM     12  N   UNL     1       5.140  -3.223  -0.065  0.00  0.00    -0.230 N 
ATOM     13  H   UNL     1       5.560  -2.349  -0.065  0.00  0.00    +0.173 HD
BRANCH  12  14
ATOM     14  N   UNL     1       5.929  -4.380  -0.079  0.00  0.00    -0.264 N 
ATOM     15  H   UNL     1       5.509  -5.254  -0.079  0.00  0.00    +0.170 HD
BRANCH  14  16
ATOM     16  C   UNL     1       7.323  -4.275  -0.092  0.00  0.00    +0.045 A 
ATOM     17  C   UNL     1       7.927  -3.024  -0.086  0.00  0.00    +0.027 A 
ATOM     18  C   UNL     1       9.304  -2.923  -0.100  0.00  0.00    +0.040 A 
ATOM     19  C   UNL     1      10.083  -4.067  -0.119  0.00  0.00    +0.124 A 
ATOM     20  C   UNL     1       9.484  -5.315  -0.125  0.00  0.00    +0.040 A 
ATOM     21  C   UNL     1       8.107  -5.421  -0.105  0.00  0.00    +0.027 A 
ATOM     22  F   UNL     1      11.431  -3.965  -0.132  0.00  0.00    -0.205 F 
ENDBRANCH  14  16
ENDBRANCH  12  14
ENDBRANCH   8  10
BRANCH   7  23
ATOM     23  C   UNL     1       0.686  -3.282  -0.021  0.00  0.00    +0.114 C 
BRANCH  23  24
ATOM     24  S   UNL     1       0.298  -3.751  -1.730  0.00  0.00    -0.113 S 
BRANCH  24  25
ATOM     25  C   UNL     1      -0.775  -5.138  -1.559  0.00  0.00    +0.045 A 
ATOM     26  C   UNL     1      -1.366  -5.891  -2.529  0.00  0.00    +0.022 A 
ATOM     27  C   UNL     1      -2.178  -6.945  -2.150  0.00  0.00    +0.009 A 
ATOM     28  C   UNL     1      -2.361  -7.195  -0.832  0.00  0.00    +0.046 A 
ATOM     29  S   UNL     1      -1.364  -5.926  -0.069  0.00  0.00    -0.090 S 
ENDBRANCH  24  25
ENDBRANCH  23  24
ENDBRANCH   7  23
TORSDOF 6
