REMARK  Name = ZINC09064589
REMARK  6 active torsions:
REMARK  status: ('A' for Active; 'I' for Inactive)
REMARK    1  A    between atoms: C_1  and  C_2
REMARK    2  A    between atoms: C_3  and  N_11
REMARK    3  A    between atoms: C_7  and  N_8
REMARK    4  A    between atoms: N_11  and  C_12
REMARK    5  A    between atoms: C_12  and  N_14
REMARK    6  A    between atoms: C_15  and  C_17
REMARK                            x       y       z     vdW  Elec       q    Type
REMARK                         _______ _______ _______ _____ _____    ______ ____
ROOT
ATOM      1  N   UNL     1       0.933  -0.738   0.416  0.00  0.00    -0.264 N 
ATOM      2  C   UNL     1       0.859  -2.044   0.738  0.00  0.00    +0.250 C 
ATOM      3  O   UNL     1      -0.203  -2.526   1.082  0.00  0.00    -0.270 OA
ATOM      4  H   UNL     1       1.781  -0.353   0.142  0.00  0.00    +0.157 HD
ENDROOT
BRANCH   2   5
ATOM      5  C   UNL     1       2.064  -2.889   0.673  0.00  0.00    +0.045 A 
ATOM      6  C   UNL     1       3.307  -2.332   0.399  0.00  0.00    +0.014 A 
ATOM      7  C   UNL     1       4.441  -3.130   0.343  0.00  0.00    +0.001 A 
ATOM      8  C   UNL     1       4.383  -4.476   0.541  0.00  0.00    +0.009 A 
ATOM      9  C   UNL     1       3.159  -5.107   0.817  0.00  0.00    -0.003 A 
ATOM     10  C   UNL     1       1.976  -4.332   0.889  0.00  0.00    -0.005 A 
ATOM     11  C   UNL     1       0.754  -4.957   1.163  0.00  0.00    +0.009 A 
ATOM     12  C   UNL     1       0.716  -6.306   1.358  0.00  0.00    +0.002 A 
ATOM     13  C   UNL     1       1.877  -7.072   1.288  0.00  0.00    +0.016 A 
ATOM     14  C   UNL     1       3.083  -6.496   1.023  0.00  0.00    +0.026 A 
ATOM     15 BR   UNL     1       4.645  -7.558   0.934  0.00  0.00    -0.050 Br
ENDBRANCH   2   5
BRANCH   1  16
ATOM     16  C   UNL     1      -0.169   0.035   0.476  0.00  0.00    +0.141 C 
ATOM     17  S   UNL     1      -1.665  -0.643   0.960  0.00  0.00    -0.018 S 
BRANCH  16  18
ATOM     18  N   UNL     1      -0.094   1.342   0.154  0.00  0.00    -0.296 N 
ATOM     19  H   UNL     1       0.761   1.736  -0.077  0.00  0.00    +0.154 HD
BRANCH  18  22
ATOM     20  C   UNL     1       0.087   4.007   1.136  0.00  0.00    +0.048 C 
ATOM     21  C   UNL     1      -1.207   3.435   0.618  0.00  0.00    +0.001 A 
ATOM     22  C   UNL     1      -1.251   2.128   0.148  0.00  0.00    +0.038 A 
ATOM     23  C   UNL     1      -2.447   1.603  -0.323  0.00  0.00    +0.024 A 
ATOM     24  C   UNL     1      -3.588   2.382  -0.328  0.00  0.00    +0.004 A 
ATOM     25  C   UNL     1      -3.539   3.683   0.136  0.00  0.00    +0.033 A 
ATOM     26  C   UNL     1      -2.350   4.210   0.605  0.00  0.00    +0.131 A 
BRANCH  26  27
ATOM     27  N   UNL     1      -2.303   5.604   1.100  0.00  0.00    +0.057 N 
ATOM     28  O   UNL     1      -3.294   6.309   1.031  0.00  0.00    -0.126 OA
ATOM     29  O   UNL     1      -1.273   6.047   1.576  0.00  0.00    -0.126 OA
ENDBRANCH  26  27
ENDBRANCH  18  22
ENDBRANCH  16  18
ENDBRANCH   1  16
TORSDOF 5
