REMARK  Name = ZINC21334483
REMARK  8 active torsions:
REMARK  status: ('A' for Active; 'I' for Inactive)
REMARK    1  A    between atoms: C_1  and  C_2
REMARK    2  A    between atoms: C_5  and  C_30
REMARK    3  A    between atoms: N_8  and  C_10
REMARK    4  A    between atoms: C_10  and  C_12
REMARK    5  A    between atoms: C_10  and  C_13
REMARK    6  A    between atoms: N_15  and  C_16
REMARK    7  A    between atoms: C_19  and  S_22
REMARK    8  A    between atoms: S_22  and  N_25
REMARK                            x       y       z     vdW  Elec       q    Type
REMARK                         _______ _______ _______ _____ _____    ______ ____
ROOT
ATOM      1  C   UNL     1      -3.330  -2.203  -1.449  0.00  0.00    +0.203 C 
ATOM      2  O   UNL     1      -2.665  -1.559  -2.233  0.00  0.00    -0.277 OA
ATOM      3  N   UNL     1      -4.571  -2.605  -1.790  0.00  0.00    -0.287 N 
ATOM      4  H   UNL     1      -5.145  -3.253  -1.112  0.00  0.00    +0.155 HD
ENDROOT
BRANCH   3   5
ATOM      5  C   UNL     1      -5.129  -2.197  -3.007  0.00  0.00    +0.033 A 
ATOM      6  C   UNL     1      -6.491  -1.946  -3.098  0.00  0.00    +0.025 A 
ATOM      7  C   UNL     1      -7.038  -1.539  -4.299  0.00  0.00    +0.030 A 
ATOM      8  C   UNL     1      -6.232  -1.392  -5.413  0.00  0.00    +0.106 A 
ATOM      9  C   UNL     1      -4.875  -1.646  -5.327  0.00  0.00    +0.030 A 
ATOM     10  C   UNL     1      -4.322  -2.049  -4.127  0.00  0.00    +0.025 A 
BRANCH   8  11
ATOM     11  S   UNL     1      -6.934  -0.879  -6.946  0.00  0.00    +0.061 S 
ATOM     12  O   UNL     1      -8.130  -0.178  -6.630  0.00  0.00    -0.153 OA
ATOM     13  O   UNL     1      -5.882  -0.291  -7.698  0.00  0.00    -0.153 OA
BRANCH  11  14
ATOM     14  N   UNL     1      -7.389  -2.248  -7.758  0.00  0.00    -0.177 NA
ATOM     15  C   UNL     1      -6.548  -3.007  -8.696  0.00  0.00    +0.109 C 
ATOM     16  C   UNL     1      -7.396  -4.184  -9.223  0.00  0.00    +0.018 C 
ATOM     17  C   UNL     1      -8.850  -3.692  -8.993  0.00  0.00    +0.018 C 
ATOM     18  C   UNL     1      -8.706  -2.905  -7.666  0.00  0.00    +0.109 C 
ENDBRANCH  11  14
ENDBRANCH   8  11
ENDBRANCH   3   5
BRANCH   1  19
ATOM     19  C   UNL     1      -2.769  -2.554  -0.096  0.00  0.00    +0.016 C 
ATOM     20  C   UNL     1      -3.663  -1.961   0.996  0.00  0.00    -0.004 C 
BRANCH  19  26
ATOM     21  C   UNL     1      -0.028   1.527   0.030  0.00  0.00    +0.005 C 
ATOM     22  C   UNL     1      -0.003  -0.002   0.012  0.00  0.00    -0.031 C 
ATOM     23  C   UNL     1       0.741  -0.516   1.248  0.00  0.00    +0.003 C 
ATOM     24  C   UNL     1       0.709  -2.047   1.253  0.00  0.00    -0.031 C 
ATOM     25  C   UNL     1      -0.745  -2.523   1.232  0.00  0.00    -0.075 C 
ATOM     26  N   UNL     1      -1.413  -2.006   0.030  0.00  0.00    +0.387 N 
ATOM     27  C   UNL     1      -1.437  -0.537   0.027  0.00  0.00    -0.075 C 
ATOM     28  C   UNL     1       1.438  -2.577   0.017  0.00  0.00    +0.005 C 
ATOM     29  H   UNL     1      -0.831  -2.334  -0.844  0.00  0.00    -0.081 HD
ENDBRANCH  19  26
ENDBRANCH   1  19
TORSDOF 5
