REMARK  Name = ZINC64053546
REMARK  5 active torsions:
REMARK  status: ('A' for Active; 'I' for Inactive)
REMARK    1  A    between atoms: C_1  and  C_2
REMARK    2  A    between atoms: C_6  and  C_8
REMARK    3  A    between atoms: C_23  and  C_25
REMARK    4  A    between atoms: C_25  and  C_26
REMARK    5  A    between atoms: C_26  and  C_27
REMARK                            x       y       z     vdW  Elec       q    Type
REMARK                         _______ _______ _______ _____ _____    ______ ____
ROOT
ATOM      1  C   UNL     1       0.054  -2.845   2.489  0.00  0.00    +0.133 C 
ATOM      2  C   UNL     1      -1.374  -3.250   2.870  0.00  0.00    +0.131 C 
ATOM      3  C   UNL     1      -1.796  -4.333   1.886  0.00  0.00    -0.035 C 
ATOM      4  C   UNL     1      -2.918  -3.906   1.317  0.00  0.00    -0.001 A 
ATOM      5  C   UNL     1      -3.825  -4.537   0.346  0.00  0.00    +0.010 A 
ATOM      6  C   UNL     1      -4.898  -3.798  -0.041  0.00  0.00    +0.001 A 
ATOM      7  C   UNL     1      -5.156  -2.509   0.436  0.00  0.00    +0.002 A 
ATOM      8  C   UNL     1      -4.378  -1.853   1.333  0.00  0.00    +0.026 A 
ATOM      9  C   UNL     1      -3.221  -2.531   1.818  0.00  0.00    +0.043 A 
ATOM     10  N   UNL     1      -2.318  -2.144   2.701  0.00  0.00    -0.375 N 
ATOM     11  C   UNL     1      -0.969  -5.570   1.637  0.00  0.00    +0.052 C 
ATOM     12  C   UNL     1       0.467  -5.091   1.350  0.00  0.00    +0.113 C 
ATOM     13  N   UNL     1       0.848  -4.074   2.337  0.00  0.00    -0.292 N 
ATOM     14  C   UNL     1       1.934  -4.267   3.111  0.00  0.00    +0.216 C 
ATOM     15  O   UNL     1       2.253  -3.429   3.928  0.00  0.00    -0.276 OA
ATOM     16  H   UNL     1      -2.275  -1.287   3.155  0.00  0.00    +0.160 HD
ENDROOT
BRANCH   1  22
ATOM     17  C   UNL     1      -0.947  -2.660  -2.412  0.00  0.00    +0.044 C 
ATOM     18  C   UNL     1      -0.441  -1.996  -1.157  0.00  0.00    -0.050 A 
ATOM     19  C   UNL     1       0.008  -0.689  -1.199  0.00  0.00    +0.003 A 
ATOM     20  C   UNL     1       0.472  -0.080  -0.049  0.00  0.00    +0.001 A 
ATOM     21  C   UNL     1       0.487  -0.778   1.145  0.00  0.00    +0.005 A 
ATOM     22  C   UNL     1       0.037  -2.084   1.188  0.00  0.00    -0.024 A 
ATOM     23  C   UNL     1      -0.431  -2.692   0.037  0.00  0.00    +0.009 A 
ENDBRANCH   1  22
BRANCH  14  24
ATOM     24  C   UNL     1       2.752  -5.523   2.962  0.00  0.00    +0.102 C 
BRANCH  24  25
ATOM     25  C   UNL     1       3.919  -5.492   3.950  0.00  0.00    +0.061 C 
BRANCH  25  26
ATOM     26  C   UNL     1       4.738  -6.749   3.801  0.00  0.00    +0.038 C 
ATOM     27  N   UNL     1       4.396  -7.620   2.934  0.00  0.00    -0.189 NA
ATOM     28  N   UNL     1       5.123  -8.802   2.762  0.00  0.00    -0.207 N 
ATOM     29  C   UNL     1       5.951  -9.240   3.730  0.00  0.00    +0.233 C 
ATOM     30  O   UNL     1       6.574 -10.270   3.581  0.00  0.00    -0.274 OA
ATOM     31  C   UNL     1       6.098  -8.441   5.001  0.00  0.00    +0.103 C 
ATOM     32  C   UNL     1       5.948  -6.951   4.673  0.00  0.00    +0.062 C 
ATOM     33  H   UNL     1       5.030  -9.309   1.940  0.00  0.00    +0.177 HD
ENDBRANCH  25  26
ENDBRANCH  24  25
ENDBRANCH  14  24
TORSDOF 4
