REMARK  Name = ZINC43041409
REMARK  7 active torsions:
REMARK  status: ('A' for Active; 'I' for Inactive)
REMARK    1  A    between atoms: C_1  and  C_2
REMARK    2  A    between atoms: C_7  and  N_12
REMARK    3  A    between atoms: C_9  and  C_11
REMARK    4  A    between atoms: N_15  and  C_16
REMARK    5  A    between atoms: N_15  and  C_24
REMARK    6  A    between atoms: C_16  and  C_17
REMARK    7  A    between atoms: C_21  and  O_23
REMARK                            x       y       z     vdW  Elec       q    Type
REMARK                         _______ _______ _______ _____ _____    ______ ____
ROOT
ATOM      1  N   UNL     1       1.649  -2.551   2.379  0.00  0.00    -0.296 N 
ATOM      2  C   UNL     1       1.412  -3.799   2.829  0.00  0.00    +0.303 C 
ATOM      3  O   UNL     1       0.735  -4.564   2.169  0.00  0.00    -0.253 OA
ATOM      4  N   UNL     1       1.924  -4.199   4.009  0.00  0.00    -0.278 N 
ATOM      5  H   UNL     1       2.126  -1.917   2.937  0.00  0.00    +0.151 HD
ENDROOT
BRANCH   1  11
ATOM      6  C   UNL     1       0.334   1.302  -0.426  0.00  0.00    +0.008 C 
ATOM      7  C   UNL     1       0.519  -0.216  -0.384  0.00  0.00    -0.009 C 
ATOM      8  C   UNL     1       1.555  -0.632  -1.430  0.00  0.00    +0.003 C 
ATOM      9  C   UNL     1       1.740  -2.150  -1.389  0.00  0.00    +0.002 C 
ATOM     10  C   UNL     1       2.223  -2.567   0.002  0.00  0.00    +0.022 C 
ATOM     11  C   UNL     1       1.187  -2.151   1.048  0.00  0.00    +0.078 C 
ATOM     12  C   UNL     1       1.002  -0.633   1.006  0.00  0.00    +0.009 C 
ATOM     13  C   UNL     1      -0.035  -0.217   2.052  0.00  0.00    +0.009 C 
ENDBRANCH   1  11
BRANCH   4  14
ATOM     14  C   UNL     1       2.646  -3.245   4.855  0.00  0.00    +0.078 C 
ATOM     15  C   UNL     1       3.297  -3.784   6.130  0.00  0.00    +0.024 C 
ATOM     16  C   UNL     1       2.042  -2.914   6.221  0.00  0.00    +0.024 C 
ENDBRANCH   4  14
BRANCH   4  17
ATOM     17  C   UNL     1       1.760  -5.587   4.447  0.00  0.00    +0.144 C 
BRANCH  17  18
ATOM     18  C   UNL     1       2.849  -6.436   3.843  0.00  0.00    -0.027 A 
ATOM     19  C   UNL     1       2.674  -6.998   2.592  0.00  0.00    +0.005 A 
ATOM     20  C   UNL     1       3.671  -7.778   2.036  0.00  0.00    +0.004 A 
ATOM     21  C   UNL     1       4.845  -7.998   2.730  0.00  0.00    +0.045 A 
ATOM     22  C   UNL     1       5.023  -7.436   3.985  0.00  0.00    +0.117 A 
ATOM     23  C   UNL     1       4.023  -6.649   4.539  0.00  0.00    +0.050 A 
BRANCH  22  24
ATOM     24  O   UNL     1       6.177  -7.651   4.670  0.00  0.00    -0.507 OA
ATOM     25  H   UNL     1       6.866  -6.994   4.496  0.00  0.00    +0.292 HD
ENDBRANCH  22  24
ENDBRANCH  17  18
ENDBRANCH   4  17
TORSDOF 5
