REMARK  Name = ZINC65330373
REMARK  4 active torsions:
REMARK  status: ('A' for Active; 'I' for Inactive)
REMARK    1  A    between atoms: C_1  and  C_2
REMARK    2  A    between atoms: C_7  and  S_8
REMARK    3  A    between atoms: S_8  and  N_11
REMARK    4  A    between atoms: N_11  and  C_12
REMARK                            x       y       z     vdW  Elec       q    Type
REMARK                         _______ _______ _______ _____ _____    ______ ____
ROOT
ATOM      1  N   UNL     1       1.177   1.029   2.916  0.00  0.00    -0.183 NA
ATOM      2  H   UNL     1       1.871   0.863   3.572  0.00  0.00    +0.148 HD
ENDROOT
BRANCH   1   3
ATOM      3  C   UNL     1       1.217   2.244   2.098  0.00  0.00    +0.118 C 
ATOM      4  C   UNL     1       2.671   2.610   1.790  0.00  0.00    +0.062 C 
ATOM      5  C   UNL     1       2.733   4.000   1.210  0.00  0.00    -0.003 A 
ATOM      6  C   UNL     1       3.872   4.386   0.522  0.00  0.00    +0.022 A 
ATOM      7  C   UNL     1       3.964   5.653  -0.019  0.00  0.00    +0.018 A 
ATOM      8  C   UNL     1       2.916   6.545   0.126  0.00  0.00    +0.019 A 
ATOM      9  C   UNL     1       1.779   6.165   0.810  0.00  0.00    +0.047 A 
ATOM     10  C   UNL     1       1.682   4.888   1.354  0.00  0.00    +0.124 A 
ATOM     11  O   UNL     1       0.542   4.549   2.010  0.00  0.00    -0.490 OA
ATOM     12  C   UNL     1       0.580   3.408   2.868  0.00  0.00    +0.249 C 
ATOM     13 BR   UNL     1       5.522   6.170  -0.957  0.00  0.00    -0.050 Br
ENDBRANCH   1   3
BRANCH   1  14
ATOM     14  S   UNL     1      -0.056  -0.059   2.721  0.00  0.00    +0.059 S 
ATOM     15  O   UNL     1      -1.265   0.686   2.751  0.00  0.00    -0.153 OA
ATOM     16  O   UNL     1       0.202  -1.130   3.620  0.00  0.00    -0.153 OA
BRANCH  14  23
ATOM     17  C   UNL     1       2.276  -1.734   1.768  0.00  0.00    +0.046 C 
ATOM     18  C   UNL     1       1.193  -1.478   0.751  0.00  0.00    -0.024 A 
ATOM     19  C   UNL     1       1.302  -2.002  -0.523  0.00  0.00    +0.005 A 
ATOM     20  C   UNL     1       0.309  -1.767  -1.455  0.00  0.00    +0.000 A 
ATOM     21  C   UNL     1      -0.794  -1.008  -1.113  0.00  0.00    +0.002 A 
ATOM     22  C   UNL     1      -0.904  -0.484   0.161  0.00  0.00    +0.029 A 
ATOM     23  C   UNL     1       0.087  -0.722   1.095  0.00  0.00    +0.108 A 
ENDBRANCH  14  23
ENDBRANCH   1  14
TORSDOF 3
