REMARK  Name = ZINC50767515
REMARK  8 active torsions:
REMARK  status: ('A' for Active; 'I' for Inactive)
REMARK    1  A    between atoms: C_1  and  C_2
REMARK    2  A    between atoms: C_2  and  C_3
REMARK    3  A    between atoms: C_3  and  C_4
REMARK    4  A    between atoms: C_4  and  C_6
REMARK    5  A    between atoms: C_4  and  N_23
REMARK    6  A    between atoms: C_12  and  C_15
REMARK    7  A    between atoms: C_15  and  C_16
REMARK    8  A    between atoms: C_19  and  C_22
REMARK                            x       y       z     vdW  Elec       q    Type
REMARK                         _______ _______ _______ _____ _____    ______ ____
ROOT
ATOM      1  C   UNL     1       1.382  -2.542   2.512  0.00  0.00    +0.236 C 
ATOM      2  O   UNL     1       2.541  -2.900   2.525  0.00  0.00    -0.274 OA
ATOM      3  N   UNL     1       0.649  -2.591   3.642  0.00  0.00    -0.300 N 
ATOM      4  C   UNL     1      -0.758  -2.166   3.641  0.00  0.00    +0.108 C 
ATOM      5  C   UNL     1      -0.957  -1.119   4.741  0.00  0.00    +0.019 C 
ATOM      6  C   UNL     1      -0.474  -1.690   6.076  0.00  0.00    +0.007 C 
ATOM      7  C   UNL     1       1.018  -2.015   5.984  0.00  0.00    +0.011 C 
ATOM      8  C   UNL     1       1.239  -3.078   4.897  0.00  0.00    +0.111 C 
ENDROOT
BRANCH   1   9
ATOM      9  C   UNL     1       0.763  -2.041   1.233  0.00  0.00    +0.160 C 
BRANCH   9  10
ATOM     10  N   UNL     1       1.551  -2.512   0.092  0.00  0.00    -0.288 N 
ATOM     11  C   UNL     1       2.849  -2.168  -0.019  0.00  0.00    +0.298 C 
ATOM     12  O   UNL     1       3.367  -1.467   0.829  0.00  0.00    -0.253 OA
ATOM     13  N   UNL     1       3.574  -2.602  -1.069  0.00  0.00    -0.313 N 
ATOM     14  H   UNL     1       1.138  -3.072  -0.585  0.00  0.00    +0.151 HD
ATOM     15  H   UNL     1       3.161  -3.162  -1.745  0.00  0.00    +0.146 HD
ATOM     16  H   UNL     1       4.509  -2.354  -1.149  0.00  0.00    +0.146 HD
ENDBRANCH   9  10
BRANCH   9  17
ATOM     17  C   UNL     1       0.742  -0.511   1.242  0.00  0.00    +0.031 C 
BRANCH  17  19
ATOM     18  C   UNL     1      -0.019   1.526   0.010  0.00  0.00    +0.004 C 
ATOM     19  C   UNL     1       0.002  -0.004   0.002  0.00  0.00    -0.001 C 
ENDBRANCH  17  19
ENDBRANCH   9  17
ENDBRANCH   1   9
BRANCH   7  20
ATOM     20  C   UNL     1       1.508  -2.554   7.330  0.00  0.00    +0.040 C 
BRANCH  20  21
ATOM     21  C   UNL     1       1.399  -1.472   8.373  0.00  0.00    -0.047 A 
ATOM     22  C   UNL     1       2.459  -0.611   8.589  0.00  0.00    +0.004 A 
ATOM     23  C   UNL     1       2.360   0.382   9.546  0.00  0.00    +0.003 A 
ATOM     24  C   UNL     1       1.201   0.513  10.287  0.00  0.00    -0.050 A 
ATOM     25  C   UNL     1       0.141  -0.347  10.072  0.00  0.00    +0.003 A 
ATOM     26  C   UNL     1       0.238  -1.337   9.111  0.00  0.00    +0.004 A 
ATOM     27  C   UNL     1       1.093   1.595  11.332  0.00  0.00    +0.044 C 
ENDBRANCH  20  21
ENDBRANCH   7  20
TORSDOF 6
