REMARK  Name = ZINC61557460
REMARK  12 active torsions:
REMARK  status: ('A' for Active; 'I' for Inactive)
REMARK    1  A    between atoms: C_1  and  N_2
REMARK    2  A    between atoms: N_2  and  C_3
REMARK    3  A    between atoms: N_2  and  C_4
REMARK    4  A    between atoms: C_4  and  C_5
REMARK    5  A    between atoms: C_10  and  C_11
REMARK    6  A    between atoms: C_11  and  N_12
REMARK    7  A    between atoms: N_12  and  C_13
REMARK    8  A    between atoms: C_13  and  C_14
REMARK    9  A    between atoms: C_17  and  O_24
REMARK   10  A    between atoms: C_19  and  O_20
REMARK   11  A    between atoms: O_20  and  C_21
REMARK   12  A    between atoms: O_24  and  C_25
REMARK                            x       y       z     vdW  Elec       q    Type
REMARK                         _______ _______ _______ _____ _____    ______ ____
ROOT
ATOM      1  N   UNL     1      -0.719  -3.201   2.342  0.00  0.00    +0.384 N 
ATOM      2  H   UNL     1       0.242  -2.974   2.134  0.00  0.00    -0.085 HD
ATOM      3  H   UNL     1      -0.809  -3.412   3.325  0.00  0.00    -0.085 HD
ENDROOT
BRANCH   1   4
ATOM      4  C   UNL     1      -1.575  -2.055   2.007  0.00  0.00    -0.046 C 
BRANCH   4  10
ATOM      5  C   UNL     1      -0.059  -0.109   2.429  0.00  0.00    -0.063 A 
ATOM      6  C   UNL     1       0.324   0.993   3.171  0.00  0.00    +0.002 A 
ATOM      7  C   UNL     1      -0.384   1.343   4.305  0.00  0.00    +0.000 A 
ATOM      8  C   UNL     1      -1.476   0.591   4.698  0.00  0.00    +0.000 A 
ATOM      9  C   UNL     1      -1.859  -0.510   3.956  0.00  0.00    +0.002 A 
ATOM     10  C   UNL     1      -1.154  -0.858   2.819  0.00  0.00    -0.063 A 
BRANCH   5  11
ATOM     11  C   UNL     1       0.713  -0.491   1.192  0.00  0.00    -0.044 C 
BRANCH  11  13
ATOM     12  C   UNL     1      -0.018   1.465   0.010  0.00  0.00    -0.096 C 
ATOM     13  N   UNL     1       0.002  -0.004   0.002  0.00  0.00    +0.379 N 
ATOM     14  C   UNL     1       0.690  -0.478  -1.207  0.00  0.00    -0.096 C 
ATOM     15  H   UNL     1      -0.945  -0.353   0.009  0.00  0.00    -0.082 HD
ENDBRANCH  11  13
ENDBRANCH   5  11
ENDBRANCH   4  10
ENDBRANCH   1   4
BRANCH   1  16
ATOM     16  C   UNL     1      -1.130  -4.368   1.551  0.00  0.00    -0.043 C 
BRANCH  16  17
ATOM     17  C   UNL     1      -0.251  -5.543   1.895  0.00  0.00    -0.022 A 
ATOM     18  C   UNL     1       0.803  -5.883   1.068  0.00  0.00    +0.009 A 
ATOM     19  C   UNL     1       1.610  -6.959   1.381  0.00  0.00    +0.046 A 
ATOM     20  C   UNL     1       1.365  -7.702   2.527  0.00  0.00    +0.130 A 
ATOM     21  C   UNL     1       0.308  -7.363   3.359  0.00  0.00    +0.091 A 
ATOM     22  C   UNL     1      -0.497  -6.279   3.045  0.00  0.00    +0.132 A 
BRANCH  22  23
ATOM     23  O   UNL     1      -1.530  -5.941   3.861  0.00  0.00    -0.434 OA
BRANCH  23  24
ATOM     24  C   UNL     1      -1.724  -6.743   5.028  0.00  0.00    +0.541 C 
ATOM     25  F   UNL     1      -1.964  -8.068   4.649  0.00  0.00    -0.166 F 
ATOM     26  F   UNL     1      -0.579  -6.687   5.829  0.00  0.00    -0.166 F 
ENDBRANCH  23  24
ENDBRANCH  22  23
BRANCH  20  27
ATOM     27  O   UNL     1       2.159  -8.761   2.834  0.00  0.00    -0.434 OA
BRANCH  27  28
ATOM     28  C   UNL     1       3.228  -9.053   1.933  0.00  0.00    +0.541 C 
ATOM     29  F   UNL     1       2.706  -9.330   0.664  0.00  0.00    -0.166 F 
ATOM     30  F   UNL     1       4.086  -7.951   1.854  0.00  0.00    -0.166 F 
ENDBRANCH  27  28
ENDBRANCH  20  27
ENDBRANCH  16  17
ENDBRANCH   1  16
TORSDOF 10
