REMARK  Name = ZINC62729711
REMARK  13 active torsions:
REMARK  status: ('A' for Active; 'I' for Inactive)
REMARK    1  A    between atoms: C_1  and  C_2
REMARK    2  A    between atoms: C_2  and  C_3
REMARK    3  A    between atoms: C_3  and  C_4
REMARK    4  A    between atoms: C_4  and  O_5
REMARK    5  A    between atoms: O_5  and  C_6
REMARK    6  A    between atoms: C_7  and  O_19
REMARK    7  A    between atoms: C_9  and  C_13
REMARK    8  A    between atoms: C_13  and  N_14
REMARK    9  A    between atoms: N_14  and  C_15
REMARK   10  A    between atoms: C_15  and  C_16
REMARK   11  A    between atoms: C_15  and  C_17
REMARK   12  A    between atoms: C_15  and  C_18
REMARK   13  A    between atoms: O_19  and  C_20
REMARK                            x       y       z     vdW  Elec       q    Type
REMARK                         _______ _______ _______ _____ _____    ______ ____
ROOT
ATOM      1  C   UNL     1       1.514  -3.834  -2.603  0.00  0.00    +0.176 A 
ATOM      2  C   UNL     1       2.614  -4.514  -2.090  0.00  0.00    +0.163 A 
ATOM      3  C   UNL     1       2.717  -5.886  -2.258  0.00  0.00    +0.051 A 
ATOM      4  C   UNL     1       1.729  -6.576  -2.935  0.00  0.00    -0.060 A 
ATOM      5  C   UNL     1       0.636  -5.901  -3.446  0.00  0.00    +0.021 A 
ATOM      6  C   UNL     1       0.523  -4.533  -3.276  0.00  0.00    +0.063 A 
ATOM      7 BR   UNL     1      -0.977  -3.614  -3.970  0.00  0.00    -0.046 Br
ENDROOT
BRANCH   2   8
ATOM      8  O   UNL     1       3.585  -3.834  -1.424  0.00  0.00    -0.491 OA
ATOM      9  C   UNL     1       4.685  -4.598  -0.924  0.00  0.00    +0.277 C 
ENDBRANCH   2   8
BRANCH   1  10
ATOM     10  O   UNL     1       1.408  -2.488  -2.441  0.00  0.00    -0.487 OA
BRANCH  10  11
ATOM     11  C   UNL     1       0.739  -2.027  -1.265  0.00  0.00    +0.229 C 
BRANCH  11  12
ATOM     12  C   UNL     1       0.718  -0.497  -1.257  0.00  0.00    +0.041 C 
BRANCH  12  14
ATOM     13  C   UNL     1      -0.019   1.526   0.010  0.00  0.00    +0.004 C 
ATOM     14  C   UNL     1       0.002  -0.004   0.002  0.00  0.00    -0.000 C 
ENDBRANCH  12  14
ENDBRANCH  11  12
ENDBRANCH  10  11
ENDBRANCH   1  10
BRANCH   4  15
ATOM     15  C   UNL     1       1.843  -8.068  -3.117  0.00  0.00    -0.046 C 
BRANCH  15  16
ATOM     16  N   UNL     1       1.202  -8.750  -1.985  0.00  0.00    +0.385 N 
ATOM     17  H   UNL     1       1.659  -8.479  -1.127  0.00  0.00    -0.085 HD
ATOM     18  H   UNL     1       0.228  -8.490  -1.943  0.00  0.00    -0.085 HD
BRANCH  16  19
ATOM     19  C   UNL     1       1.314 -10.204  -2.162  0.00  0.00    -0.077 C 
ATOM     20  C   UNL     1       2.791 -10.598  -2.224  0.00  0.00    -0.011 C 
ATOM     21  C   UNL     1       0.646 -10.914  -0.983  0.00  0.00    -0.011 C 
ATOM     22  C   UNL     1       0.621 -10.614  -3.463  0.00  0.00    -0.011 C 
ENDBRANCH  16  19
ENDBRANCH  15  16
ENDBRANCH   4  15
TORSDOF 8
