REMARK  Name = ZINC03281146
REMARK  10 active torsions:
REMARK  status: ('A' for Active; 'I' for Inactive)
REMARK    1  A    between atoms: C_1  and  C_2
REMARK    2  A    between atoms: C_2  and  O_3
REMARK    3  A    between atoms: O_3  and  C_4
REMARK    4  A    between atoms: C_4  and  C_6
REMARK    5  A    between atoms: C_10  and  N_11
REMARK    6  A    between atoms: N_11  and  C_12
REMARK    7  A    between atoms: C_12  and  N_14
REMARK    8  A    between atoms: C_15  and  C_17
REMARK    9  A    between atoms: C_25  and  C_26
REMARK   10  A    between atoms: C_25  and  N_61
REMARK                            x       y       z     vdW  Elec       q    Type
REMARK                         _______ _______ _______ _____ _____    ______ ____
ROOT
ATOM      1  C   UNL     1       8.910   3.748   0.454  0.00  0.00    +0.091 A 
ATOM      2  C   UNL     1      10.228   3.534  -0.116  0.00  0.00    -0.025 A 
ATOM      3  C   UNL     1      10.344   2.446  -0.910  0.00  0.00    -0.021 A 
ATOM      4  S   UNL     1       8.738   1.705  -0.900  0.00  0.00    -0.079 S 
ATOM      5  C   UNL     1       7.920   2.822   0.142  0.00  0.00    +0.086 A 
ATOM      6  C   UNL     1      11.579   1.997  -1.627  0.00  0.00    -0.035 C 
ATOM      7  C   UNL     1      12.694   3.668  -0.272  0.00  0.00    -0.073 C 
ATOM      8  C   UNL     1      11.431   4.439   0.122  0.00  0.00    +0.018 C 
ATOM      9  N   UNL     1      12.534   3.132  -1.640  0.00  0.00    +0.386 N 
ATOM     10  H   UNL     1      12.165   3.873  -2.248  0.00  0.00    -0.081 HD
ENDROOT
BRANCH   1  11
ATOM     11  C   UNL     1       8.635   4.890   1.326  0.00  0.00    +0.342 C 
ATOM     12  O   UNL     1       8.794   4.790   2.528  0.00  0.00    -0.245 OA
BRANCH  11  13
ATOM     13  O   UNL     1       8.205   6.054   0.798  0.00  0.00    -0.461 OA
BRANCH  13  15
ATOM     14  C   UNL     1       7.476   8.373   0.945  0.00  0.00    +0.048 C 
ATOM     15  C   UNL     1       7.953   7.145   1.723  0.00  0.00    +0.229 C 
ENDBRANCH  13  15
ENDBRANCH  11  13
ENDBRANCH   1  11
BRANCH   5  16
ATOM     16  N   UNL     1       6.599   2.802   0.558  0.00  0.00    -0.290 N 
ATOM     17  H   UNL     1       6.266   3.497   1.148  0.00  0.00    +0.154 HD
BRANCH  16  18
ATOM     18  C   UNL     1       5.777   1.818   0.143  0.00  0.00    +0.141 C 
ATOM     19  S   UNL     1       6.365   0.593  -0.898  0.00  0.00    -0.018 S 
BRANCH  18  20
ATOM     20  N   UNL     1       4.492   1.798   0.548  0.00  0.00    -0.267 N 
ATOM     21  C   UNL     1       3.670   0.814   0.134  0.00  0.00    +0.222 C 
ATOM     22  O   UNL     1       4.086  -0.053  -0.604  0.00  0.00    -0.275 OA
ATOM     23  H   UNL     1       4.159   2.493   1.138  0.00  0.00    +0.157 HD
BRANCH  21  24
ATOM     24  C   UNL     1       2.232   0.792   0.586  0.00  0.00    +0.075 C 
ATOM     25  C   UNL     1       1.453   1.995  -0.001  0.00  0.00    +0.013 C 
ATOM     26  C   UNL     1      -0.019   1.534   0.011  0.00  0.00    +0.001 C 
ATOM     27  C   UNL     1       0.002  -0.004   0.002  0.00  0.00    +0.001 C 
ATOM     28  C   UNL     1       1.486  -0.425  -0.014  0.00  0.00    +0.013 C 
ENDBRANCH  21  24
ENDBRANCH  18  20
ENDBRANCH  16  18
ENDBRANCH   5  16
BRANCH   9  29
ATOM     29  C   UNL     1      13.842   2.686  -2.165  0.00  0.00    -0.043 C 
BRANCH  29  30
ATOM     30  C   UNL     1      13.693   2.355  -3.627  0.00  0.00    -0.064 A 
ATOM     31  C   UNL     1      13.376   1.066  -4.015  0.00  0.00    +0.002 A 
ATOM     32  C   UNL     1      13.235   0.763  -5.356  0.00  0.00    +0.000 A 
ATOM     33  C   UNL     1      13.421   1.746  -6.310  0.00  0.00    +0.000 A 
ATOM     34  C   UNL     1      13.743   3.033  -5.923  0.00  0.00    +0.000 A 
ATOM     35  C   UNL     1      13.879   3.337  -4.581  0.00  0.00    +0.002 A 
ENDBRANCH  29  30
ENDBRANCH   9  29
TORSDOF 9
