REMARK  Name = ZINC63479075
REMARK  11 active torsions:
REMARK  status: ('A' for Active; 'I' for Inactive)
REMARK    1  A    between atoms: C_1  and  C_2
REMARK    2  A    between atoms: C_2  and  C_3
REMARK    3  A    between atoms: C_3  and  N_4
REMARK    4  A    between atoms: N_4  and  C_5
REMARK    5  A    between atoms: N_4  and  C_8
REMARK    6  A    between atoms: C_5  and  C_6
REMARK    7  A    between atoms: C_6  and  C_7
REMARK    8  A    between atoms: C_8  and  C_9
REMARK    9  A    between atoms: C_9  and  C_10
REMARK   10  A    between atoms: C_10  and  N_11
REMARK   11  A    between atoms: C_12  and  C_14
REMARK                            x       y       z     vdW  Elec       q    Type
REMARK                         _______ _______ _______ _____ _____    ______ ____
ROOT
ATOM      1  N   UNL     1      -0.316  -2.102   6.087  0.00  0.00    -0.314 N 
ATOM      2  C   UNL     1      -0.119  -2.476   7.366  0.00  0.00    +0.230 C 
ATOM      3  O   UNL     1       0.801  -3.215   7.647  0.00  0.00    -0.274 OA
ATOM      4  H   UNL     1      -1.052  -1.511   5.862  0.00  0.00    +0.149 HD
ENDROOT
BRANCH   2   5
ATOM      5  C   UNL     1      -1.042  -1.978   8.448  0.00  0.00    +0.160 C 
ATOM      6  C   UNL     1      -1.094  -2.949   9.606  0.00  0.00    +0.011 C 
ATOM      7  C   UNL     1      -0.659  -2.462  10.785  0.00  0.00    +0.049 C 
ATOM      8  C   UNL     1      -0.194  -1.067  10.809  0.00  0.00    +0.030 C 
ATOM      9  C   UNL     1       0.269  -0.507  12.012  0.00  0.00    +0.010 A 
ATOM     10  C   UNL     1       0.719   0.821  12.065  0.00  0.00    +0.011 A 
ATOM     11  C   UNL     1       1.164   1.341  13.245  0.00  0.00    +0.001 A 
ATOM     12  C   UNL     1       1.178   0.567  14.401  0.00  0.00    +0.002 A 
ATOM     13  C   UNL     1       0.748  -0.726  14.385  0.00  0.00    +0.024 A 
ATOM     14  C   UNL     1       0.282  -1.298  13.190  0.00  0.00    +0.042 A 
ATOM     15  N   UNL     1      -0.141  -2.568  13.173  0.00  0.00    -0.281 N 
ATOM     16  C   UNL     1      -0.592  -3.181  12.097  0.00  0.00    +0.249 C 
ATOM     17  O   UNL     1      -0.959  -4.344  12.170  0.00  0.00    -0.270 OA
ATOM     18  S   UNL     1      -0.361  -0.476   9.254  0.00  0.00    -0.107 S 
ATOM     19  H   UNL     1      -0.113  -3.068  14.004  0.00  0.00    +0.155 HD
ENDBRANCH   2   5
BRANCH   1  20
ATOM     20  C   UNL     1       0.581  -2.586   5.035  0.00  0.00    +0.102 C 
BRANCH  20  21
ATOM     21  C   UNL     1       0.140  -2.016   3.685  0.00  0.00    +0.000 C 
BRANCH  21  22
ATOM     22  C   UNL     1       1.077  -2.522   2.587  0.00  0.00    -0.077 C 
BRANCH  22  23
ATOM     23  N   UNL     1       0.653  -1.975   1.291  0.00  0.00    +0.380 N 
ATOM     24  H   UNL     1      -0.316  -2.204   1.130  0.00  0.00    -0.082 HD
BRANCH  23  25
ATOM     25  C   UNL     1       0.816  -0.515   1.299  0.00  0.00    -0.079 C 
BRANCH  25  27
ATOM     26  C   UNL     1       0.291   1.597   0.072  0.00  0.00    +0.002 C 
ATOM     27  C   UNL     1       0.243   0.069   0.006  0.00  0.00    -0.022 C 
ENDBRANCH  25  27
ENDBRANCH  23  25
BRANCH  23  28
ATOM     28  C   UNL     1       1.477  -2.554   0.222  0.00  0.00    -0.079 C 
BRANCH  28  29
ATOM     29  C   UNL     1       1.198  -4.055   0.119  0.00  0.00    -0.022 C 
ATOM     30  C   UNL     1       1.955  -4.633  -1.079  0.00  0.00    +0.002 C 
ENDBRANCH  28  29
ENDBRANCH  23  28
ENDBRANCH  22  23
ENDBRANCH  21  22
ENDBRANCH  20  21
ENDBRANCH   1  20
TORSDOF 9
