REMARK  Name = ZINC63941074
REMARK  4 active torsions:
REMARK  status: ('A' for Active; 'I' for Inactive)
REMARK    1  A    between atoms: C_12  and  N_15
REMARK    2  A    between atoms: C_16  and  C_18
REMARK    3  A    between atoms: C_18  and  S_19
REMARK    4  A    between atoms: S_19  and  C_20
REMARK                            x       y       z     vdW  Elec       q    Type
REMARK                         _______ _______ _______ _____ _____    ______ ____
ROOT
ATOM      1  N   UNL     1       6.929  -0.591  -1.275  0.00  0.00    -0.288 N 
ATOM      2  C   UNL     1       8.198  -1.039  -1.344  0.00  0.00    +0.225 C 
ATOM      3  O   UNL     1       8.686  -1.627  -0.402  0.00  0.00    -0.275 OA
ATOM      4  H   UNL     1       6.539  -0.121  -2.028  0.00  0.00    +0.151 HD
ENDROOT
BRANCH   1  16
ATOM      5  C   UNL     1      -0.016   1.357   0.009  0.00  0.00    +0.001 A 
ATOM      6  C   UNL     1       1.168   2.091   0.002  0.00  0.00    +0.001 A 
ATOM      7  C   UNL     1       2.378   1.468  -0.013  0.00  0.00    +0.010 A 
ATOM      8  C   UNL     1       2.434   0.064  -0.021  0.00  0.00    +0.004 A 
ATOM      9  C   UNL     1       1.236  -0.683  -0.013  0.00  0.00    -0.016 A 
ATOM     10  C   UNL     1       0.002  -0.004   0.002  0.00  0.00    +0.008 A 
ATOM     11  C   UNL     1       1.278  -2.088  -0.022  0.00  0.00    +0.010 A 
ATOM     12  C   UNL     1       2.490  -2.712  -0.037  0.00  0.00    +0.017 A 
ATOM     13  C   UNL     1       3.670  -1.982  -0.044  0.00  0.00    +0.033 A 
ATOM     14  C   UNL     1       3.702  -0.594  -0.037  0.00  0.00    +0.051 A 
ATOM     15  N   UNL     1       4.942   0.039  -0.045  0.00  0.00    -0.316 N 
ATOM     16  C   UNL     1       6.139  -0.813  -0.061  0.00  0.00    +0.224 C 
ATOM     17  S   UNL     1       5.377  -2.485  -0.063  0.00  0.00    -0.082 S 
ATOM     18  H   UNL     1       5.013   1.007  -0.041  0.00  0.00    +0.149 HD
ENDBRANCH   1  16
BRANCH   2  19
ATOM     19  C   UNL     1       9.011  -0.810  -2.592  0.00  0.00    +0.168 C 
BRANCH  19  20
ATOM     20  S   UNL     1      10.664  -1.525  -2.377  0.00  0.00    -0.106 S 
BRANCH  20  21
ATOM     21  C   UNL     1      11.504  -1.170  -3.945  0.00  0.00    +0.236 C 
ATOM     22  N   UNL     1      10.739  -1.733  -5.065  0.00  0.00    -0.355 N 
ATOM     23  C   UNL     1      10.395  -0.744  -5.839  0.00  0.00    +0.061 A 
ATOM     24  C   UNL     1       9.633  -0.676  -7.093  0.00  0.00    +0.027 A 
ATOM     25  C   UNL     1       9.429   0.519  -7.684  0.00  0.00    +0.002 A 
ATOM     26  C   UNL     1       9.920   1.722  -7.148  0.00  0.00    +0.002 A 
ATOM     27  C   UNL     1      10.632   1.772  -6.004  0.00  0.00    +0.027 A 
ATOM     28  C   UNL     1      10.915   0.530  -5.272  0.00  0.00    +0.061 A 
ATOM     29  N   UNL     1      11.560   0.280  -4.169  0.00  0.00    -0.355 N 
ATOM     30  H   UNL     1      10.529  -2.670  -5.203  0.00  0.00    +0.162 HD
ATOM     31  H   UNL     1      11.997   0.933  -3.600  0.00  0.00    +0.162 HD
ENDBRANCH  20  21
ENDBRANCH  19  20
ENDBRANCH   2  19
TORSDOF 4
