REMARK  Name = ZINC64788633
REMARK  6 active torsions:
REMARK  status: ('A' for Active; 'I' for Inactive)
REMARK    1  A    between atoms: C_1  and  C_2
REMARK    2  A    between atoms: C_2  and  O_3
REMARK    3  A    between atoms: O_3  and  C_4
REMARK    4  A    between atoms: C_9  and  C_10
REMARK    5  A    between atoms: N_21  and  C_24
REMARK    6  A    between atoms: C_29  and  C_30
REMARK                            x       y       z     vdW  Elec       q    Type
REMARK                         _______ _______ _______ _____ _____    ______ ____
ROOT
ATOM      1  C   UNL     1      -3.981  -1.497   0.032  0.00  0.00    +0.112 C 
ATOM      2  C   UNL     1      -4.307  -1.033   1.472  0.00  0.00    +0.078 C 
ATOM      3  C   UNL     1      -5.825  -1.048   1.479  0.00  0.00    +0.038 C 
ATOM      4  N   UNL     1      -6.237  -1.746   0.404  0.00  0.00    -0.283 N 
ATOM      5  N   UNL     1      -5.205  -2.248  -0.332  0.00  0.00    -0.235 NA
ATOM      6  C   UNL     1      -6.639  -0.450   2.423  0.00  0.00    +0.118 C 
ATOM      7  C   UNL     1      -6.077   0.298   3.561  0.00  0.00    +0.258 C 
ATOM      8  N   UNL     1      -6.933   0.855   4.443  0.00  0.00    -0.235 N 
ATOM      9  C   UNL     1      -8.260   0.740   4.300  0.00  0.00    +0.320 C 
ATOM     10  O   UNL     1      -8.976   1.265   5.129  0.00  0.00    -0.251 OA
ATOM     11  N   UNL     1      -8.840   0.075   3.290  0.00  0.00    -0.189 N 
ATOM     12  C   UNL     1      -8.108  -0.527   2.331  0.00  0.00    +0.265 C 
ATOM     13  O   UNL     1      -8.646  -1.123   1.416  0.00  0.00    -0.269 OA
ATOM     14  O   UNL     1      -4.874   0.409   3.703  0.00  0.00    -0.270 OA
ATOM     15  H   UNL     1      -5.395  -2.173  -1.320  0.00  0.00    +0.145 HD
ATOM     16  H   UNL     1      -6.579   1.351   5.198  0.00  0.00    +0.159 HD
ATOM     17  H   UNL     1      -7.171  -1.877   0.177  0.00  0.00    +0.166 HD
ENDROOT
BRANCH  11  18
ATOM     18  C   UNL     1     -10.238   0.010   3.227  0.00  0.00    +0.049 A 
ATOM     19  C   UNL     1     -10.950   0.982   2.538  0.00  0.00    +0.024 A 
ATOM     20  C   UNL     1     -12.328   0.915   2.477  0.00  0.00    +0.002 A 
ATOM     21  C   UNL     1     -12.999  -0.120   3.103  0.00  0.00    +0.000 A 
ATOM     22  C   UNL     1     -12.293  -1.090   3.790  0.00  0.00    +0.005 A 
ATOM     23  C   UNL     1     -10.915  -1.031   3.849  0.00  0.00    -0.029 A 
ATOM     24  C   UNL     1     -10.146  -2.092   4.593  0.00  0.00    +0.045 C 
ENDBRANCH  11  18
BRANCH   1  30
ATOM     25  C   UNL     1      -1.498  -1.848   0.006  0.00  0.00    +0.125 A 
ATOM     26  C   UNL     1      -0.387  -2.679  -0.003  0.00  0.00    +0.046 A 
ATOM     27  C   UNL     1      -0.552  -4.051  -0.008  0.00  0.00    +0.004 A 
ATOM     28  C   UNL     1      -1.823  -4.596  -0.004  0.00  0.00    +0.001 A 
ATOM     29  C   UNL     1      -2.932  -3.769   0.004  0.00  0.00    +0.009 A 
ATOM     30  C   UNL     1      -2.772  -2.397   0.016  0.00  0.00    +0.013 A 
BRANCH  25  31
ATOM     31  O   UNL     1      -1.339  -0.499   0.012  0.00  0.00    -0.492 OA
BRANCH  31  33
ATOM     32  C   UNL     1      -0.019   1.526   0.010  0.00  0.00    +0.048 C 
ATOM     33  C   UNL     1       0.002  -0.004   0.002  0.00  0.00    +0.225 C 
ENDBRANCH  31  33
ENDBRANCH  25  31
ENDBRANCH   1  30
TORSDOF 4
