REMARK  Name = ZINC17000883
REMARK  11 active torsions:
REMARK  status: ('A' for Active; 'I' for Inactive)
REMARK    1  A    between atoms: C_1  and  C_2
REMARK    2  A    between atoms: C_2  and  C_4
REMARK    3  A    between atoms: C_2  and  S_19
REMARK    4  A    between atoms: N_6  and  C_7
REMARK    5  A    between atoms: C_8  and  C_17
REMARK    6  A    between atoms: S_19  and  C_20
REMARK    7  A    between atoms: C_23  and  C_29
REMARK    8  A    between atoms: N_24  and  C_25
REMARK    9  A    between atoms: C_25  and  C_26
REMARK   10  A    between atoms: C_26  and  C_27
REMARK   11  A    between atoms: C_26  and  C_28
REMARK                            x       y       z     vdW  Elec       q    Type
REMARK                         _______ _______ _______ _____ _____    ______ ____
ROOT
ATOM      1  C   UNL     1      -0.019   1.526   0.010  0.00  0.00    +0.029 C 
ATOM      2  C   UNL     1       0.002  -0.004   0.002  0.00  0.00    +0.137 C 
ENDROOT
BRANCH   2   3
ATOM      3  C   UNL     1       0.731  -0.503   1.223  0.00  0.00    +0.231 C 
ATOM      4  O   UNL     1       1.911  -0.775   1.156  0.00  0.00    -0.274 OA
ATOM      5  N   UNL     1       0.071  -0.647   2.389  0.00  0.00    -0.278 N 
ATOM      6  H   UNL     1      -0.872  -0.430   2.443  0.00  0.00    +0.155 HD
BRANCH   5   7
ATOM      7  C   UNL     1       0.743  -1.107   3.514  0.00  0.00    +0.090 A 
ATOM      8  C   UNL     1       0.232  -1.320   4.782  0.00  0.00    +0.084 A 
ATOM      9  C   UNL     1       1.149  -1.811   5.800  0.00  0.00    -0.018 A 
ATOM     10  C   UNL     1       2.412  -1.991   5.358  0.00  0.00    -0.004 A 
ATOM     11  S   UNL     1       2.359  -1.539   3.647  0.00  0.00    -0.077 S 
ATOM     12  C   UNL     1       3.597  -2.462   6.142  0.00  0.00    +0.043 C 
ATOM     13  C   UNL     1       3.212  -3.723   6.927  0.00  0.00    +0.005 C 
ATOM     14  C   UNL     1       2.661  -3.301   8.286  0.00  0.00    +0.001 C 
ATOM     15  C   UNL     1       1.922  -1.970   8.165  0.00  0.00    +0.005 C 
ATOM     16  C   UNL     1       0.724  -2.108   7.231  0.00  0.00    +0.037 C 
BRANCH   8  17
ATOM     17  C   UNL     1      -1.145  -1.068   5.081  0.00  0.00    +0.102 C 
ATOM     18  N   UNL     1      -2.238  -0.868   5.318  0.00  0.00    -0.191 NA
ENDBRANCH   8  17
ENDBRANCH   5   7
ENDBRANCH   2   3
BRANCH   2  19
ATOM     19  S   UNL     1       0.851  -0.589  -1.490  0.00  0.00    -0.074 S 
BRANCH  19  20
ATOM     20  C   UNL     1      -0.189  -0.057  -2.809  0.00  0.00    +0.193 A 
ATOM     21  N   UNL     1      -1.313   0.615  -2.693  0.00  0.00    -0.122 NA
ATOM     22  N   UNL     1      -1.816   0.840  -3.853  0.00  0.00    -0.125 NA
ATOM     23  C   UNL     1      -1.044   0.325  -4.785  0.00  0.00    +0.200 A 
ATOM     24  N   UNL     1       0.025  -0.261  -4.144  0.00  0.00    -0.299 N 
BRANCH  23  25
ATOM     25  C   UNL     1      -1.276   0.370  -6.237  0.00  0.00    +0.172 A 
ATOM     26  C   UNL     1      -2.154   1.188  -6.882  0.00  0.00    +0.053 A 
ATOM     27  C   UNL     1      -2.046   0.896  -8.255  0.00  0.00    +0.042 A 
ATOM     28  C   UNL     1      -1.119  -0.074  -8.382  0.00  0.00    +0.196 A 
ATOM     29  O   UNL     1      -0.652  -0.386  -7.162  0.00  0.00    -0.460 OA
ENDBRANCH  23  25
BRANCH  24  30
ATOM     30  C   UNL     1       1.155  -0.959  -4.762  0.00  0.00    +0.129 C 
BRANCH  30  31
ATOM     31  C   UNL     1       0.819  -2.445  -4.905  0.00  0.00    +0.003 C 
ATOM     32  C   UNL     1      -0.345  -2.613  -5.883  0.00  0.00    +0.009 C 
ATOM     33  C   UNL     1       2.043  -3.195  -5.436  0.00  0.00    +0.009 C 
ENDBRANCH  30  31
ENDBRANCH  24  30
ENDBRANCH  19  20
ENDBRANCH   2  19
TORSDOF 8
