REMARK  Name = ZINC17743673
REMARK  8 active torsions:
REMARK  status: ('A' for Active; 'I' for Inactive)
REMARK    1  A    between atoms: C_1  and  C_2
REMARK    2  A    between atoms: C_2  and  N_3
REMARK    3  A    between atoms: C_5  and  C_14
REMARK    4  A    between atoms: C_14  and  N_15
REMARK    5  A    between atoms: N_15  and  C_16
REMARK    6  A    between atoms: N_19  and  C_20
REMARK    7  A    between atoms: C_23  and  S_26
REMARK    8  A    between atoms: S_26  and  N_29
REMARK                            x       y       z     vdW  Elec       q    Type
REMARK                         _______ _______ _______ _____ _____    ______ ____
ROOT
ATOM      1  N   UNL     1       2.027   1.631  -0.212  0.00  0.00    -0.285 N 
ATOM      2  C   UNL     1       2.103   0.170  -0.133  0.00  0.00    +0.133 C 
ATOM      3  C   UNL     1       0.840   2.252  -0.073  0.00  0.00    +0.306 C 
ATOM      4  O   UNL     1       0.776   3.465  -0.139  0.00  0.00    -0.252 OA
ATOM      5  N   UNL     1      -0.278   1.530   0.139  0.00  0.00    -0.269 N 
ATOM      6  H   UNL     1      -0.241   0.561   0.116  0.00  0.00    +0.156 HD
ENDROOT
BRANCH   5   7
ATOM      7  C   UNL     1      -1.494   2.178   0.387  0.00  0.00    +0.035 A 
ATOM      8  C   UNL     1      -1.513   3.373   1.094  0.00  0.00    +0.025 A 
ATOM      9  C   UNL     1      -2.714   4.012   1.333  0.00  0.00    +0.030 A 
ATOM     10  C   UNL     1      -3.897   3.458   0.878  0.00  0.00    +0.105 A 
ATOM     11  C   UNL     1      -3.881   2.266   0.178  0.00  0.00    +0.030 A 
ATOM     12  C   UNL     1      -2.683   1.624  -0.069  0.00  0.00    +0.025 A 
BRANCH  10  13
ATOM     13  S   UNL     1      -5.427   4.274   1.191  0.00  0.00    +0.056 S 
ATOM     14  O   UNL     1      -5.121   5.648   1.390  0.00  0.00    -0.153 OA
ATOM     15  O   UNL     1      -6.334   3.833   0.190  0.00  0.00    -0.153 OA
BRANCH  13  16
ATOM     16  N   UNL     1      -6.001   3.702   2.635  0.00  0.00    -0.204 NA
ATOM     17  H   UNL     1      -5.495   3.038   3.129  0.00  0.00    +0.144 HD
ATOM     18  H   UNL     1      -6.842   4.032   2.987  0.00  0.00    +0.144 HD
ENDBRANCH  13  16
ENDBRANCH  10  13
ENDBRANCH   5   7
BRANCH   1  19
ATOM     19  C   UNL     1       3.243   2.416  -0.443  0.00  0.00    +0.155 C 
BRANCH  19  22
ATOM     20  N   UNL     1       5.639   4.076   1.978  0.00  0.00    -0.324 N 
ATOM     21  C   UNL     1       5.091   3.689   0.672  0.00  0.00    +0.151 C 
ATOM     22  C   UNL     1       3.878   2.778   0.901  0.00  0.00    +0.208 C 
ATOM     23  O   UNL     1       4.336   1.591   1.556  0.00  0.00    -0.484 OA
ATOM     24  C   UNL     1       5.198   1.760   2.597  0.00  0.00    +0.142 A 
ATOM     25  C   UNL     1       5.846   2.971   2.810  0.00  0.00    +0.072 A 
ATOM     26  C   UNL     1       6.725   3.099   3.880  0.00  0.00    +0.027 A 
ATOM     27  C   UNL     1       6.951   2.031   4.726  0.00  0.00    +0.002 A 
ATOM     28  C   UNL     1       6.303   0.829   4.513  0.00  0.00    +0.004 A 
ATOM     29  C   UNL     1       5.429   0.693   3.452  0.00  0.00    +0.047 A 
BRANCH  20  31
ATOM     30  C   UNL     1       6.560   6.173   1.111  0.00  0.00    +0.024 C 
ATOM     31  C   UNL     1       6.875   4.855   1.821  0.00  0.00    +0.102 C 
ENDBRANCH  20  31
ENDBRANCH  19  22
ENDBRANCH   1  19
TORSDOF 6
