REMARK  Name = ZINC08820604
REMARK  9 active torsions:
REMARK  status: ('A' for Active; 'I' for Inactive)
REMARK    1  A    between atoms: C_1  and  C_2
REMARK    2  A    between atoms: C_2  and  C_10
REMARK    3  A    between atoms: C_3  and  C_4
REMARK    4  A    between atoms: N_14  and  C_18
REMARK    5  A    between atoms: C_18  and  C_19
REMARK    6  A    between atoms: C_19  and  C_20
REMARK    7  A    between atoms: C_20  and  C_21
REMARK    8  A    between atoms: N_23  and  N_24
REMARK    9  A    between atoms: C_25  and  C_27
REMARK                            x       y       z     vdW  Elec       q    Type
REMARK                         _______ _______ _______ _____ _____    ______ ____
ROOT
ATOM      1  C   UNL     1       1.361  -7.430  -2.205  0.00  0.00    +0.023 C 
ATOM      2  C   UNL     1       1.293  -6.484  -1.224  0.00  0.00    +0.077 C 
ATOM      3  C   UNL     1       1.235  -5.014  -1.337  0.00  0.00    +0.258 C 
ATOM      4  O   UNL     1       1.244  -4.456  -2.419  0.00  0.00    -0.269 OA
ATOM      5  N   UNL     1       1.174  -4.334  -0.205  0.00  0.00    -0.255 N 
ATOM      6  C   UNL     1       1.170  -4.956   0.991  0.00  0.00    +0.121 C 
ATOM      7  S   UNL     1       1.103  -4.258   2.553  0.00  0.00    -0.027 S 
ATOM      8  S   UNL     1       1.249  -6.685   0.551  0.00  0.00    -0.061 S 
ENDROOT
BRANCH   1  10
ATOM      9  C   UNL     1       0.934  -9.207  -0.462  0.00  0.00    +0.044 C 
ATOM     10  C   UNL     1       1.256  -8.796  -1.875  0.00  0.00    -0.049 C 
ATOM     11  C   UNL     1       1.445  -9.739  -2.829  0.00  0.00    +0.011 C 
BRANCH  11  12
ATOM     12  C   UNL     1       1.453 -11.162  -2.462  0.00  0.00    -0.025 A 
ATOM     13  C   UNL     1       2.014 -11.573  -1.248  0.00  0.00    +0.008 A 
ATOM     14  C   UNL     1       2.013 -12.910  -0.910  0.00  0.00    +0.001 A 
ATOM     15  C   UNL     1       1.469 -13.845  -1.773  0.00  0.00    +0.000 A 
ATOM     16  C   UNL     1       0.917 -13.448  -2.978  0.00  0.00    +0.001 A 
ATOM     17  C   UNL     1       0.905 -12.115  -3.329  0.00  0.00    +0.008 A 
ENDBRANCH  11  12
ENDBRANCH   1  10
BRANCH   5  18
ATOM     18  C   UNL     1       1.114  -2.871  -0.252  0.00  0.00    +0.115 C 
BRANCH  18  19
ATOM     19  C   UNL     1      -0.347  -2.421  -0.310  0.00  0.00    +0.029 C 
BRANCH  19  20
ATOM     20  C   UNL     1      -0.409  -0.893  -0.359  0.00  0.00    +0.099 C 
BRANCH  20  21
ATOM     21  C   UNL     1      -1.849  -0.451  -0.416  0.00  0.00    +0.229 C 
ATOM     22  O   UNL     1      -2.737  -1.276  -0.418  0.00  0.00    -0.274 OA
ATOM     23  N   UNL     1      -2.148   0.862  -0.466  0.00  0.00    -0.234 N 
ATOM     24  H   UNL     1      -1.438   1.522  -0.464  0.00  0.00    +0.173 HD
BRANCH  23  25
ATOM     25  N   UNL     1      -3.486   1.274  -0.525  0.00  0.00    -0.230 N 
ATOM     26  C   UNL     1      -3.786   2.587  -0.574  0.00  0.00    +0.260 C 
ATOM     27  O   UNL     1      -2.896   3.414  -0.567  0.00  0.00    -0.269 OA
ATOM     28  H   UNL     1      -4.197   0.613  -0.531  0.00  0.00    +0.173 HD
BRANCH  26  29
ATOM     29  C   UNL     1      -5.201   3.022  -0.637  0.00  0.00    +0.041 A 
ATOM     30  C   UNL     1      -6.240   2.086  -0.652  0.00  0.00    +0.033 A 
ATOM     31  C   UNL     1      -7.545   2.536  -0.706  0.00  0.00    +0.111 A 
ATOM     32  N   UNL     1      -7.816   3.825  -0.753  0.00  0.00    -0.263 NA
ATOM     33  C   UNL     1      -6.866   4.740  -0.746  0.00  0.00    +0.111 A 
ATOM     34  C   UNL     1      -5.534   4.379  -0.689  0.00  0.00    +0.033 A 
ENDBRANCH  26  29
ENDBRANCH  23  25
ENDBRANCH  20  21
ENDBRANCH  19  20
ENDBRANCH  18  19
ENDBRANCH   5  18
TORSDOF 8
