REMARK  Name = ZINC36844981
REMARK  3 active torsions:
REMARK  status: ('A' for Active; 'I' for Inactive)
REMARK    1  A    between atoms: C_5  and  C_7
REMARK    2  A    between atoms: C_9  and  N_11
REMARK    3  A    between atoms: N_11  and  C_12
REMARK                            x       y       z     vdW  Elec       q    Type
REMARK                         _______ _______ _______ _____ _____    ______ ____
ROOT
ATOM      1  N   UNL     1       0.830  -5.038  -0.121  0.00  0.00    +0.386 N 
ATOM      2  H   UNL     1       1.814  -4.839  -0.226  0.00  0.00    -0.085 HD
ATOM      3  H   UNL     1       0.651  -5.367   0.816  0.00  0.00    -0.085 HD
ENDROOT
BRANCH   1   4
ATOM      4  C   UNL     1       0.434  -6.071  -1.087  0.00  0.00    -0.037 C 
ATOM      5  C   UNL     1      -1.014  -6.500  -0.820  0.00  0.00    -0.011 C 
ATOM      6  C   UNL     1      -1.335  -7.751  -1.642  0.00  0.00    +0.006 C 
ATOM      7  C   UNL     1      -0.563  -8.949  -1.075  0.00  0.00    +0.074 C 
ATOM      8  C   UNL     1       0.886  -8.554  -0.925  0.00  0.00    +0.106 A 
ATOM      9  C   UNL     1       1.323  -7.277  -0.932  0.00  0.00    -0.020 A 
ATOM     10  C   UNL     1       2.720  -7.315  -0.772  0.00  0.00    +0.043 A 
ATOM     11  C   UNL     1       3.062  -8.615  -0.674  0.00  0.00    +0.195 A 
ATOM     12  O   UNL     1       1.943  -9.359  -0.766  0.00  0.00    -0.468 OA
ENDBRANCH   1   4
BRANCH   1  15
ATOM     13  C   UNL     1       1.454  -2.228  -0.252  0.00  0.00    +0.017 C 
ATOM     14  C   UNL     1       0.314  -2.703   0.663  0.00  0.00    -0.008 C 
ATOM     15  C   UNL     1       0.055  -3.814  -0.367  0.00  0.00    -0.070 C 
ATOM     16  C   UNL     1       0.689  -2.883  -1.414  0.00  0.00    -0.008 C 
BRANCH  13  21
ATOM     17  C   UNL     1       0.496   1.415  -0.504  0.00  0.00    +0.000 A 
ATOM     18  C   UNL     1       1.736   2.023  -0.571  0.00  0.00    +0.001 A 
ATOM     19  C   UNL     1       2.885   1.256  -0.535  0.00  0.00    +0.015 A 
ATOM     20  C   UNL     1       2.794  -0.121  -0.431  0.00  0.00    +0.021 A 
ATOM     21  C   UNL     1       1.554  -0.729  -0.364  0.00  0.00    -0.030 A 
ATOM     22  C   UNL     1       0.405   0.040  -0.401  0.00  0.00    +0.005 A 
ATOM     23 BR   UNL     1       4.366  -1.171  -0.383  0.00  0.00    -0.050 Br
ENDBRANCH  13  21
ENDBRANCH   1  15
TORSDOF 3
