REMARK  Name = ZINC12948354
REMARK  1 active torsions:
REMARK  status: ('A' for Active; 'I' for Inactive)
REMARK    1  A    between atoms: C_2  and  C_7
REMARK                            x       y       z     vdW  Elec       q    Type
REMARK                         _______ _______ _______ _____ _____    ______ ____
ROOT
ATOM      1  C   UNL     1       1.532   0.017  -0.013  0.00  0.00    +0.022 C 
ATOM      2  C   UNL     1       0.002  -0.004   0.002  0.00  0.00    +0.009 C 
ATOM      3  C   UNL     1      -0.019   1.526   0.010  0.00  0.00    +0.001 C 
ATOM      4  C   UNL     1       1.511   1.547  -0.004  0.00  0.00    +0.009 C 
ATOM      5  C   UNL     1       1.496   1.555  -1.534  0.00  0.00    +0.001 C 
ATOM      6  C   UNL     1      -0.033   1.534  -1.520  0.00  0.00    +0.000 C 
ATOM      7  C   UNL     1      -0.013   0.004  -1.528  0.00  0.00    +0.001 C 
ATOM      8  C   UNL     1       1.517   0.025  -1.542  0.00  0.00    +0.009 C 
ENDROOT
BRANCH   1  10
ATOM      9  C   UNL     1       2.022  -1.760   1.750  0.00  0.00    +0.134 A 
ATOM     10  C   UNL     1       2.421  -0.848   0.844  0.00  0.00    +0.042 A 
ATOM     11  N   UNL     1       3.790  -0.852   0.854  0.00  0.00    -0.348 N 
ATOM     12  H   UNL     1       4.389  -0.281   0.293  0.00  0.00    +0.167 HD
ATOM     13  C   UNL     1       4.180  -1.772   1.763  0.00  0.00    +0.196 A 
ATOM     14  N   UNL     1       3.117  -2.313   2.292  0.00  0.00    -0.244 NA
ENDBRANCH   1  10
TORSDOF 1
