REMARK  Name = ZINC06547665
REMARK  11 active torsions:
REMARK  status: ('A' for Active; 'I' for Inactive)
REMARK    1  A    between atoms: C_1  and  C_2
REMARK    2  A    between atoms: C_2  and  O_3
REMARK    3  A    between atoms: O_3  and  C_4
REMARK    4  A    between atoms: C_4  and  C_6
REMARK    5  A    between atoms: C_6  and  C_8
REMARK    6  A    between atoms: C_6  and  N_20
REMARK    7  A    between atoms: C_8  and  C_10
REMARK    8  A    between atoms: C_8  and  O_19
REMARK    9  A    between atoms: C_14  and  N_16
REMARK   10  A    between atoms: N_20  and  S_21
REMARK   11  A    between atoms: S_21  and  C_24
REMARK                            x       y       z     vdW  Elec       q    Type
REMARK                         _______ _______ _______ _____ _____    ______ ____
ROOT
ATOM      1  C   UNL     1      -0.341   5.861  -1.385  0.00  0.00    +0.217 C 
ENDROOT
BRANCH   1   2
ATOM      2  C   UNL     1      -0.361   7.368  -1.378  0.00  0.00    +0.329 C 
ATOM      3  O   UNL     1      -1.356   7.960  -1.724  0.00  0.00    -0.249 OA
BRANCH   2   4
ATOM      4  O   UNL     1       0.726   8.052  -0.986  0.00  0.00    -0.464 OA
BRANCH   4   6
ATOM      5  C   UNL     1       1.959  10.101  -0.529  0.00  0.00    +0.048 C 
ATOM      6  C   UNL     1       0.634   9.501  -1.004  0.00  0.00    +0.229 C 
ENDBRANCH   4   6
ENDBRANCH   2   4
ENDBRANCH   1   2
BRANCH   1   7
ATOM      7  N   UNL     1      -1.636   5.357  -1.849  0.00  0.00    -0.173 NA
ATOM      8  H   UNL     1      -2.368   5.251  -1.221  0.00  0.00    +0.149 HD
BRANCH   7   9
ATOM      9  S   UNL     1      -1.851   4.969  -3.444  0.00  0.00    +0.059 S 
ATOM     10  O   UNL     1      -3.183   4.492  -3.570  0.00  0.00    -0.153 OA
ATOM     11  O   UNL     1      -1.360   6.068  -4.199  0.00  0.00    -0.153 OA
BRANCH   9  12
ATOM     12  C   UNL     1      -0.793   3.604  -3.795  0.00  0.00    +0.106 A 
ATOM     13  C   UNL     1      -1.255   2.311  -3.630  0.00  0.00    +0.029 A 
ATOM     14  C   UNL     1      -0.433   1.238  -3.903  0.00  0.00    +0.011 A 
ATOM     15  C   UNL     1       0.873   1.456  -4.348  0.00  0.00    -0.014 A 
ATOM     16  C   UNL     1       1.329   2.761  -4.511  0.00  0.00    -0.033 A 
ATOM     17  C   UNL     1       0.498   3.828  -4.241  0.00  0.00    +0.033 A 
ATOM     18  C   UNL     1       2.756   2.686  -4.995  0.00  0.00    +0.071 C 
ATOM     19  C   UNL     1       3.085   1.217  -5.099  0.00  0.00    -0.035 A 
ATOM     20  C   UNL     1       1.953   0.506  -4.710  0.00  0.00    -0.014 A 
ATOM     21  C   UNL     1       1.987  -0.890  -4.714  0.00  0.00    +0.009 A 
ATOM     22  C   UNL     1       3.134  -1.550  -5.101  0.00  0.00    +0.001 A 
ATOM     23  C   UNL     1       4.254  -0.835  -5.486  0.00  0.00    +0.000 A 
ATOM     24  C   UNL     1       4.228   0.549  -5.484  0.00  0.00    +0.004 A 
ENDBRANCH   9  12
ENDBRANCH   7   9
ENDBRANCH   1   7
BRANCH   1  25
ATOM     25  C   UNL     1      -0.070   5.347   0.030  0.00  0.00    +0.174 C 
BRANCH  25  26
ATOM     26  C   UNL     1      -0.050   3.840   0.022  0.00  0.00    -0.015 A 
ATOM     27  C   UNL     1      -1.238   3.133   0.029  0.00  0.00    +0.006 A 
ATOM     28  C   UNL     1      -1.219   1.751   0.017  0.00  0.00    +0.003 A 
ATOM     29  C   UNL     1      -0.013   1.076   0.008  0.00  0.00    +0.033 A 
ATOM     30  C   UNL     1       1.175   1.783   0.000  0.00  0.00    +0.127 A 
ATOM     31  C   UNL     1       1.156   3.166   0.008  0.00  0.00    +0.039 A 
BRANCH  30  32
ATOM     32  N   UNL     1       2.467   1.060  -0.015  0.00  0.00    +0.056 N 
ATOM     33  O   UNL     1       2.483  -0.157  -0.022  0.00  0.00    -0.126 OA
ATOM     34  O   UNL     1       3.513   1.684  -0.022  0.00  0.00    -0.126 OA
ENDBRANCH  30  32
ENDBRANCH  25  26
BRANCH  25  35
ATOM     35  O   UNL     1      -1.101   5.805   0.908  0.00  0.00    -0.385 OA
ATOM     36  H   UNL     1      -1.988   5.509   0.661  0.00  0.00    +0.210 HD
ENDBRANCH  25  35
ENDBRANCH   1  25
TORSDOF 10
