REMARK  Name = ZINC01843353
REMARK  7 active torsions:
REMARK  status: ('A' for Active; 'I' for Inactive)
REMARK    1  A    between atoms: C_1  and  C_2
REMARK    2  A    between atoms: C_2  and  C_3
REMARK    3  A    between atoms: C_6  and  N_9
REMARK    4  A    between atoms: C_15  and  C_25
REMARK    5  A    between atoms: C_15  and  C_26
REMARK    6  A    between atoms: C_20  and  O_23
REMARK    7  A    between atoms: O_23  and  C_24
REMARK                            x       y       z     vdW  Elec       q    Type
REMARK                         _______ _______ _______ _____ _____    ______ ____
ROOT
ATOM      1  N   UNL     1      -2.318   2.649   7.551  0.00  0.00    -0.273 N 
ATOM      2  C   UNL     1      -1.907   2.461   6.279  0.00  0.00    +0.106 A 
ATOM      3  S   UNL     1      -2.830   3.048   4.961  0.00  0.00    -0.031 S 
ATOM      4  C   UNL     1      -0.713   1.777   6.067  0.00  0.00    +0.029 A 
ATOM      5  C   UNL     1      -0.057   1.392   7.223  0.00  0.00    +0.040 A 
ATOM      6  S   UNL     1      -1.081   1.926   8.488  0.00  0.00    -0.008 S 
ATOM      7  C   UNL     1       1.258   0.683   7.260  0.00  0.00    +0.060 C 
ATOM      8  N   UNL     1       1.445  -0.015   5.976  0.00  0.00    -0.334 N 
ATOM      9  C   UNL     1       1.028   0.578   4.777  0.00  0.00    +0.036 A 
ATOM     10  C   UNL     1      -0.075   1.443   4.759  0.00  0.00    +0.010 A 
ATOM     11  C   UNL     1      -0.528   1.989   3.570  0.00  0.00    +0.056 A 
ATOM     12  C   UNL     1       0.127   1.681   2.386  0.00  0.00    +0.121 A 
ATOM     13  C   UNL     1       1.232   0.842   2.403  0.00  0.00    +0.047 A 
ATOM     14  C   UNL     1       1.683   0.292   3.589  0.00  0.00    +0.027 A 
ATOM     15  C   UNL     1       2.385   1.698   7.463  0.00  0.00    +0.037 C 
ATOM     16  C   UNL     1       1.265  -0.332   8.404  0.00  0.00    +0.037 C 
ATOM     17  H   UNL     1       1.859  -0.892   5.961  0.00  0.00    +0.147 HD
ENDROOT
BRANCH   1  21
ATOM     18  C   UNL     1      -5.778   4.545   8.885  0.00  0.00    -0.047 A 
ATOM     19  C   UNL     1      -5.853   3.599   7.879  0.00  0.00    +0.005 A 
ATOM     20  C   UNL     1      -4.708   2.968   7.434  0.00  0.00    +0.027 A 
ATOM     21  C   UNL     1      -3.479   3.286   7.998  0.00  0.00    +0.054 A 
ATOM     22  C   UNL     1      -3.407   4.233   9.012  0.00  0.00    +0.027 A 
ATOM     23  C   UNL     1      -4.556   4.863   9.449  0.00  0.00    +0.005 A 
BRANCH  18  25
ATOM     24  C   UNL     1      -7.640   4.427  10.518  0.00  0.00    +0.009 C 
ATOM     25  C   UNL     1      -7.030   5.230   9.368  0.00  0.00    +0.032 C 
ENDBRANCH  18  25
ENDBRANCH   1  21
BRANCH  12  26
ATOM     26  O   UNL     1      -0.310   2.206   1.210  0.00  0.00    -0.495 OA
ATOM     27  C   UNL     1       0.415   1.851   0.031  0.00  0.00    +0.277 C 
ENDBRANCH  12  26
TORSDOF 3
