REMARK  Name = ZINC43186576
REMARK  12 active torsions:
REMARK  status: ('A' for Active; 'I' for Inactive)
REMARK    1  A    between atoms: C_1  and  C_2
REMARK    2  A    between atoms: C_4  and  C_29
REMARK    3  A    between atoms: C_5  and  N_9
REMARK    4  A    between atoms: C_6  and  C_8
REMARK    5  A    between atoms: C_10  and  C_12
REMARK    6  A    between atoms: C_12  and  N_13
REMARK    7  A    between atoms: N_16  and  C_17
REMARK    8  A    between atoms: C_17  and  C_19
REMARK    9  A    between atoms: C_17  and  C_25
REMARK   10  A    between atoms: C_25  and  C_26
REMARK   11  A    between atoms: C_25  and  C_27
REMARK   12  A    between atoms: C_25  and  C_28
REMARK                            x       y       z     vdW  Elec       q    Type
REMARK                         _______ _______ _______ _____ _____    ______ ____
ROOT
ATOM      1  N   UNL     1       0.858  -6.983   2.265  0.00  0.00    -0.291 N 
ATOM      2  C   UNL     1       0.984  -8.311   2.462  0.00  0.00    +0.300 C 
ATOM      3  O   UNL     1       0.718  -9.087   1.565  0.00  0.00    -0.253 OA
ATOM      4  N   UNL     1       1.407  -8.778   3.654  0.00  0.00    -0.292 N 
ATOM      5  H   UNL     1       1.071  -6.364   2.981  0.00  0.00    +0.151 HD
ATOM      6  H   UNL     1       1.619  -8.159   4.369  0.00  0.00    +0.151 HD
ENDROOT
BRANCH   1   7
ATOM      7  C   UNL     1       0.399  -6.476   0.969  0.00  0.00    +0.202 C 
BRANCH   7   9
ATOM      8  N   UNL     1      -0.052  -4.280  -0.077  0.00  0.00    -0.284 N 
ATOM      9  C   UNL     1       0.345  -4.970   1.011  0.00  0.00    +0.234 C 
ATOM     10  O   UNL     1       0.659  -4.380   2.022  0.00  0.00    -0.274 OA
ATOM     11  H   UNL     1      -0.370  -4.753  -0.862  0.00  0.00    +0.155 HD
BRANCH   8  16
ATOM     12  C   UNL     1       0.136   1.390  -0.065  0.00  0.00    +0.044 C 
ATOM     13  C   UNL     1       0.086  -0.116  -0.068  0.00  0.00    -0.050 A 
ATOM     14  C   UNL     1       0.759  -0.827  -1.045  0.00  0.00    +0.008 A 
ATOM     15  C   UNL     1       0.715  -2.207  -1.051  0.00  0.00    -0.029 A 
ATOM     16  C   UNL     1      -0.005  -2.882  -0.074  0.00  0.00    +0.039 A 
ATOM     17  C   UNL     1      -0.679  -2.165   0.906  0.00  0.00    -0.029 A 
ATOM     18  C   UNL     1      -0.628  -0.785   0.909  0.00  0.00    +0.008 A 
ATOM     19  C   UNL     1      -1.463  -2.893   1.968  0.00  0.00    +0.045 C 
ATOM     20  C   UNL     1       1.448  -2.981  -2.117  0.00  0.00    +0.045 C 
ENDBRANCH   8  16
ENDBRANCH   7   9
ENDBRANCH   1   7
BRANCH   4  21
ATOM     21  C   UNL     1       1.544 -10.221   3.868  0.00  0.00    +0.110 C 
BRANCH  21  22
ATOM     22  C   UNL     1       2.555 -10.473   4.956  0.00  0.00    -0.027 A 
ATOM     23  C   UNL     1       2.582  -9.663   6.076  0.00  0.00    +0.005 A 
ATOM     24  C   UNL     1       3.510  -9.895   7.074  0.00  0.00    +0.000 A 
ATOM     25  C   UNL     1       4.411 -10.936   6.952  0.00  0.00    +0.000 A 
ATOM     26  C   UNL     1       4.384 -11.746   5.832  0.00  0.00    +0.000 A 
ATOM     27  C   UNL     1       3.453 -11.517   4.836  0.00  0.00    +0.005 A 
ENDBRANCH  21  22
BRANCH  21  28
ATOM     28  C   UNL     1       0.192 -10.806   4.283  0.00  0.00    -0.015 C 
ATOM     29  C   UNL     1      -0.835 -10.549   3.178  0.00  0.00    +0.013 C 
ATOM     30  C   UNL     1       0.336 -12.312   4.506  0.00  0.00    +0.013 C 
ATOM     31  C   UNL     1      -0.276 -10.140   5.578  0.00  0.00    +0.013 C 
ENDBRANCH  21  28
ENDBRANCH   4  21
TORSDOF 6
