REMARK  Name = ZINC66619210
REMARK  10 active torsions:
REMARK  status: ('A' for Active; 'I' for Inactive)
REMARK    1  A    between atoms: C_1  and  C_2
REMARK    2  A    between atoms: C_5  and  C_9
REMARK    3  A    between atoms: C_6  and  C_8
REMARK    4  A    between atoms: C_9  and  C_10
REMARK    5  A    between atoms: C_10  and  C_12
REMARK    6  A    between atoms: C_10  and  N_13
REMARK    7  A    between atoms: C_19  and  N_22
REMARK    8  A    between atoms: C_23  and  C_25
REMARK    9  A    between atoms: C_25  and  C_26
REMARK   10  A    between atoms: C_25  and  C_27
REMARK                            x       y       z     vdW  Elec       q    Type
REMARK                         _______ _______ _______ _____ _____    ______ ____
ROOT
ATOM      1  N   UNL     1      -2.418  -4.666   2.834  0.00  0.00    -0.296 N 
ATOM      2  C   UNL     1      -3.740  -4.428   2.939  0.00  0.00    +0.302 C 
ATOM      3  O   UNL     1      -4.510  -4.902   2.127  0.00  0.00    -0.253 OA
ATOM      4  N   UNL     1      -4.209  -3.663   3.945  0.00  0.00    -0.286 N 
ATOM      5  C   UNL     1      -3.284  -2.987   4.865  0.00  0.00    +0.111 C 
ATOM      6  C   UNL     1      -3.659  -3.360   6.303  0.00  0.00    +0.041 C 
ATOM      7  C   UNL     1      -5.135  -3.033   6.542  0.00  0.00    +0.076 C 
ATOM      8  C   UNL     1      -6.003  -3.856   5.587  0.00  0.00    +0.041 C 
ATOM      9  C   UNL     1      -5.654  -3.484   4.138  0.00  0.00    +0.111 C 
ATOM     10  H   UNL     1      -1.811  -4.348   3.521  0.00  0.00    +0.151 HD
ENDROOT
BRANCH   7  11
ATOM     11  N   UNL     1      -5.489  -3.357   7.926  0.00  0.00    -0.312 N 
ATOM     12  C   UNL     1      -6.520  -2.727   8.524  0.00  0.00    +0.216 C 
ATOM     13  O   UNL     1      -7.154  -1.891   7.916  0.00  0.00    -0.276 OA
ATOM     14  H   UNL     1      -4.982  -4.026   8.412  0.00  0.00    +0.149 HD
BRANCH  12  15
ATOM     15  C   UNL     1      -6.884  -3.061   9.947  0.00  0.00    +0.069 C 
ATOM     16  C   UNL     1      -5.692  -2.768  10.861  0.00  0.00    +0.017 C 
ATOM     17  C   UNL     1      -8.079  -2.210  10.381  0.00  0.00    +0.017 C 
ENDBRANCH  12  15
ENDBRANCH   7  11
BRANCH   1  18
ATOM     18  C   UNL     1      -1.896  -5.405   1.681  0.00  0.00    +0.076 C 
ATOM     19  C   UNL     1      -1.992  -6.908   1.954  0.00  0.00    +0.028 C 
BRANCH  18  20
ATOM     20  C   UNL     1      -0.434  -5.022   1.449  0.00  0.00    +0.057 C 
BRANCH  20  25
ATOM     21  C   UNL     1      -0.111   0.564   0.004  0.00  0.00    +0.044 C 
ATOM     22  C   UNL     1      -0.195  -0.892   0.381  0.00  0.00    -0.050 A 
ATOM     23  C   UNL     1       0.078  -1.288   1.677  0.00  0.00    +0.003 A 
ATOM     24  C   UNL     1       0.000  -2.624   2.023  0.00  0.00    +0.004 A 
ATOM     25  C   UNL     1      -0.350  -3.565   1.072  0.00  0.00    -0.043 A 
ATOM     26  C   UNL     1      -0.624  -3.169  -0.224  0.00  0.00    -0.047 A 
ATOM     27  C   UNL     1      -0.550  -1.832  -0.568  0.00  0.00    +0.007 A 
ATOM     28  C   UNL     1      -1.005  -4.195  -1.260  0.00  0.00    +0.044 C 
ENDBRANCH  20  25
ENDBRANCH  18  20
ENDBRANCH   1  18
TORSDOF 5
