REMARK  Name = ZINC39935580
REMARK  4 active torsions:
REMARK  status: ('A' for Active; 'I' for Inactive)
REMARK    1  A    between atoms: C_1  and  C_2
REMARK    2  A    between atoms: N_16  and  N_17
REMARK    3  A    between atoms: C_18  and  C_19
REMARK    4  A    between atoms: C_23  and  O_25
REMARK                            x       y       z     vdW  Elec       q    Type
REMARK                         _______ _______ _______ _____ _____    ______ ____
ROOT
ATOM      1  C   UNL     1      -0.018   1.503   0.010  0.00  0.00    +0.046 C 
ATOM      2  C   UNL     1       0.002  -0.004   0.002  0.00  0.00    -0.027 A 
ATOM      3  C   UNL     1       0.006  -0.681  -1.168  0.00  0.00    +0.005 A 
ATOM      4  C   UNL     1       0.022  -2.082  -1.210  0.00  0.00    +0.001 A 
ATOM      5  C   UNL     1       0.065  -2.840  -0.090  0.00  0.00    +0.012 A 
ATOM      6  C   UNL     1       0.096  -2.236   1.187  0.00  0.00    +0.025 A 
ATOM      7  C   UNL     1       0.258  -2.710   2.463  0.00  0.00    +0.115 C 
ATOM      8  C   UNL     1      -0.069  -1.533   3.375  0.00  0.00    +0.229 C 
ATOM      9  N   UNL     1      -0.014  -0.359   2.515  0.00  0.00    -0.359 N 
ATOM     10  C   UNL     1       0.024  -0.753   1.264  0.00  0.00    +0.049 A 
ATOM     11  N   UNL     1       0.941  -1.550   4.436  0.00  0.00    -0.330 N 
ATOM     12  C   UNL     1       1.484  -2.699   4.753  0.00  0.00    +0.230 C 
ATOM     13  N   UNL     1       1.208  -3.864   4.119  0.00  0.00    -0.113 NA
ATOM     14  N   UNL     1       0.625  -3.890   2.966  0.00  0.00    -0.146 NA
ATOM     15  N   UNL     1       2.391  -2.724   5.794  0.00  0.00    -0.206 N 
ATOM     16  H   UNL     1       2.609  -1.905   6.267  0.00  0.00    +0.177 HD
ATOM     17  H   UNL     1      -0.002   0.563   2.817  0.00  0.00    +0.162 HD
ATOM     18  H   UNL     1       1.200  -0.734   4.890  0.00  0.00    +0.165 HD
ENDROOT
BRANCH  15  19
ATOM     19  N   UNL     1       2.996  -3.931   6.168  0.00  0.00    -0.188 NA
ATOM     20  C   UNL     1       3.849  -3.954   7.146  0.00  0.00    +0.138 C 
BRANCH  20  21
ATOM     21  C   UNL     1       4.486  -5.225   7.539  0.00  0.00    -0.002 A 
ATOM     22  C   UNL     1       4.178  -6.404   6.856  0.00  0.00    +0.010 A 
ATOM     23  C   UNL     1       4.776  -7.591   7.226  0.00  0.00    +0.004 A 
ATOM     24  C   UNL     1       5.680  -7.617   8.272  0.00  0.00    +0.045 A 
ATOM     25  C   UNL     1       5.993  -6.451   8.957  0.00  0.00    +0.117 A 
ATOM     26  C   UNL     1       5.403  -5.253   8.591  0.00  0.00    +0.054 A 
BRANCH  25  27
ATOM     27  O   UNL     1       6.882  -6.484   9.984  0.00  0.00    -0.507 OA
ATOM     28  H   UNL     1       7.799  -6.338   9.715  0.00  0.00    +0.292 HD
ENDBRANCH  25  27
ENDBRANCH  20  21
ENDBRANCH  15  19
TORSDOF 3
