REMARK  Name = ZINC15222744
REMARK  17 active torsions:
REMARK  status: ('A' for Active; 'I' for Inactive)
REMARK    1  A    between atoms: C_1  and  C_2
REMARK    2  A    between atoms: C_2  and  C_4
REMARK    3  A    between atoms: C_2  and  C_10
REMARK    4  A    between atoms: C_4  and  C_5
REMARK    5  A    between atoms: C_5  and  C_6
REMARK    6  A    between atoms: C_6  and  C_7
REMARK    7  A    between atoms: C_7  and  C_8
REMARK    8  A    between atoms: C_7  and  C_9
REMARK    9  A    between atoms: C_14  and  C_41
REMARK   10  A    between atoms: C_15  and  C_40
REMARK   11  A    between atoms: C_21  and  O_39
REMARK   12  A    between atoms: C_26  and  C_38
REMARK   13  A    between atoms: C_29  and  O_34
REMARK   14  A    between atoms: C_31  and  C_32
REMARK   15  A    between atoms: C_31  and  C_33
REMARK   16  A    between atoms: O_34  and  C_35
REMARK   17  A    between atoms: C_35  and  C_37
REMARK                            x       y       z     vdW  Elec       q    Type
REMARK                         _______ _______ _______ _____ _____    ______ ____
ROOT
ATOM      1  C   UNL     1      -1.430  -0.550  -0.312  0.00  0.00    -0.001 C 
ATOM      2  C   UNL     1      -1.405  -2.098  -0.215  0.00  0.00    +0.005 C 
ATOM      3  C   UNL     1      -2.199  -2.468   1.072  0.00  0.00    +0.012 C 
ATOM      4  C   UNL     1      -3.102  -1.238   1.256  0.00  0.00    -0.002 C 
ATOM      5  C   UNL     1      -2.097  -0.094   0.986  0.00  0.00    -0.013 C 
ATOM      6  C   UNL     1      -2.877   1.204   0.951  0.00  0.00    +0.087 C 
ATOM      7  C   UNL     1      -3.479   1.347   2.341  0.00  0.00    +0.160 C 
ATOM      8  O   UNL     1      -3.569   2.461   2.814  0.00  0.00    -0.292 OA
ATOM      9  C   UNL     1      -3.921   0.160   3.090  0.00  0.00    +0.003 C 
ATOM     10  C   UNL     1      -3.726  -1.073   2.606  0.00  0.00    -0.028 C 
ATOM     11  C   UNL     1      -4.082  -2.335   3.352  0.00  0.00    +0.142 C 
ATOM     12  C   UNL     1      -4.396  -2.049   4.824  0.00  0.00    +0.041 C 
ATOM     13  C   UNL     1      -5.353  -0.857   4.831  0.00  0.00    +0.011 C 
ATOM     14  C   UNL     1      -4.583   0.389   4.433  0.00  0.00    -0.000 C 
ATOM     15  C   UNL     1      -5.537   1.579   4.378  0.00  0.00    +0.015 C 
ATOM     16  C   UNL     1      -6.204   1.760   5.743  0.00  0.00    +0.046 C 
ATOM     17  C   UNL     1      -7.012   0.529   6.122  0.00  0.00    +0.182 C 
ATOM     18  C   UNL     1      -6.181  -0.754   6.090  0.00  0.00    +0.006 C 
ATOM     19  C   UNL     1      -7.188  -1.932   6.101  0.00  0.00    +0.015 C 
ATOM     20  C   UNL     1      -5.343  -0.870   7.363  0.00  0.00    +0.015 C 
ATOM     21  C   UNL     1      -3.458   0.707   5.420  0.00  0.00    +0.016 C 
ATOM     22  C   UNL     1      -1.034  -0.028   2.091  0.00  0.00    +0.013 C 
ATOM     23  C   UNL     1      -4.197  -1.271   0.186  0.00  0.00    +0.016 C 
ENDROOT
BRANCH   1  25
ATOM     24  C   UNL     1      -0.038   1.523  -0.399  0.00  0.00    +0.008 C 
ATOM     25  C   UNL     1      -0.002  -0.006  -0.387  0.00  0.00    -0.010 C 
BRANCH  25  26
ATOM     26  C   UNL     1       0.670  -0.511  -1.665  0.00  0.00    +0.003 C 
BRANCH  26  27
ATOM     27  C   UNL     1       2.135  -0.071  -1.679  0.00  0.00    +0.001 C 
BRANCH  27  28
ATOM     28  C   UNL     1       2.807  -0.576  -2.958  0.00  0.00    +0.003 C 
BRANCH  28  29
ATOM     29  C   UNL     1       4.273  -0.136  -2.972  0.00  0.00    -0.017 C 
ATOM     30  C   UNL     1       4.976  -0.745  -4.187  0.00  0.00    +0.007 C 
ATOM     31  C   UNL     1       4.346   1.390  -3.051  0.00  0.00    +0.007 C 
ENDBRANCH  28  29
ENDBRANCH  27  28
ENDBRANCH  26  27
ENDBRANCH  25  26
ENDBRANCH   1  25
BRANCH  11  32
ATOM     32  O   UNL     1      -5.223  -2.940   2.744  0.00  0.00    -0.387 OA
ATOM     33  H   UNL     1      -5.509  -3.758   3.173  0.00  0.00    +0.210 HD
ENDBRANCH  11  32
BRANCH  17  34
ATOM     34  O   UNL     1      -8.124   0.393   5.229  0.00  0.00    -0.461 OA
BRANCH  34  35
ATOM     35  C   UNL     1      -9.267   1.000   5.583  0.00  0.00    +0.304 C 
ATOM     36  O   UNL     1      -9.324   1.627   6.615  0.00  0.00    -0.251 OA
ATOM     37  C   UNL     1     -10.479   0.901   4.693  0.00  0.00    +0.136 C 
ENDBRANCH  34  35
ENDBRANCH  17  34
TORSDOF 8
