REMARK  Name = ZINC39532105
REMARK  10 active torsions:
REMARK  status: ('A' for Active; 'I' for Inactive)
REMARK    1  A    between atoms: C_1  and  C_2
REMARK    2  A    between atoms: C_2  and  C_3
REMARK    3  A    between atoms: C_6  and  C_9
REMARK    4  A    between atoms: C_9  and  C_11
REMARK    5  A    between atoms: C_9  and  N_15
REMARK    6  A    between atoms: C_11  and  N_12
REMARK    7  A    between atoms: N_12  and  S_13
REMARK    8  A    between atoms: S_13  and  C_14
REMARK    9  A    between atoms: C_19  and  C_22
REMARK   10  A    between atoms: C_27  and  O_28
REMARK                            x       y       z     vdW  Elec       q    Type
REMARK                         _______ _______ _______ _____ _____    ______ ____
ROOT
ATOM      1  N   UNL     1      -5.471  -3.010  -0.965  0.00  0.00    -0.297 NA
ATOM      2  C   UNL     1      -6.563  -3.948  -0.670  0.00  0.00    +0.066 C 
ATOM      3  C   UNL     1      -6.719  -4.927  -1.836  0.00  0.00    -0.066 C 
ATOM      4  N   UNL     1      -5.461  -5.659  -2.032  0.00  0.00    +0.385 N 
ATOM      5  C   UNL     1      -4.385  -4.712  -2.349  0.00  0.00    -0.023 C 
ATOM      6  C   UNL     1      -4.210  -3.731  -1.188  0.00  0.00    +0.074 C 
ATOM      7  H   UNL     1      -5.229  -6.161  -1.188  0.00  0.00    -0.085 HD
ATOM      8  H   UNL     1      -5.568  -6.314  -2.792  0.00  0.00    -0.085 HD
ENDROOT
BRANCH   5   9
ATOM      9  C   UNL     1      -3.099  -5.466  -2.568  0.00  0.00    -0.019 A 
ATOM     10  C   UNL     1      -2.958  -6.749  -2.074  0.00  0.00    +0.005 A 
ATOM     11  C   UNL     1      -1.778  -7.442  -2.274  0.00  0.00    +0.000 A 
ATOM     12  C   UNL     1      -0.737  -6.853  -2.968  0.00  0.00    +0.004 A 
ATOM     13  C   UNL     1      -0.873  -5.571  -3.463  0.00  0.00    +0.045 A 
ATOM     14  C   UNL     1      -2.058  -4.876  -3.269  0.00  0.00    +0.118 A 
BRANCH  14  15
ATOM     15  O   UNL     1      -2.196  -3.616  -3.761  0.00  0.00    -0.507 OA
ATOM     16  H   UNL     1      -1.915  -2.922  -3.149  0.00  0.00    +0.292 HD
ENDBRANCH  14  15
ENDBRANCH   5   9
BRANCH   1  17
ATOM     17  C   UNL     1      -5.327  -2.016   0.107  0.00  0.00    +0.101 C 
BRANCH  17  21
ATOM     18  C   UNL     1      -1.396  -0.348  -0.019  0.00  0.00    -0.048 A 
ATOM     19  C   UNL     1      -1.912  -0.811   1.177  0.00  0.00    +0.004 A 
ATOM     20  C   UNL     1      -3.184  -1.351   1.218  0.00  0.00    +0.005 A 
ATOM     21  C   UNL     1      -3.940  -1.427   0.063  0.00  0.00    -0.029 A 
ATOM     22  C   UNL     1      -3.425  -0.962  -1.133  0.00  0.00    +0.005 A 
ATOM     23  C   UNL     1      -2.154  -0.418  -1.173  0.00  0.00    +0.004 A 
BRANCH  18  25
ATOM     24  C   UNL     1      -0.085   1.746   0.200  0.00  0.00    +0.009 C 
ATOM     25  C   UNL     1      -0.009   0.241  -0.064  0.00  0.00    +0.032 C 
ENDBRANCH  18  25
ENDBRANCH  17  21
BRANCH  17  26
ATOM     26  C   UNL     1      -6.360  -0.904  -0.086  0.00  0.00    +0.117 C 
BRANCH  26  27
ATOM     27  N   UNL     1      -7.702  -1.494  -0.178  0.00  0.00    -0.262 NA
ATOM     28  H   UNL     1      -7.863  -1.883  -1.095  0.00  0.00    +0.135 HD
BRANCH  27  29
ATOM     29  S   UNL     1      -8.943  -0.308   0.232  0.00  0.00    -0.084 S 
ATOM     30  C   UNL     1     -10.499  -1.223   0.058  0.00  0.00    +0.102 C 
ENDBRANCH  27  29
ENDBRANCH  26  27
ENDBRANCH  17  26
ENDBRANCH   1  17
TORSDOF 8
