REMARK  Name = ZINC19316626
REMARK  10 active torsions:
REMARK  status: ('A' for Active; 'I' for Inactive)
REMARK    1  A    between atoms: C_1  and  C_2
REMARK    2  A    between atoms: C_2  and  C_3
REMARK    3  A    between atoms: C_2  and  C_4
REMARK    4  A    between atoms: C_2  and  N_5
REMARK    5  A    between atoms: N_5  and  S_6
REMARK    6  A    between atoms: S_6  and  C_9
REMARK    7  A    between atoms: C_11  and  C_16
REMARK    8  A    between atoms: C_16  and  O_18
REMARK    9  A    between atoms: O_18  and  C_19
REMARK   10  A    between atoms: C_19  and  C_20
REMARK                            x       y       z     vdW  Elec       q    Type
REMARK                         _______ _______ _______ _____ _____    ______ ____
ROOT
ATOM      1  C   UNL     1       8.461  -6.481   1.833  0.00  0.00    +0.124 A 
ATOM      2  C   UNL     1       8.024  -5.391   1.111  0.00  0.00    +0.045 A 
ATOM      3  C   UNL     1       6.819  -4.770   1.449  0.00  0.00    +0.061 A 
ATOM      4  C   UNL     1       6.059  -5.265   2.511  0.00  0.00    +0.016 A 
ATOM      5  C   UNL     1       6.505  -6.359   3.223  0.00  0.00    +0.023 A 
ATOM      6  C   UNL     1       7.703  -6.967   2.885  0.00  0.00    +0.067 A 
ATOM      7 CL   UNL     1       8.257  -8.344   3.786  0.00  0.00    -0.082 Cl
ENDROOT
BRANCH   1   8
ATOM      8  S   UNL     1       9.984  -7.261   1.413  0.00  0.00    +0.060 S 
ATOM      9  O   UNL     1       9.715  -8.653   1.319  0.00  0.00    -0.153 OA
ATOM     10  O   UNL     1      10.537  -6.518   0.335  0.00  0.00    -0.153 OA
BRANCH   8  11
ATOM     11  N   UNL     1      11.008  -7.062   2.699  0.00  0.00    -0.185 NA
ATOM     12  H   UNL     1      11.478  -7.947   3.154  0.00  0.00    +0.149 HD
BRANCH  11  14
ATOM     13  C   UNL     1      10.251  -4.907   3.571  0.00  0.00    +0.029 C 
ATOM     14  C   UNL     1      11.451  -5.719   3.082  0.00  0.00    +0.032 C 
ATOM     15  C   UNL     1      12.487  -5.825   4.203  0.00  0.00    +0.029 C 
ATOM     16  C   UNL     1      12.078  -5.024   1.872  0.00  0.00    +0.029 C 
ENDBRANCH  11  14
ENDBRANCH   8  11
ENDBRANCH   1   8
BRANCH   3  17
ATOM     17  C   UNL     1       6.348  -3.599   0.682  0.00  0.00    +0.339 C 
ATOM     18  O   UNL     1       7.011  -3.171  -0.241  0.00  0.00    -0.245 OA
BRANCH  17  19
ATOM     19  O   UNL     1       5.183  -3.006   1.008  0.00  0.00    -0.457 OA
BRANCH  19  20
ATOM     20  C   UNL     1       4.782  -1.861   0.211  0.00  0.00    +0.280 C 
BRANCH  20  21
ATOM     21  C   UNL     1       3.443  -1.325   0.725  0.00  0.00    +0.248 C 
ATOM     22  C   UNL     1       3.075  -0.041  -0.030  0.00  0.00    +0.277 C 
ATOM     23  O   UNL     1       1.815   0.424   0.465  0.00  0.00    -0.485 OA
ATOM     24  C   UNL     1       0.829  -0.506   0.598  0.00  0.00    +0.162 A 
ATOM     25  C   UNL     1      -0.488  -0.089   0.717  0.00  0.00    +0.049 A 
ATOM     26  C   UNL     1      -1.499  -1.021   0.855  0.00  0.00    +0.004 A 
ATOM     27  C   UNL     1      -1.200  -2.371   0.875  0.00  0.00    +0.004 A 
ATOM     28  C   UNL     1       0.110  -2.793   0.756  0.00  0.00    +0.049 A 
ATOM     29  C   UNL     1       1.130  -1.863   0.616  0.00  0.00    +0.163 A 
ATOM     30  O   UNL     1       2.415  -2.294   0.492  0.00  0.00    -0.478 OA
ENDBRANCH  20  21
ENDBRANCH  19  20
ENDBRANCH  17  19
ENDBRANCH   3  17
TORSDOF 7
