REMARK  Name = ZINC01086202
REMARK  10 active torsions:
REMARK  status: ('A' for Active; 'I' for Inactive)
REMARK    1  A    between atoms: C_1  and  C_2
REMARK    2  A    between atoms: C_2  and  O_3
REMARK    3  A    between atoms: O_3  and  C_4
REMARK    4  A    between atoms: C_6  and  C_20
REMARK    5  A    between atoms: C_9  and  O_10
REMARK    6  A    between atoms: O_10  and  C_11
REMARK    7  A    between atoms: C_11  and  C_12
REMARK    8  A    between atoms: C_23  and  C_34
REMARK    9  A    between atoms: C_29  and  N_33
REMARK   10  A    between atoms: C_30  and  C_31
REMARK                            x       y       z     vdW  Elec       q    Type
REMARK                         _______ _______ _______ _____ _____    ______ ____
ROOT
ATOM      1  C   UNL     1      -0.816   1.633  -3.530  0.00  0.00    +0.162 A 
ATOM      2  C   UNL     1      -0.292   1.272  -4.761  0.00  0.00    +0.054 A 
ATOM      3  C   UNL     1       0.846   0.490  -4.825  0.00  0.00    -0.031 A 
ATOM      4  C   UNL     1       1.464   0.067  -3.663  0.00  0.00    +0.008 A 
ATOM      5  C   UNL     1       0.950   0.428  -2.432  0.00  0.00    +0.050 A 
ATOM      6  C   UNL     1      -0.194   1.207  -2.360  0.00  0.00    +0.162 A 
ENDROOT
BRANCH   3   7
ATOM      7  C   UNL     1       1.414   0.098  -6.165  0.00  0.00    +0.101 C 
ATOM      8  C   UNL     1       2.826   0.609  -6.287  0.00  0.00    +0.049 A 
ATOM      9  C   UNL     1       3.280   1.909  -6.464  0.00  0.00    +0.068 A 
ATOM     10  N   UNL     1       4.591   1.880  -6.515  0.00  0.00    -0.176 NA
ATOM     11  N   UNL     1       5.011   0.548  -6.371  0.00  0.00    -0.246 N 
ATOM     12  H   UNL     1       5.958   0.226  -6.371  0.00  0.00    +0.192 HD
ATOM     13  C   UNL     1       3.916  -0.216  -6.233  0.00  0.00    +0.222 A 
ATOM     14  O   UNL     1       3.811  -1.558  -6.067  0.00  0.00    -0.423 OA
ATOM     15  C   UNL     1       2.593  -2.114  -6.229  0.00  0.00    +0.200 C 
ATOM     16  C   UNL     1       1.444  -1.405  -6.285  0.00  0.00    +0.098 C 
ATOM     17  C   UNL     1       2.417   3.139  -6.576  0.00  0.00    +0.068 C 
BRANCH  15  18
ATOM     18  N   UNL     1       2.516  -3.480  -6.344  0.00  0.00    -0.328 N 
ATOM     19  H   UNL     1       1.654  -3.909  -6.462  0.00  0.00    +0.145 HD
ATOM     20  H   UNL     1       3.323  -4.016  -6.308  0.00  0.00    +0.145 HD
ENDBRANCH  15  18
BRANCH  16  21
ATOM     21  C   UNL     1       0.209  -2.107  -6.465  0.00  0.00    +0.101 C 
ATOM     22  N   UNL     1      -0.771  -2.663  -6.608  0.00  0.00    -0.191 NA
ENDBRANCH  16  21
ENDBRANCH   3   7
BRANCH   1  23
ATOM     23  O   UNL     1      -1.935   2.403  -3.465  0.00  0.00    -0.489 OA
BRANCH  23  25
ATOM     24  C   UNL     1      -3.761   3.656  -4.433  0.00  0.00    +0.048 C 
ATOM     25  C   UNL     1      -2.520   2.803  -4.705  0.00  0.00    +0.226 C 
ENDBRANCH  23  25
ENDBRANCH   1  23
BRANCH   6  26
ATOM     26  O   UNL     1      -0.704   1.559  -1.150  0.00  0.00    -0.484 OA
BRANCH  26  27
ATOM     27  C   UNL     1      -0.013   1.086   0.008  0.00  0.00    +0.269 C 
BRANCH  27  28
ATOM     28  C   UNL     1      -0.718   1.572   1.248  0.00  0.00    +0.043 A 
ATOM     29  C   UNL     1      -1.721   0.807   1.819  0.00  0.00    +0.131 A 
ATOM     30  C   UNL     1      -2.368   1.255   2.958  0.00  0.00    +0.039 A 
ATOM     31  C   UNL     1      -2.013   2.465   3.525  0.00  0.00    +0.004 A 
ATOM     32  C   UNL     1      -1.012   3.228   2.955  0.00  0.00    +0.020 A 
ATOM     33  C   UNL     1      -0.360   2.779   1.819  0.00  0.00    +0.050 A 
ATOM     34 CL   UNL     1       0.902   3.736   1.108  0.00  0.00    -0.083 Cl
ATOM     35  F   UNL     1      -2.068  -0.375   1.265  0.00  0.00    -0.205 F 
ENDBRANCH  27  28
ENDBRANCH  26  27
ENDBRANCH   6  26
TORSDOF 8
