REMARK  Name = ZINC27498365
REMARK  5 active torsions:
REMARK  status: ('A' for Active; 'I' for Inactive)
REMARK    1  A    between atoms: N_9  and  C_10
REMARK    2  A    between atoms: C_10  and  C_11
REMARK    3  A    between atoms: C_11  and  C_12
REMARK    4  A    between atoms: N_14  and  N_15
REMARK    5  A    between atoms: C_16  and  C_17
REMARK                            x       y       z     vdW  Elec       q    Type
REMARK                         _______ _______ _______ _____ _____    ______ ____
ROOT
ATOM      1  C   UNL     1      -5.674   3.463  -1.370  0.00  0.00    +0.234 C 
ATOM      2  O   UNL     1      -6.261   3.352  -0.314  0.00  0.00    -0.274 OA
ATOM      3  N   UNL     1      -6.348   3.350  -2.531  0.00  0.00    -0.207 N 
ATOM      4  H   UNL     1      -5.816   3.451  -3.488  0.00  0.00    +0.177 HD
ENDROOT
BRANCH   3   5
ATOM      5  N   UNL     1      -7.728   3.104  -2.519  0.00  0.00    -0.188 NA
ATOM      6  C   UNL     1      -8.377   2.995  -3.638  0.00  0.00    +0.138 C 
BRANCH   6   7
ATOM      7  C   UNL     1      -9.828   2.737  -3.626  0.00  0.00    -0.003 A 
ATOM      8  C   UNL     1     -10.506   2.603  -2.411  0.00  0.00    +0.028 A 
ATOM      9  C   UNL     1     -11.864   2.366  -2.404  0.00  0.00    +0.066 A 
ATOM     10  C   UNL     1     -12.557   2.250  -3.603  0.00  0.00    +0.207 A 
ATOM     11  C   UNL     1     -11.887   2.377  -4.813  0.00  0.00    +0.066 A 
ATOM     12  C   UNL     1     -10.529   2.619  -4.829  0.00  0.00    +0.028 A 
ATOM     13 BR   UNL     1     -12.836   2.218  -6.440  0.00  0.00    -0.046 Br
ATOM     14  O   UNL     1     -13.895   2.011  -3.591  0.00  0.00    -0.286 OA
ATOM     15 BR   UNL     1     -12.784   2.192  -0.761  0.00  0.00    -0.046 Br
ENDBRANCH   6   7
ENDBRANCH   3   5
BRANCH   1  16
ATOM     16  C   UNL     1      -4.191   3.727  -1.382  0.00  0.00    +0.121 C 
BRANCH  16  17
ATOM     17  C   UNL     1      -3.675   3.810   0.056  0.00  0.00    +0.155 C 
BRANCH  17  26
ATOM     18  C   UNL     1       1.184   1.781   0.000  0.00  0.00    +0.002 A 
ATOM     19  C   UNL     1      -0.013   1.076   0.008  0.00  0.00    +0.002 A 
ATOM     20  C   UNL     1      -1.209   1.737   0.017  0.00  0.00    +0.029 A 
ATOM     21  C   UNL     1      -1.230   3.127   0.030  0.00  0.00    +0.089 A 
ATOM     22  C   UNL     1      -0.022   3.847   0.022  0.00  0.00    +0.113 A 
ATOM     23  C   UNL     1       1.191   3.145   0.007  0.00  0.00    +0.032 A 
ATOM     24  N   UNL     1      -0.328   5.160   0.032  0.00  0.00    -0.129 NA
ATOM     25  N   UNL     1      -1.604   5.321   0.044  0.00  0.00    -0.065 NA
ATOM     26  N   UNL     1      -2.233   4.067   0.044  0.00  0.00    -0.243 N 
ENDBRANCH  17  26
ENDBRANCH  16  17
ENDBRANCH   1  16
TORSDOF 5
