REMARK  Name = ZINC66940649
REMARK  8 active torsions:
REMARK  status: ('A' for Active; 'I' for Inactive)
REMARK    1  A    between atoms: C_1  and  C_2
REMARK    2  A    between atoms: C_2  and  C_4
REMARK    3  A    between atoms: C_2  and  N_10
REMARK    4  A    between atoms: N_10  and  C_11
REMARK    5  A    between atoms: C_20  and  C_22
REMARK    6  A    between atoms: C_22  and  C_23
REMARK    7  A    between atoms: C_27  and  O_29
REMARK    8  A    between atoms: O_29  and  C_30
REMARK                            x       y       z     vdW  Elec       q    Type
REMARK                         _______ _______ _______ _____ _____    ______ ____
ROOT
ATOM      1  C   UNL     1      -0.019  -0.613  -2.401  0.00  0.00    +0.029 A 
ATOM      2  C   UNL     1      -1.371  -0.295  -2.449  0.00  0.00    +0.023 A 
ATOM      3  C   UNL     1      -2.065  -0.431  -3.635  0.00  0.00    +0.007 A 
ATOM      4  C   UNL     1      -1.419  -0.883  -4.771  0.00  0.00    -0.024 A 
ATOM      5  C   UNL     1      -0.071  -1.203  -4.737  0.00  0.00    +0.041 A 
ATOM      6  C   UNL     1       0.630  -1.060  -3.540  0.00  0.00    +0.046 A 
ATOM      7  N   UNL     1       0.387  -1.637  -5.985  0.00  0.00    -0.271 N 
ATOM      8  C   UNL     1      -0.710  -1.620  -6.956  0.00  0.00    +0.118 C 
ATOM      9  C   UNL     1      -1.934  -1.119  -6.174  0.00  0.00    +0.056 C 
ATOM     10  C   UNL     1       1.652  -2.016  -6.254  0.00  0.00    +0.224 C 
ATOM     11  O   UNL     1       2.491  -1.995  -5.378  0.00  0.00    -0.275 OA
ENDROOT
BRANCH   1  12
ATOM     12  N   UNL     1       0.688  -0.476  -1.203  0.00  0.00    -0.333 N 
ATOM     13  H   UNL     1       1.632  -0.695  -1.170  0.00  0.00    +0.147 HD
BRANCH  12  15
ATOM     14  C   UNL     1      -0.019   1.526   0.010  0.00  0.00    +0.038 C 
ATOM     15  C   UNL     1       0.002  -0.004   0.002  0.00  0.00    +0.154 C 
BRANCH  15  16
ATOM     16  C   UNL     1       0.731  -0.503   1.223  0.00  0.00    +0.240 C 
ATOM     17  O   UNL     1       1.725  -1.186   1.099  0.00  0.00    -0.273 OA
ATOM     18  N   UNL     1       0.278  -0.191   2.453  0.00  0.00    -0.239 N 
ATOM     19  C   UNL     1       0.930  -0.637   3.545  0.00  0.00    +0.303 C 
ATOM     20  O   UNL     1       1.926  -1.322   3.420  0.00  0.00    -0.253 OA
ATOM     21  N   UNL     1       0.476  -0.324   4.775  0.00  0.00    -0.313 N 
ATOM     22  H   UNL     1      -0.517   0.356   2.553  0.00  0.00    +0.159 HD
ATOM     23  H   UNL     1      -0.319   0.222   4.875  0.00  0.00    +0.146 HD
ATOM     24  H   UNL     1       0.946  -0.646   5.561  0.00  0.00    +0.146 HD
ENDBRANCH  15  16
ENDBRANCH  12  15
ENDBRANCH   1  12
BRANCH  10  25
ATOM     25  C   UNL     1       2.025  -2.466  -7.644  0.00  0.00    +0.131 C 
BRANCH  25  26
ATOM     26  C   UNL     1       3.486  -2.832  -7.678  0.00  0.00    -0.035 A 
ATOM     27  C   UNL     1       4.432  -1.869  -7.980  0.00  0.00    +0.004 A 
ATOM     28  C   UNL     1       5.774  -2.202  -8.013  0.00  0.00    +0.004 A 
ATOM     29  C   UNL     1       6.172  -3.497  -7.745  0.00  0.00    +0.045 A 
ATOM     30  C   UNL     1       5.225  -4.464  -7.441  0.00  0.00    +0.120 A 
ATOM     31  C   UNL     1       3.880  -4.127  -7.403  0.00  0.00    +0.049 A 
BRANCH  30  32
ATOM     32  O   UNL     1       5.615  -5.739  -7.177  0.00  0.00    -0.495 OA
ATOM     33  C   UNL     1       7.016  -6.013  -7.229  0.00  0.00    +0.277 C 
ENDBRANCH  30  32
ENDBRANCH  25  26
ENDBRANCH  10  25
TORSDOF 6
