REMARK  Name = ZINC42081280
REMARK  9 active torsions:
REMARK  status: ('A' for Active; 'I' for Inactive)
REMARK    1  A    between atoms: C_1  and  C_2
REMARK    2  A    between atoms: C_2  and  C_3
REMARK    3  A    between atoms: C_3  and  C_4
REMARK    4  A    between atoms: C_4  and  C_5
REMARK    5  A    between atoms: C_5  and  C_6
REMARK    6  A    between atoms: C_6  and  C_7
REMARK    7  A    between atoms: C_7  and  C_9
REMARK    8  A    between atoms: C_7  and  N_10
REMARK    9  A    between atoms: N_10  and  C_11
REMARK                            x       y       z     vdW  Elec       q    Type
REMARK                         _______ _______ _______ _____ _____    ______ ____
ROOT
ATOM      1  C   UNL     1      -6.325  -4.683   1.243  0.00  0.00    +0.049 C 
ATOM      2  C   UNL     1      -6.998  -4.378   2.562  0.00  0.00    -0.030 A 
ATOM      3  C   UNL     1      -6.778  -4.816   3.849  0.00  0.00    +0.004 A 
ATOM      4  C   UNL     1      -7.574  -4.354   4.881  0.00  0.00    +0.001 A 
ATOM      5  C   UNL     1      -8.589  -3.452   4.616  0.00  0.00    +0.017 A 
ATOM      6  C   UNL     1      -8.813  -3.012   3.327  0.00  0.00    +0.039 A 
ATOM      7  C   UNL     1      -8.014  -3.474   2.282  0.00  0.00    +0.049 A 
ATOM      8  N   UNL     1      -8.040  -3.184   0.917  0.00  0.00    -0.285 N 
ATOM      9  C   UNL     1      -7.087  -3.849   0.236  0.00  0.00    +0.208 C 
ATOM     10  O   UNL     1      -6.878  -3.792  -0.958  0.00  0.00    -0.277 OA
ATOM     11 BR   UNL     1     -10.205  -1.780   2.978  0.00  0.00    -0.048 Br
ATOM     12  H   UNL     1      -8.672  -2.574   0.506  0.00  0.00    +0.155 HD
ENDROOT
BRANCH   1  13
ATOM     13  N   UNL     1      -4.912  -4.280   1.281  0.00  0.00    +0.391 N 
ATOM     14  H   UNL     1      -4.450  -4.746   2.048  0.00  0.00    -0.084 HD
ATOM     15  H   UNL     1      -4.851  -3.281   1.409  0.00  0.00    -0.084 HD
BRANCH  13  16
ATOM     16  C   UNL     1      -4.263  -4.652   0.018  0.00  0.00    -0.074 C 
ATOM     17  C   UNL     1      -4.245  -6.176  -0.116  0.00  0.00    -0.014 C 
BRANCH  16  18
ATOM     18  C   UNL     1      -2.827  -4.123   0.007  0.00  0.00    -0.016 C 
BRANCH  18  19
ATOM     19  C   UNL     1      -2.848  -2.593   0.015  0.00  0.00    -0.002 C 
BRANCH  19  20
ATOM     20  C   UNL     1      -1.413  -2.063   0.004  0.00  0.00    -0.000 C 
BRANCH  20  21
ATOM     21  C   UNL     1      -1.433  -0.534   0.013  0.00  0.00    -0.000 C 
BRANCH  21  23
ATOM     22  C   UNL     1      -0.019   1.526   0.010  0.00  0.00    +0.004 C 
ATOM     23  C   UNL     1       0.002  -0.004   0.002  0.00  0.00    -0.003 C 
ENDBRANCH  21  23
ENDBRANCH  20  21
ENDBRANCH  19  20
ENDBRANCH  18  19
ENDBRANCH  16  18
ENDBRANCH  13  16
ENDBRANCH   1  13
TORSDOF 7
