REMARK  Name = ZINC09266129
REMARK  7 active torsions:
REMARK  status: ('A' for Active; 'I' for Inactive)
REMARK    1  A    between atoms: C_1  and  C_2
REMARK    2  A    between atoms: C_2  and  O_3
REMARK    3  A    between atoms: O_3  and  C_4
REMARK    4  A    between atoms: C_9  and  C_10
REMARK    5  A    between atoms: C_10  and  C_12
REMARK    6  A    between atoms: C_32  and  C_40
REMARK    7  A    between atoms: C_34  and  C_39
REMARK                            x       y       z     vdW  Elec       q    Type
REMARK                         _______ _______ _______ _____ _____    ______ ____
ROOT
ATOM      1  C   UNL     1       2.229   4.002  -0.678  0.00  0.00    +0.066 C 
ATOM      2  C   UNL     1       2.704   3.641   0.750  0.00  0.00    -0.055 C 
ATOM      3  C   UNL     1       2.488   4.850   1.675  0.00  0.00    -0.016 C 
ATOM      4  C   UNL     1       1.057   4.658   2.256  0.00  0.00    -0.020 C 
ATOM      5  C   UNL     1       0.522   3.369   1.600  0.00  0.00    -0.076 C 
ATOM      6  C   UNL     1       1.422   1.799   0.002  0.00  0.00    +0.060 C 
ATOM      7  C   UNL     1       1.718   2.657  -1.222  0.00  0.00    +0.085 C 
ATOM      8  C   UNL     1       0.503   2.847  -2.085  0.00  0.00    -0.011 A 
ATOM      9  C   UNL     1      -0.748   3.374  -1.857  0.00  0.00    +0.006 A 
ATOM     10  C   UNL     1      -1.680   3.414  -2.879  0.00  0.00    +0.000 A 
ATOM     11  C   UNL     1      -1.352   2.923  -4.129  0.00  0.00    +0.002 A 
ATOM     12  C   UNL     1      -0.100   2.394  -4.363  0.00  0.00    +0.023 A 
ATOM     13  C   UNL     1       0.845   2.350  -3.339  0.00  0.00    +0.038 A 
ATOM     14  N   UNL     1       2.157   1.871  -3.328  0.00  0.00    -0.285 N 
ATOM     15  C   UNL     1       2.740   2.015  -2.123  0.00  0.00    +0.228 C 
ATOM     16  O   UNL     1       3.869   1.690  -1.821  0.00  0.00    -0.275 OA
ATOM     17  C   UNL     1       2.227   0.527  -0.010  0.00  0.00    -0.026 A 
ATOM     18  C   UNL     1       3.579   0.265  -0.023  0.00  0.00    +0.008 A 
ATOM     19  C   UNL     1       4.030  -1.042  -0.032  0.00  0.00    -0.050 A 
ATOM     20  C   UNL     1       3.121  -2.084  -0.029  0.00  0.00    +0.008 A 
ATOM     21  C   UNL     1       1.766  -1.827  -0.015  0.00  0.00    -0.029 A 
ATOM     22  C   UNL     1       1.303  -0.513  -0.005  0.00  0.00    +0.039 A 
ATOM     23  N   UNL     1       0.003  -0.003   0.009  0.00  0.00    -0.286 N 
ATOM     24  C   UNL     1      -0.015   1.342   0.015  0.00  0.00    +0.212 C 
ATOM     25  O   UNL     1      -0.999   2.052   0.024  0.00  0.00    -0.277 OA
ATOM     26  C   UNL     1       0.784  -2.970  -0.011  0.00  0.00    +0.045 C 
ATOM     27  C   UNL     1       5.509  -1.331  -0.047  0.00  0.00    +0.044 C 
ATOM     28  H   UNL     1       2.597   1.481  -4.099  0.00  0.00    +0.155 HD
ATOM     29  H   UNL     1      -0.794  -0.555   0.014  0.00  0.00    +0.155 HD
ATOM     30  N   UNL     1       1.729   2.650   1.167  0.00  0.00    +0.395 N 
ATOM     31  H   UNL     1       2.097   2.078   1.936  0.00  0.00    -0.079 HD
ENDROOT
BRANCH   1  32
ATOM     32  C   UNL     1       1.115   5.015  -0.629  0.00  0.00    +0.169 C 
ATOM     33  O   UNL     1       0.430   5.116   0.367  0.00  0.00    -0.292 OA
BRANCH  32  39
ATOM     34  C   UNL     1      -0.179   6.826  -1.746  0.00  0.00    +0.131 A 
ATOM     35  C   UNL     1      -0.412   7.638  -2.846  0.00  0.00    +0.046 A 
ATOM     36  C   UNL     1       0.374   7.516  -3.975  0.00  0.00    +0.004 A 
ATOM     37  C   UNL     1       1.399   6.584  -4.020  0.00  0.00    +0.001 A 
ATOM     38  C   UNL     1       1.649   5.772  -2.937  0.00  0.00    +0.015 A 
ATOM     39  C   UNL     1       0.858   5.880  -1.787  0.00  0.00    +0.059 A 
BRANCH  34  40
ATOM     40  O   UNL     1      -0.950   6.945  -0.636  0.00  0.00    -0.492 OA
BRANCH  40  42
ATOM     41  C   UNL     1      -2.743   7.916   0.661  0.00  0.00    +0.048 C 
ATOM     42  C   UNL     1      -1.986   7.929  -0.668  0.00  0.00    +0.226 C 
ENDBRANCH  40  42
ENDBRANCH  34  40
ENDBRANCH  32  39
ENDBRANCH   1  32
TORSDOF 4
