REMARK  Name = ZINC36579581
REMARK  15 active torsions:
REMARK  status: ('A' for Active; 'I' for Inactive)
REMARK    1  A    between atoms: C_1  and  C_2
REMARK    2  A    between atoms: C_2  and  C_3
REMARK    3  A    between atoms: C_3  and  C_4
REMARK    4  A    between atoms: C_4  and  N_5
REMARK    5  A    between atoms: C_6  and  C_8
REMARK    6  A    between atoms: C_8  and  C_10
REMARK    7  A    between atoms: C_8  and  N_17
REMARK    8  A    between atoms: N_17  and  C_36
REMARK    9  A    between atoms: C_18  and  C_20
REMARK   10  A    between atoms: C_26  and  O_28
REMARK   11  A    between atoms: O_28  and  C_29
REMARK   12  A    between atoms: C_29  and  C_30
REMARK   13  A    between atoms: C_36  and  C_37
REMARK   14  A    between atoms: C_36  and  C_38
REMARK   15  A    between atoms: C_36  and  C_39
REMARK                            x       y       z     vdW  Elec       q    Type
REMARK                         _______ _______ _______ _____ _____    ______ ____
ROOT
ATOM      1  N   UNL     1       2.857  -5.466  -3.991  0.00  0.00    -0.279 N 
ATOM      2  C   UNL     1       4.129  -5.435  -3.545  0.00  0.00    +0.238 C 
ATOM      3  O   UNL     1       4.555  -4.441  -2.997  0.00  0.00    -0.274 OA
ENDROOT
BRANCH   2   4
ATOM      4  C   UNL     1       5.022  -6.635  -3.729  0.00  0.00    +0.165 C 
ATOM      5  C   UNL     1       5.132  -7.415  -2.402  0.00  0.00    +0.033 C 
ATOM      6  C   UNL     1       6.618  -7.861  -2.383  0.00  0.00    +0.021 C 
ATOM      7  C   UNL     1       7.315  -6.647  -3.047  0.00  0.00    +0.112 C 
ATOM      8  N   UNL     1       6.377  -6.199  -4.096  0.00  0.00    -0.256 N 
ATOM      9  C   UNL     1       6.705  -5.506  -5.205  0.00  0.00    +0.404 C 
ATOM     10  O   UNL     1       5.844  -5.191  -6.002  0.00  0.00    -0.226 OA
BRANCH   9  11
ATOM     11  O   UNL     1       7.988  -5.164  -5.430  0.00  0.00    -0.445 OA
BRANCH  11  12
ATOM     12  C   UNL     1       8.264  -4.431  -6.625  0.00  0.00    +0.269 C 
BRANCH  12  13
ATOM     13  C   UNL     1       9.741  -4.140  -6.705  0.00  0.00    -0.010 A 
ATOM     14  C   UNL     1      10.248  -2.982  -6.146  0.00  0.00    +0.007 A 
ATOM     15  C   UNL     1      11.602  -2.714  -6.220  0.00  0.00    +0.000 A 
ATOM     16  C   UNL     1      12.449  -3.605  -6.852  0.00  0.00    +0.000 A 
ATOM     17  C   UNL     1      11.942  -4.764  -7.410  0.00  0.00    +0.000 A 
ATOM     18  C   UNL     1      10.589  -5.033  -7.333  0.00  0.00    +0.007 A 
ENDBRANCH  12  13
ENDBRANCH  11  12
ENDBRANCH   9  11
ENDBRANCH   2   4
BRANCH   1  19
ATOM     19  C   UNL     1       2.381  -6.614  -4.767  0.00  0.00    +0.030 C 
ATOM     20  C   UNL     1       3.159  -6.698  -6.082  0.00  0.00    +0.031 C 
ATOM     21  C   UNL     1       2.598  -7.898  -3.964  0.00  0.00    +0.031 C 
ATOM     22  C   UNL     1       0.890  -6.444  -5.066  0.00  0.00    +0.031 C 
ENDBRANCH   1  19
BRANCH   1  23
ATOM     23  C   UNL     1       1.951  -4.353  -3.698  0.00  0.00    +0.193 C 
BRANCH  23  24
ATOM     24  C   UNL     1       1.733  -4.261  -2.210  0.00  0.00    -0.018 A 
ATOM     25  C   UNL     1       2.560  -4.954  -1.346  0.00  0.00    +0.007 A 
ATOM     26  C   UNL     1       2.361  -4.870   0.019  0.00  0.00    +0.020 A 
ATOM     27  C   UNL     1       1.332  -4.092   0.521  0.00  0.00    +0.041 A 
ATOM     28  C   UNL     1       0.505  -3.399  -0.344  0.00  0.00    +0.020 A 
ATOM     29  C   UNL     1       0.709  -3.479  -1.708  0.00  0.00    +0.007 A 
ATOM     30 CL   UNL     1       1.081  -3.986   2.236  0.00  0.00    -0.084 Cl
ENDBRANCH  23  24
BRANCH  23  32
ATOM     31  N   UNL     1       1.863  -1.915  -4.107  0.00  0.00    -0.313 N 
ATOM     32  C   UNL     1       2.557  -3.067  -4.197  0.00  0.00    +0.238 C 
ATOM     33  O   UNL     1       3.669  -3.069  -4.681  0.00  0.00    -0.273 OA
ATOM     34  H   UNL     1       0.974  -1.914  -3.720  0.00  0.00    +0.149 HD
BRANCH  31  35
ATOM     35  C   UNL     1       2.452  -0.665  -4.592  0.00  0.00    +0.104 C 
BRANCH  35  36
ATOM     36  C   UNL     1       1.465   0.483  -4.373  0.00  0.00    +0.018 C 
BRANCH  36  38
ATOM     37  C   UNL     1       1.093   2.937  -4.661  0.00  0.00    +0.004 C 
ATOM     38  C   UNL     1       2.081   1.789  -4.880  0.00  0.00    -0.002 C 
ENDBRANCH  36  38
ENDBRANCH  35  36
ENDBRANCH  31  35
ENDBRANCH  23  32
ENDBRANCH   1  23
TORSDOF 11
