REMARK  Name = ZINC03285478
REMARK  14 active torsions:
REMARK  status: ('A' for Active; 'I' for Inactive)
REMARK    1  A    between atoms: C_1  and  C_2
REMARK    2  A    between atoms: C_2  and  C_3
REMARK    3  A    between atoms: C_3  and  C_4
REMARK    4  A    between atoms: C_4  and  C_6
REMARK    5  A    between atoms: C_4  and  N_7
REMARK    6  A    between atoms: N_7  and  C_8
REMARK    7  A    between atoms: C_8  and  C_10
REMARK    8  A    between atoms: C_8  and  C_16
REMARK    9  A    between atoms: N_18  and  C_19
REMARK   10  A    between atoms: C_20  and  C_30
REMARK   11  A    between atoms: C_25  and  C_29
REMARK   12  A    between atoms: C_30  and  O_32
REMARK   13  A    between atoms: O_32  and  C_33
REMARK   14  A    between atoms: C_33  and  C_34
REMARK                            x       y       z     vdW  Elec       q    Type
REMARK                         _______ _______ _______ _____ _____    ______ ____
ROOT
ATOM      1  C   UNL     1       2.231  -6.105  -3.026  0.00  0.00    +0.208 C 
ATOM      2  O   UNL     1       2.202  -5.214  -3.847  0.00  0.00    -0.277 OA
ATOM      3  N   UNL     1       1.933  -5.845  -1.737  0.00  0.00    -0.280 N 
ATOM      4  H   UNL     1       1.960  -6.653  -0.992  0.00  0.00    +0.155 HD
ENDROOT
BRANCH   3   5
ATOM      5  C   UNL     1       1.594  -4.557  -1.351  0.00  0.00    +0.086 A 
ATOM      6  C   UNL     1       1.259  -4.096  -0.085  0.00  0.00    +0.091 A 
ATOM      7  C   UNL     1       0.942  -2.684   0.053  0.00  0.00    -0.021 A 
ATOM      8  C   UNL     1       1.009  -1.966  -1.089  0.00  0.00    -0.004 A 
ATOM      9  S   UNL     1       1.485  -3.133  -2.332  0.00  0.00    -0.077 S 
ATOM     10  C   UNL     1       0.736  -0.502  -1.252  0.00  0.00    +0.046 C 
ATOM     11  C   UNL     1       0.002  -0.004   0.002  0.00  0.00    -0.009 C 
ATOM     12  C   UNL     1       0.742  -0.514   1.242  0.00  0.00    +0.008 C 
ATOM     13  C   UNL     1       0.557  -2.027   1.373  0.00  0.00    +0.037 C 
ATOM     14  C   UNL     1      -0.019   1.526   0.010  0.00  0.00    +0.008 C 
BRANCH   6  15
ATOM     15  C   UNL     1       1.226  -4.998   1.068  0.00  0.00    +0.342 C 
ATOM     16  O   UNL     1       0.199  -5.582   1.355  0.00  0.00    -0.245 OA
BRANCH  15  17
ATOM     17  O   UNL     1       2.336  -5.181   1.813  0.00  0.00    -0.461 OA
BRANCH  17  18
ATOM     18  C   UNL     1       2.231  -6.090   2.941  0.00  0.00    +0.229 C 
ATOM     19  C   UNL     1       3.579  -6.169   3.659  0.00  0.00    +0.048 C 
ENDBRANCH  17  18
ENDBRANCH  15  17
ENDBRANCH   6  15
ENDBRANCH   3   5
BRANCH   1  20
ATOM     20  C   UNL     1       2.599  -7.505  -3.445  0.00  0.00    +0.047 C 
BRANCH  20  21
ATOM     21  C   UNL     1       1.457  -8.439  -3.139  0.00  0.00    -0.053 A 
ATOM     22  C   UNL     1       0.369  -8.502  -3.990  0.00  0.00    +0.002 A 
ATOM     23  C   UNL     1      -0.677  -9.362  -3.711  0.00  0.00    +0.000 A 
ATOM     24  C   UNL     1      -0.640 -10.151  -2.577  0.00  0.00    +0.000 A 
ATOM     25  C   UNL     1       0.446 -10.084  -1.724  0.00  0.00    +0.000 A 
ATOM     26  C   UNL     1       1.494  -9.228  -2.005  0.00  0.00    +0.002 A 
ENDBRANCH  20  21
BRANCH  20  27
ATOM     27  N   UNL     1       2.877  -7.527  -4.888  0.00  0.00    +0.391 N 
ATOM     28  H   UNL     1       3.346  -6.573  -5.171  0.00  0.00    -0.084 HD
ATOM     29  H   UNL     1       1.925  -7.641  -5.428  0.00  0.00    -0.084 HD
BRANCH  27  30
ATOM     30  C   UNL     1       3.774  -8.637  -5.234  0.00  0.00    -0.074 C 
ATOM     31  C   UNL     1       5.226  -8.203  -5.029  0.00  0.00    -0.014 C 
BRANCH  30  32
ATOM     32  C   UNL     1       3.561  -9.027  -6.699  0.00  0.00    -0.016 C 
BRANCH  32  34
ATOM     33  C   UNL     1       1.932  -9.968  -8.343  0.00  0.00    +0.004 C 
ATOM     34  C   UNL     1       2.145  -9.579  -6.879  0.00  0.00    -0.005 C 
ENDBRANCH  32  34
ENDBRANCH  30  32
ENDBRANCH  27  30
ENDBRANCH  20  27
ENDBRANCH   1  20
TORSDOF 10
