REMARK  Name = ZINC66116743
REMARK  10 active torsions:
REMARK  status: ('A' for Active; 'I' for Inactive)
REMARK    1  A    between atoms: C_1  and  C_2
REMARK    2  A    between atoms: C_2  and  C_3
REMARK    3  A    between atoms: C_2  and  O_4
REMARK    4  A    between atoms: O_4  and  C_5
REMARK    5  A    between atoms: C_8  and  C_11
REMARK    6  A    between atoms: C_11  and  N_12
REMARK    7  A    between atoms: N_12  and  C_13
REMARK    8  A    between atoms: C_13  and  C_14
REMARK    9  A    between atoms: C_23  and  O_24
REMARK   10  A    between atoms: O_24  and  C_25
REMARK                            x       y       z     vdW  Elec       q    Type
REMARK                         _______ _______ _______ _____ _____    ______ ____
ROOT
ATOM      1  N   UNL     1       6.674  -2.204  -0.593  0.00  0.00    +0.384 N 
ATOM      2  H   UNL     1       6.284  -2.444   0.306  0.00  0.00    -0.085 HD
ATOM      3  H   UNL     1       6.324  -2.841  -1.293  0.00  0.00    -0.085 HD
ENDROOT
BRANCH   1   4
ATOM      4  C   UNL     1       6.287  -0.831  -0.944  0.00  0.00    -0.046 C 
BRANCH   4   8
ATOM      5  C   UNL     1       2.026  -0.553  -1.118  0.00  0.00    +0.121 A 
ATOM      6  C   UNL     1       2.690  -0.309   0.075  0.00  0.00    +0.046 A 
ATOM      7  C   UNL     1       4.067  -0.400   0.129  0.00  0.00    +0.005 A 
ATOM      8  C   UNL     1       4.784  -0.733  -1.005  0.00  0.00    -0.064 A 
ATOM      9  C   UNL     1       4.125  -0.976  -2.196  0.00  0.00    +0.005 A 
ATOM     10  C   UNL     1       2.747  -0.893  -2.253  0.00  0.00    +0.046 A 
BRANCH   5  11
ATOM     11  O   UNL     1       0.671  -0.465  -1.174  0.00  0.00    -0.489 OA
BRANCH  11  13
ATOM     12  C   UNL     1      -0.044   1.273   0.345  0.00  0.00    +0.051 C 
ATOM     13  C   UNL     1      -0.015  -0.229   0.058  0.00  0.00    +0.167 C 
ATOM     14  C   UNL     1      -1.447  -0.757  -0.047  0.00  0.00    +0.051 C 
ENDBRANCH  11  13
ENDBRANCH   5  11
ENDBRANCH   4   8
ENDBRANCH   1   4
BRANCH   1  15
ATOM     15  C   UNL     1       8.139  -2.299  -0.533  0.00  0.00    -0.042 C 
BRANCH  15  16
ATOM     16  C   UNL     1       8.536  -3.707  -0.173  0.00  0.00    -0.015 A 
ATOM     17  C   UNL     1       8.688  -4.076   1.173  0.00  0.00    -0.013 A 
ATOM     18  C   UNL     1       8.475  -3.152   2.211  0.00  0.00    +0.009 A 
ATOM     19  C   UNL     1       8.630  -3.545   3.505  0.00  0.00    +0.001 A 
ATOM     20  C   UNL     1       8.998  -4.852   3.819  0.00  0.00    +0.001 A 
ATOM     21  C   UNL     1       9.213  -5.773   2.841  0.00  0.00    +0.008 A 
ATOM     22  C   UNL     1       9.062  -5.406   1.493  0.00  0.00    -0.017 A 
ATOM     23  C   UNL     1       9.275  -6.332   0.456  0.00  0.00    +0.012 A 
ATOM     24  C   UNL     1       9.120  -5.943  -0.838  0.00  0.00    +0.046 A 
ATOM     25  C   UNL     1       8.746  -4.633  -1.155  0.00  0.00    +0.122 A 
BRANCH  25  26
ATOM     26  O   UNL     1       8.594  -4.277  -2.457  0.00  0.00    -0.495 OA
ATOM     27  C   UNL     1       8.827  -5.289  -3.439  0.00  0.00    +0.277 C 
ENDBRANCH  25  26
ENDBRANCH  15  16
ENDBRANCH   1  15
TORSDOF 7
