REMARK  Name = ZINC09403793
REMARK  4 active torsions:
REMARK  status: ('A' for Active; 'I' for Inactive)
REMARK    1  A    between atoms: C_4  and  N_7
REMARK    2  A    between atoms: C_17  and  S_18
REMARK    3  A    between atoms: S_18  and  C_19
REMARK    4  A    between atoms: C_19  and  C_20
REMARK                            x       y       z     vdW  Elec       q    Type
REMARK                         _______ _______ _______ _____ _____    ______ ____
ROOT
ATOM      1  N   UNL     1       3.585   2.124  -0.021  0.00  0.00    -0.255 N 
ATOM      2  C   UNL     1       4.761   1.460   0.067  0.00  0.00    +0.267 A 
ATOM      3  O   UNL     1       4.795   0.247   0.154  0.00  0.00    -0.267 OA
ATOM      4  C   UNL     1       5.994   2.258   0.054  0.00  0.00    +0.065 A 
ATOM      5  C   UNL     1       7.255   1.667   0.140  0.00  0.00    +0.015 A 
ATOM      6  C   UNL     1       8.371   2.456   0.123  0.00  0.00    +0.001 A 
ATOM      7  C   UNL     1       8.263   3.837   0.022  0.00  0.00    +0.002 A 
ATOM      8  C   UNL     1       7.041   4.443  -0.062  0.00  0.00    +0.028 A 
ATOM      9  C   UNL     1       5.880   3.663  -0.048  0.00  0.00    +0.079 A 
ATOM     10  N   UNL     1       4.650   4.221  -0.131  0.00  0.00    -0.223 NA
ATOM     11  C   UNL     1       3.564   3.488  -0.123  0.00  0.00    +0.177 A 
ENDROOT
BRANCH   1  15
ATOM     12  C   UNL     1       0.002  -0.004   0.002  0.00  0.00    +0.000 A 
ATOM     13  C   UNL     1       0.639   0.262  -1.196  0.00  0.00    +0.002 A 
ATOM     14  C   UNL     1       1.827   0.967  -1.207  0.00  0.00    +0.026 A 
ATOM     15  C   UNL     1       2.381   1.409  -0.013  0.00  0.00    +0.052 A 
ATOM     16  C   UNL     1       1.738   1.141   1.188  0.00  0.00    +0.026 A 
ATOM     17  C   UNL     1       0.551   0.435   1.193  0.00  0.00    +0.002 A 
ENDBRANCH   1  15
BRANCH  11  18
ATOM     18  S   UNL     1       2.003   4.297  -0.242  0.00  0.00    -0.081 S 
BRANCH  18  19
ATOM     19  C   UNL     1       2.550   6.020  -0.349  0.00  0.00    +0.134 C 
BRANCH  19  20
ATOM     20  C   UNL     1       1.348   6.922  -0.462  0.00  0.00    +0.070 A 
ATOM     21  C   UNL     1       0.764   7.317  -1.614  0.00  0.00    +0.116 A 
ATOM     22  N   UNL     1      -0.291   8.121  -1.278  0.00  0.00    -0.305 N 
ATOM     23  C   UNL     1      -1.218   8.788  -2.025  0.00  0.00    +0.108 A 
ATOM     24  C   UNL     1      -2.172   9.536  -1.430  0.00  0.00    +0.034 A 
ATOM     25  C   UNL     1      -2.221   9.637  -0.029  0.00  0.00    +0.020 A 
ATOM     26  C   UNL     1      -1.302   8.978   0.727  0.00  0.00    +0.048 A 
ATOM     27  C   UNL     1      -0.313   8.202   0.090  0.00  0.00    +0.138 A 
ATOM     28  N   UNL     1       0.686   7.469   0.561  0.00  0.00    -0.232 NA
ATOM     29 BR   UNL     1      -3.447  10.450  -2.485  0.00  0.00    -0.049 Br
ENDBRANCH  19  20
ENDBRANCH  18  19
ENDBRANCH  11  18
TORSDOF 4
