REMARK  Name = ZINC27249441
REMARK  11 active torsions:
REMARK  status: ('A' for Active; 'I' for Inactive)
REMARK    1  A    between atoms: C_1  and  C_2
REMARK    2  A    between atoms: C_2  and  C_3
REMARK    3  A    between atoms: C_3  and  C_4
REMARK    4  A    between atoms: C_3  and  C_13
REMARK    5  A    between atoms: C_3  and  O_29
REMARK    6  A    between atoms: C_7  and  O_10
REMARK    7  A    between atoms: O_10  and  C_11
REMARK    8  A    between atoms: C_11  and  C_12
REMARK    9  A    between atoms: C_13  and  C_15
REMARK   10  A    between atoms: C_13  and  C_22
REMARK   11  A    between atoms: C_15  and  N_16
REMARK                            x       y       z     vdW  Elec       q    Type
REMARK                         _______ _______ _______ _____ _____    ______ ____
ROOT
ATOM      1  C   UNL     1       2.034   4.884   0.143  0.00  0.00    +0.039 C 
ENDROOT
BRANCH   1   2
ATOM      2  C   UNL     1       3.385   4.436  -0.351  0.00  0.00    -0.043 A 
ATOM      3  C   UNL     1       3.654   4.416  -1.706  0.00  0.00    +0.005 A 
ATOM      4  C   UNL     1       4.895   4.010  -2.159  0.00  0.00    +0.020 A 
ATOM      5  C   UNL     1       5.865   3.613  -1.256  0.00  0.00    +0.041 A 
ATOM      6  C   UNL     1       5.593   3.627   0.101  0.00  0.00    +0.020 A 
ATOM      7  C   UNL     1       4.354   4.039   0.552  0.00  0.00    +0.005 A 
ATOM      8 CL   UNL     1       7.421   3.096  -1.825  0.00  0.00    -0.084 Cl
ENDBRANCH   1   2
BRANCH   1   9
ATOM      9  C   UNL     1       0.947   3.999  -0.471  0.00  0.00    +0.096 C 
BRANCH   9  10
ATOM     10  C   UNL     1      -0.410   4.540  -0.102  0.00  0.00    -0.015 A 
ATOM     11  C   UNL     1      -1.276   4.968  -1.091  0.00  0.00    +0.010 A 
ATOM     12  C   UNL     1      -2.520   5.465  -0.755  0.00  0.00    +0.046 A 
ATOM     13  C   UNL     1      -2.901   5.534   0.577  0.00  0.00    +0.121 A 
ATOM     14  C   UNL     1      -2.031   5.104   1.569  0.00  0.00    +0.046 A 
ATOM     15  C   UNL     1      -0.788   4.608   1.227  0.00  0.00    +0.010 A 
BRANCH  13  16
ATOM     16  O   UNL     1      -4.125   6.022   0.911  0.00  0.00    -0.492 OA
BRANCH  16  17
ATOM     17  C   UNL     1      -4.450   6.064   2.302  0.00  0.00    +0.225 C 
ATOM     18  C   UNL     1      -5.856   6.639   2.480  0.00  0.00    +0.048 C 
ENDBRANCH  16  17
ENDBRANCH  13  16
ENDBRANCH   9  10
BRANCH   9  20
ATOM     19  C   UNL     1       2.418   1.981  -0.413  0.00  0.00    +0.007 C 
ATOM     20  C   UNL     1       1.089   2.572   0.062  0.00  0.00    +0.037 C 
ENDBRANCH   9  20
BRANCH   9  21
ATOM     21  O   UNL     1       1.086   3.992  -1.893  0.00  0.00    -0.383 OA
ATOM     22  H   UNL     1       1.012   4.934  -2.458  0.00  0.00    +0.211 HD
ENDBRANCH   9  21
ENDBRANCH   1   9
BRANCH   1  23
ATOM     23  C   UNL     1       1.798   6.339  -0.267  0.00  0.00    -0.068 C 
BRANCH  23  24
ATOM     24  N   UNL     1       2.783   7.201   0.401  0.00  0.00    +0.380 N 
ATOM     25  C   UNL     1       2.579   7.205   1.855  0.00  0.00    -0.079 C 
ATOM     26  C   UNL     1       3.705   7.992   2.527  0.00  0.00    -0.019 C 
ATOM     27  C   UNL     1       3.710   9.426   1.990  0.00  0.00    -0.004 C 
ATOM     28  C   UNL     1       3.876   9.392   0.469  0.00  0.00    -0.019 C 
ATOM     29  C   UNL     1       2.744   8.564  -0.144  0.00  0.00    -0.079 C 
ATOM     30  H   UNL     1       3.784   6.790   0.204  0.00  0.00    -0.082 HD
ENDBRANCH  23  24
ENDBRANCH   1  23
TORSDOF 9
