REMARK  Name = ZINC22473128
REMARK  9 active torsions:
REMARK  status: ('A' for Active; 'I' for Inactive)
REMARK    1  A    between atoms: C_4  and  C_7
REMARK    2  A    between atoms: C_7  and  N_8
REMARK    3  A    between atoms: N_8  and  C_9
REMARK    4  A    between atoms: C_9  and  C_10
REMARK    5  A    between atoms: C_10  and  C_11
REMARK    6  A    between atoms: C_11  and  N_12
REMARK    7  A    between atoms: C_15  and  O_16
REMARK    8  A    between atoms: C_24  and  C_26
REMARK    9  A    between atoms: C_29  and  N_33
REMARK                            x       y       z     vdW  Elec       q    Type
REMARK                         _______ _______ _______ _____ _____    ______ ____
ROOT
ATOM      1  N   UNL     1      -6.450   2.114   0.043  0.00  0.00    -0.293 N 
ATOM      2  C   UNL     1      -6.893   2.817   1.104  0.00  0.00    +0.248 C 
ATOM      3  O   UNL     1      -7.598   3.793   0.935  0.00  0.00    -0.270 OA
ENDROOT
BRANCH   2   4
ATOM      4  C   UNL     1      -6.520   2.402   2.472  0.00  0.00    +0.055 A 
ATOM      5  C   UNL     1      -5.335   1.697   2.693  0.00  0.00    +0.017 A 
ATOM      6  C   UNL     1      -4.994   1.312   3.973  0.00  0.00    +0.033 A 
ATOM      7  C   UNL     1      -5.822   1.623   5.038  0.00  0.00    +0.128 A 
ATOM      8  C   UNL     1      -6.997   2.321   4.827  0.00  0.00    +0.053 A 
ATOM      9  C   UNL     1      -7.349   2.717   3.551  0.00  0.00    +0.055 A 
ATOM     10 CL   UNL     1      -8.821   3.600   3.289  0.00  0.00    -0.083 Cl
BRANCH   7  11
ATOM     11  N   UNL     1      -5.448   1.208   6.408  0.00  0.00    +0.056 N 
ATOM     12  O   UNL     1      -4.413   0.594   6.597  0.00  0.00    -0.126 OA
ATOM     13  O   UNL     1      -6.174   1.480   7.347  0.00  0.00    -0.126 OA
ENDBRANCH   7  11
ENDBRANCH   2   4
BRANCH   1  14
ATOM     14  C   UNL     1      -6.787   2.548  -1.316  0.00  0.00    +0.143 C 
BRANCH  14  18
ATOM     15  C   UNL     1     -10.569   0.908  -2.438  0.00  0.00    +0.000 A 
ATOM     16  C   UNL     1     -10.512   2.098  -1.738  0.00  0.00    +0.000 A 
ATOM     17  C   UNL     1      -9.288   2.629  -1.374  0.00  0.00    +0.005 A 
ATOM     18  C   UNL     1      -8.121   1.969  -1.711  0.00  0.00    -0.030 A 
ATOM     19  C   UNL     1      -8.178   0.781  -2.416  0.00  0.00    +0.005 A 
ATOM     20  C   UNL     1      -9.402   0.248  -2.775  0.00  0.00    +0.000 A 
ENDBRANCH  14  18
ENDBRANCH   1  14
BRANCH   1  21
ATOM     21  C   UNL     1      -5.632   0.916   0.247  0.00  0.00    +0.110 C 
BRANCH  21  22
ATOM     22  C   UNL     1      -4.187   1.209  -0.162  0.00  0.00    +0.040 C 
BRANCH  22  23
ATOM     23  C   UNL     1      -3.333  -0.043   0.052  0.00  0.00    +0.114 C 
BRANCH  23  24
ATOM     24  N   UNL     1      -1.950   0.238  -0.339  0.00  0.00    -0.384 N 
ATOM     25  C   UNL     1      -0.991  -0.746  -0.234  0.00  0.00    +0.053 A 
ATOM     26  C   UNL     1      -1.309  -1.995   0.234  0.00  0.00    +0.113 A 
ATOM     27  C   UNL     1      -0.314  -2.976   0.324  0.00  0.00    +0.286 A 
ATOM     28  O   UNL     1       0.957  -2.732  -0.036  0.00  0.00    -0.425 OA
ATOM     29  C   UNL     1       1.344  -1.527  -0.506  0.00  0.00    +0.141 A 
ATOM     30  C   UNL     1       0.405  -0.490  -0.627  0.00  0.00    +0.041 A 
ATOM     31  C   UNL     1       0.800   0.757  -1.112  0.00  0.00    +0.013 A 
ATOM     32  C   UNL     1       2.114   0.964  -1.471  0.00  0.00    +0.001 A 
ATOM     33  C   UNL     1       3.041  -0.061  -1.352  0.00  0.00    +0.004 A 
ATOM     34  C   UNL     1       2.663  -1.298  -0.873  0.00  0.00    +0.047 A 
ATOM     35  H   UNL     1      -1.676   1.234  -0.717  0.00  0.00    +0.160 HD
BRANCH  27  36
ATOM     36  O   UNL     1      -0.609  -4.082   0.742  0.00  0.00    -0.480 OA
ATOM     37  H   UNL     1       0.160  -4.864   0.819  0.00  0.00    +0.295 HD
ENDBRANCH  27  36
ENDBRANCH  23  24
ENDBRANCH  22  23
ENDBRANCH  21  22
ENDBRANCH   1  21
TORSDOF 9
