REMARK  Name = ZINC15078278
REMARK  6 active torsions:
REMARK  status: ('A' for Active; 'I' for Inactive)
REMARK    1  A    between atoms: C_6  and  C_7
REMARK    2  A    between atoms: C_7  and  N_8
REMARK    3  A    between atoms: N_16  and  C_18
REMARK    4  A    between atoms: C_18  and  C_19
REMARK    5  A    between atoms: C_19  and  C_20
REMARK    6  A    between atoms: C_20  and  C_21
REMARK                            x       y       z     vdW  Elec       q    Type
REMARK                         _______ _______ _______ _____ _____    ______ ____
ROOT
ATOM      1  N   UNL     1      -1.727  -1.017  -1.372  0.00  0.00    -0.298 NA
ATOM      2  C   UNL     1      -0.790  -1.908  -2.069  0.00  0.00    +0.085 C 
ATOM      3  C   UNL     1      -1.185  -2.016  -3.544  0.00  0.00    +0.016 C 
ATOM      4  C   UNL     1      -2.608  -2.575  -3.645  0.00  0.00    +0.007 C 
ATOM      5  C   UNL     1      -3.557  -1.678  -2.856  0.00  0.00    -0.033 C 
ATOM      6  C   UNL     1      -3.095  -1.553  -1.408  0.00  0.00    +0.089 C 
ATOM      7  C   UNL     1      -4.987  -2.251  -2.906  0.00  0.00    -0.012 C 
ATOM      8  C   UNL     1      -5.862  -0.979  -3.052  0.00  0.00    -0.078 C 
ATOM      9  N   UNL     1      -5.050  -0.105  -3.938  0.00  0.00    +0.380 N 
ATOM     10  C   UNL     1      -3.645  -0.291  -3.509  0.00  0.00    -0.071 C 
ATOM     11  H   UNL     1      -5.160  -0.387  -4.900  0.00  0.00    -0.082 HD
ENDROOT
BRANCH   1  12
ATOM     12  C   UNL     1      -1.293  -0.774   0.010  0.00  0.00    +0.119 C 
BRANCH  12  18
ATOM     13  C   UNL     1      -0.017   1.378   0.010  0.00  0.00    +0.008 A 
ATOM     14  C   UNL     1       1.170   2.087   0.002  0.00  0.00    +0.041 A 
ATOM     15  C   UNL     1       2.379   1.413  -0.013  0.00  0.00    +0.158 A 
ATOM     16  C   UNL     1       2.397   0.026  -0.021  0.00  0.00    +0.159 A 
ATOM     17  C   UNL     1       1.208  -0.680  -0.013  0.00  0.00    +0.046 A 
ATOM     18  C   UNL     1       0.002  -0.004   0.002  0.00  0.00    -0.030 A 
ATOM     19  F   UNL     1       3.576  -0.634  -0.036  0.00  0.00    -0.202 F 
ATOM     20  F   UNL     1       3.539   2.105  -0.021  0.00  0.00    -0.202 F 
ENDBRANCH  12  18
ENDBRANCH   1  12
BRANCH   9  21
ATOM     21  C   UNL     1      -5.449   1.298  -3.770  0.00  0.00    -0.079 C 
BRANCH  21  22
ATOM     22  C   UNL     1      -6.878   1.486  -4.282  0.00  0.00    -0.010 C 
BRANCH  22  23
ATOM     23  C   UNL     1      -7.295   2.948  -4.107  0.00  0.00    +0.111 C 
BRANCH  23  24
ATOM     24  C   UNL     1      -8.724   3.136  -4.620  0.00  0.00    +0.390 C 
ATOM     25  F   UNL     1      -9.592   2.314  -3.893  0.00  0.00    -0.171 F 
ATOM     26  F   UNL     1      -9.105   4.473  -4.460  0.00  0.00    -0.171 F 
ATOM     27  F   UNL     1      -8.783   2.794  -5.975  0.00  0.00    -0.171 F 
ENDBRANCH  23  24
ENDBRANCH  22  23
ENDBRANCH  21  22
ENDBRANCH   9  21
TORSDOF 6
