REMARK  Name = ZINC39657709
REMARK  8 active torsions:
REMARK  status: ('A' for Active; 'I' for Inactive)
REMARK    1  A    between atoms: C_4  and  C_7
REMARK    2  A    between atoms: C_11  and  C_20
REMARK    3  A    between atoms: N_22  and  C_23
REMARK    4  A    between atoms: C_23  and  C_24
REMARK    5  A    between atoms: C_29  and  S_30
REMARK    6  A    between atoms: S_30  and  C_31
REMARK    7  A    between atoms: C_36  and  C_37
REMARK    8  A    between atoms: C_37  and  O_38
REMARK                            x       y       z     vdW  Elec       q    Type
REMARK                         _______ _______ _______ _____ _____    ______ ____
ROOT
ATOM      1  C   UNL     1       2.587  -5.406  -0.285  0.00  0.00    +0.218 C 
ATOM      2  O   UNL     1       3.137  -5.946   0.652  0.00  0.00    -0.275 OA
ATOM      3  N   UNL     1       1.428  -5.902  -0.762  0.00  0.00    -0.311 N 
ATOM      4  H   UNL     1       0.988  -5.470  -1.511  0.00  0.00    +0.149 HD
ENDROOT
BRANCH   1   9
ATOM      5  C   UNL     1       5.562  -1.494  -0.360  0.00  0.00    +0.247 C 
ATOM      6  O   UNL     1       6.514  -1.165  -1.042  0.00  0.00    -0.270 OA
ATOM      7  N   UNL     1       5.059  -2.740  -0.462  0.00  0.00    -0.296 N 
ATOM      8  C   UNL     1       3.830  -3.278   0.168  0.00  0.00    +0.121 C 
ATOM      9  C   UNL     1       3.200  -4.182  -0.915  0.00  0.00    +0.100 C 
ATOM     10  C   UNL     1       4.372  -4.577  -1.828  0.00  0.00    -0.004 C 
ATOM     11  C   UNL     1       5.606  -3.881  -1.236  0.00  0.00    +0.115 C 
ATOM     12  C   UNL     1       4.125  -4.080  -3.249  0.00  0.00    -0.010 C 
ATOM     13  C   UNL     1       5.277  -4.534  -4.151  0.00  0.00    -0.082 C 
ATOM     14  N   UNL     1       5.368  -5.999  -4.132  0.00  0.00    +0.379 N 
ATOM     15  C   UNL     1       5.697  -6.463  -2.779  0.00  0.00    -0.082 C 
ATOM     16  C   UNL     1       4.563  -6.090  -1.819  0.00  0.00    -0.010 C 
ATOM     17  H   UNL     1       4.483  -6.393  -4.415  0.00  0.00    -0.086 HD
ATOM     18  H   UNL     1       6.087  -6.298  -4.773  0.00  0.00    -0.086 HD
BRANCH   5  22
ATOM     19  C   UNL     1       3.823   1.284   2.341  0.00  0.00    +0.000 A 
ATOM     20  C   UNL     1       4.571   1.740   1.271  0.00  0.00    +0.001 A 
ATOM     21  C   UNL     1       5.139   0.844   0.390  0.00  0.00    +0.013 A 
ATOM     22  C   UNL     1       4.957  -0.527   0.580  0.00  0.00    +0.037 A 
ATOM     23  C   UNL     1       4.201  -0.981   1.662  0.00  0.00    +0.013 A 
ATOM     24  C   UNL     1       3.639  -0.073   2.536  0.00  0.00    +0.001 A 
ENDBRANCH   5  22
ENDBRANCH   1   9
BRANCH   3  25
ATOM     25  C   UNL     1       0.833  -7.092  -0.150  0.00  0.00    +0.140 C 
BRANCH  25  26
ATOM     26  C   UNL     1      -0.449  -7.436  -0.864  0.00  0.00    -0.017 A 
ATOM     27  C   UNL     1      -1.664  -7.067  -0.321  0.00  0.00    +0.006 A 
ATOM     28  C   UNL     1      -2.840  -7.383  -0.975  0.00  0.00    +0.000 A 
ATOM     29  C   UNL     1      -2.805  -8.070  -2.175  0.00  0.00    +0.001 A 
ATOM     30  C   UNL     1      -1.594  -8.443  -2.724  0.00  0.00    +0.015 A 
ATOM     31  C   UNL     1      -0.409  -8.121  -2.072  0.00  0.00    +0.017 A 
BRANCH  31  32
ATOM     32  S   UNL     1       1.139  -8.588  -2.772  0.00  0.00    -0.089 S 
BRANCH  32  33
ATOM     33  C   UNL     1       0.697  -9.502  -4.213  0.00  0.00    +0.018 A 
ATOM     34  C   UNL     1       0.841  -8.931  -5.471  0.00  0.00    +0.015 A 
ATOM     35  C   UNL     1       0.493  -9.650  -6.598  0.00  0.00    +0.001 A 
ATOM     36  C   UNL     1       0.003 -10.937  -6.474  0.00  0.00    +0.000 A 
ATOM     37  C   UNL     1      -0.142 -11.509  -5.223  0.00  0.00    +0.007 A 
ATOM     38  C   UNL     1       0.209 -10.797  -4.093  0.00  0.00    -0.008 A 
BRANCH  38  39
ATOM     39  C   UNL     1       0.057 -11.424  -2.730  0.00  0.00    +0.192 C 
BRANCH  39  40
ATOM     40  O   UNL     1      -0.459 -12.749  -2.870  0.00  0.00    -0.390 OA
ATOM     41  H   UNL     1      -0.582 -13.213  -2.031  0.00  0.00    +0.210 HD
ENDBRANCH  39  40
ENDBRANCH  38  39
ENDBRANCH  32  33
ENDBRANCH  31  32
ENDBRANCH  25  26
ENDBRANCH   3  25
TORSDOF 8
