REMARK  Name = ZINC22966012
REMARK  12 active torsions:
REMARK  status: ('A' for Active; 'I' for Inactive)
REMARK    1  A    between atoms: C_1  and  C_2
REMARK    2  A    between atoms: C_3  and  C_27
REMARK    3  A    between atoms: C_4  and  C_26
REMARK    4  A    between atoms: C_7  and  C_8
REMARK    5  A    between atoms: C_8  and  C_10
REMARK    6  A    between atoms: C_10  and  C_12
REMARK    7  A    between atoms: C_10  and  N_13
REMARK    8  A    between atoms: N_13  and  C_14
REMARK    9  A    between atoms: N_13  and  C_15
REMARK   10  A    between atoms: C_15  and  C_16
REMARK   11  A    between atoms: C_21  and  C_22
REMARK   12  A    between atoms: C_27  and  C_29
REMARK                            x       y       z     vdW  Elec       q    Type
REMARK                         _______ _______ _______ _____ _____    ______ ____
ROOT
ATOM      1  C   UNL     1      -1.011   7.519   2.848  0.00  0.00    +0.003 C 
ATOM      2  C   UNL     1       0.494   7.653   3.087  0.00  0.00    -0.005 C 
ENDROOT
BRANCH   1   3
ATOM      3  N   UNL     1      -1.730   8.460   3.717  0.00  0.00    +0.387 N 
ATOM      4  C   UNL     1      -3.184   8.295   3.583  0.00  0.00    -0.095 C 
ATOM      5  H   UNL     1      -1.459   8.234   4.758  0.00  0.00    -0.081 HD
BRANCH   3   6
ATOM      6  C   UNL     1      -1.330   9.846   3.437  0.00  0.00    -0.042 C 
BRANCH   6   7
ATOM      7  C   UNL     1      -1.894  10.756   4.498  0.00  0.00    -0.052 A 
ATOM      8  C   UNL     1      -3.036  11.492   4.242  0.00  0.00    +0.002 A 
ATOM      9  C   UNL     1      -3.555  12.322   5.216  0.00  0.00    +0.000 A 
ATOM     10  C   UNL     1      -2.927  12.425   6.444  0.00  0.00    +0.001 A 
ATOM     11  C   UNL     1      -1.783  11.694   6.698  0.00  0.00    +0.012 A 
ATOM     12  C   UNL     1      -1.266  10.859   5.725  0.00  0.00    +0.056 A 
BRANCH  12  13
ATOM     13  C   UNL     1      -0.018  10.061   6.001  0.00  0.00    +0.418 C 
ATOM     14  F   UNL     1       0.430  10.331   7.299  0.00  0.00    -0.166 F 
ATOM     15  F   UNL     1      -0.299   8.696   5.880  0.00  0.00    -0.166 F 
ATOM     16  F   UNL     1       0.976  10.416   5.082  0.00  0.00    -0.166 F 
ENDBRANCH  12  13
ENDBRANCH   6   7
ENDBRANCH   3   6
ENDBRANCH   1   3
BRANCH   1  17
ATOM     17  C   UNL     1      -1.447   6.111   3.163  0.00  0.00    +0.166 C 
ATOM     18  O   UNL     1      -2.056   5.879   4.188  0.00  0.00    -0.292 OA
BRANCH  17  25
ATOM     19  C   UNL     1      -2.236   3.136   3.591  0.00  0.00    +0.047 C 
ATOM     20  C   UNL     1      -1.484   3.734   2.430  0.00  0.00    -0.012 A 
ATOM     21  C   UNL     1      -0.989   3.043   1.301  0.00  0.00    +0.041 A 
ATOM     22  C   UNL     1      -0.361   3.979   0.492  0.00  0.00    +0.024 A 
ATOM     23  N   UNL     1      -0.464   5.183   1.071  0.00  0.00    -0.355 N 
ATOM     24  H   UNL     1      -0.033   6.068   0.580  0.00  0.00    +0.166 HD
ATOM     25  C   UNL     1      -1.147   5.059   2.265  0.00  0.00    +0.084 A 
ATOM     26  C   UNL     1       0.321   3.691  -0.821  0.00  0.00    +0.064 C 
BRANCH  21  27
ATOM     27  C   UNL     1      -1.110   1.605   1.037  0.00  0.00    +0.162 C 
ATOM     28  O   UNL     1      -0.243   0.844   1.412  0.00  0.00    -0.292 OA
ATOM     29  C   UNL     1      -2.312   1.073   0.300  0.00  0.00    +0.091 C 
ENDBRANCH  21  27
ENDBRANCH  17  25
ENDBRANCH   1  17
TORSDOF 7
