REMARK  Name = ZINC18021855
REMARK  4 active torsions:
REMARK  status: ('A' for Active; 'I' for Inactive)
REMARK    1  A    between atoms: C_1  and  C_2
REMARK    2  A    between atoms: C_2  and  C_4
REMARK    3  A    between atoms: C_2  and  N_12
REMARK    4  A    between atoms: C_13  and  C_15
REMARK                            x       y       z     vdW  Elec       q    Type
REMARK                         _______ _______ _______ _____ _____    ______ ____
ROOT
ATOM      1  N   UNL     1      -1.150   3.449  -0.557  0.00  0.00    -0.305 N 
ATOM      2  C   UNL     1      -2.196   4.090  -1.116  0.00  0.00    +0.246 C 
ATOM      3  O   UNL     1      -3.291   3.561  -1.140  0.00  0.00    -0.270 OA
ATOM      4  H   UNL     1      -0.160   3.927  -0.535  0.00  0.00    +0.150 HD
ENDROOT
BRANCH   2   5
ATOM      5  C   UNL     1      -2.013   5.433  -1.697  0.00  0.00    +0.053 A 
ATOM      6  C   UNL     1      -0.740   6.054  -1.671  0.00  0.00    +0.020 A 
ATOM      7  C   UNL     1      -0.600   7.292  -2.215  0.00  0.00    +0.071 A 
ATOM      8  C   UNL     1      -1.717   7.928  -2.788  0.00  0.00    +0.249 A 
ATOM      9  O   UNL     1      -1.596   9.039  -3.277  0.00  0.00    -0.268 OA
ATOM     10  N   UNL     1      -2.917   7.320  -2.801  0.00  0.00    -0.328 N 
ATOM     11  H   UNL     1      -3.786   7.827  -3.247  0.00  0.00    +0.168 HD
ATOM     12  C   UNL     1      -3.079   6.092  -2.275  0.00  0.00    +0.099 A 
ENDBRANCH   2   5
BRANCH   1  14
ATOM     13  C   UNL     1      -1.832   2.246   1.460  0.00  0.00    +0.033 C 
ATOM     14  C   UNL     1      -1.332   2.115   0.020  0.00  0.00    +0.102 C 
BRANCH  14  15
ATOM     15  C   UNL     1      -0.017   1.379   0.010  0.00  0.00    -0.009 A 
ATOM     16  C   UNL     1       1.171   2.087   0.002  0.00  0.00    +0.008 A 
ATOM     17  C   UNL     1       2.377   1.413  -0.013  0.00  0.00    +0.020 A 
ATOM     18  C   UNL     1       2.397   0.029  -0.021  0.00  0.00    +0.042 A 
ATOM     19  C   UNL     1       1.210  -0.679  -0.013  0.00  0.00    +0.040 A 
ATOM     20  C   UNL     1       0.002  -0.004   0.002  0.00  0.00    +0.047 A 
ATOM     21 CL   UNL     1      -1.489  -0.893   0.011  0.00  0.00    -0.083 Cl
ATOM     22 CL   UNL     1       3.913  -0.817  -0.039  0.00  0.00    -0.083 Cl
ENDBRANCH  14  15
ENDBRANCH   1  14
TORSDOF 3
