REMARK  Name = ZINC23517042
REMARK  7 active torsions:
REMARK  status: ('A' for Active; 'I' for Inactive)
REMARK    1  A    between atoms: C_7  and  C_11
REMARK    2  A    between atoms: C_14  and  S_23
REMARK    3  A    between atoms: N_15  and  C_16
REMARK    4  A    between atoms: C_16  and  C_17
REMARK    5  A    between atoms: S_23  and  C_24
REMARK    6  A    between atoms: C_24  and  C_25
REMARK    7  A    between atoms: C_25  and  N_26
REMARK                            x       y       z     vdW  Elec       q    Type
REMARK                         _______ _______ _______ _____ _____    ______ ____
ROOT
ATOM      1  C   UNL     1       4.342  -1.745  -0.052  0.00  0.00    +0.167 A 
ATOM      2  N   UNL     1       3.643  -2.853   0.042  0.00  0.00    -0.128 NA
ATOM      3  N   UNL     1       4.427  -3.871   0.001  0.00  0.00    -0.122 NA
ATOM      4  C   UNL     1       5.673  -3.477  -0.122  0.00  0.00    +0.192 A 
ATOM      5  N   UNL     1       5.663  -2.110  -0.166  0.00  0.00    -0.300 N 
ENDROOT
BRANCH   1  12
ATOM      6  C   UNL     1       1.242   0.460   2.668  0.00  0.00    +0.001 A 
ATOM      7  C   UNL     1       1.048   1.782   2.293  0.00  0.00    +0.002 A 
ATOM      8  C   UNL     1       1.732   2.316   1.223  0.00  0.00    +0.026 A 
ATOM      9  C   UNL     1       2.626   1.524   0.510  0.00  0.00    +0.047 A 
ATOM     10  C   UNL     1       2.818   0.186   0.894  0.00  0.00    +0.010 A 
ATOM     11  C   UNL     1       2.116  -0.335   1.980  0.00  0.00    +0.011 A 
ATOM     12  C   UNL     1       3.808  -0.368  -0.044  0.00  0.00    +0.044 A 
ATOM     13  C   UNL     1       4.136   0.634  -0.901  0.00  0.00    +0.095 A 
ATOM     14  N   UNL     1       3.438   1.762  -0.579  0.00  0.00    -0.360 N 
ATOM     15  H   UNL     1       3.449   2.755  -1.050  0.00  0.00    +0.165 HD
ENDBRANCH   1  12
BRANCH   5  16
ATOM     16  C   UNL     1       6.819  -1.220  -0.303  0.00  0.00    +0.157 C 
BRANCH  16  17
ATOM     17  C   UNL     1       7.436  -0.969   1.075  0.00  0.00    +0.138 C 
ATOM     18  C   UNL     1       8.693  -0.073   0.947  0.00  0.00    +0.035 C 
ATOM     19  C   UNL     1       8.749   0.560   2.363  0.00  0.00    +0.031 C 
ATOM     20  C   UNL     1       7.254   0.698   2.720  0.00  0.00    +0.160 C 
ATOM     21  O   UNL     1       6.526  -0.224   1.900  0.00  0.00    -0.375 OA
ENDBRANCH  16  17
ENDBRANCH   5  16
BRANCH   4  22
ATOM     22  S   UNL     1       7.093  -4.516  -0.219  0.00  0.00    -0.084 S 
BRANCH  22  23
ATOM     23  C   UNL     1       6.303  -6.140  -0.102  0.00  0.00    +0.097 C 
BRANCH  23  24
ATOM     24  C   UNL     1       7.371  -7.233  -0.166  0.00  0.00    +0.128 C 
BRANCH  24  25
ATOM     25  N   UNL     1       6.732  -8.548  -0.072  0.00  0.00    -0.233 N 
ATOM     26  C   UNL     1       6.503  -9.202   1.081  0.00  0.00    +0.254 C 
ATOM     27  O   UNL     1       6.790  -8.803   2.192  0.00  0.00    -0.270 OA
ATOM     28  C   UNL     1       5.841 -10.487   0.771  0.00  0.00    +0.049 A 
ATOM     29  C   UNL     1       5.377 -11.546   1.534  0.00  0.00    +0.014 A 
ATOM     30  C   UNL     1       4.793 -12.637   0.912  0.00  0.00    +0.001 A 
ATOM     31  C   UNL     1       4.670 -12.677  -0.464  0.00  0.00    +0.001 A 
ATOM     32  C   UNL     1       5.130 -11.625  -1.241  0.00  0.00    +0.014 A 
ATOM     33  C   UNL     1       5.716 -10.527  -0.632  0.00  0.00    +0.049 A 
ATOM     34  C   UNL     1       6.301  -9.262  -1.127  0.00  0.00    +0.254 C 
ATOM     35  O   UNL     1       6.379  -8.925  -2.291  0.00  0.00    -0.270 OA
ENDBRANCH  24  25
ENDBRANCH  23  24
ENDBRANCH  22  23
ENDBRANCH   4  22
TORSDOF 7
