REMARK  Name = ZINC64691406
REMARK  7 active torsions:
REMARK  status: ('A' for Active; 'I' for Inactive)
REMARK    1  A    between atoms: C_1  and  C_2
REMARK    2  A    between atoms: C_7  and  N_8
REMARK    3  A    between atoms: C_9  and  C_11
REMARK    4  A    between atoms: C_11  and  S_12
REMARK    5  A    between atoms: S_12  and  C_13
REMARK    6  A    between atoms: C_16  and  C_24
REMARK    7  A    between atoms: N_17  and  C_18
REMARK                            x       y       z     vdW  Elec       q    Type
REMARK                         _______ _______ _______ _____ _____    ______ ____
ROOT
ATOM      1  C   UNL     1      -0.384  -0.118   7.687  0.00  0.00    +0.197 A 
ATOM      2  N   UNL     1      -0.409   1.206   7.710  0.00  0.00    -0.122 NA
ATOM      3  N   UNL     1      -0.507   1.626   8.921  0.00  0.00    -0.128 NA
ATOM      4  C   UNL     1      -0.551   0.594   9.752  0.00  0.00    +0.168 A 
ATOM      5  N   UNL     1      -0.479  -0.552   8.976  0.00  0.00    -0.270 N 
ENDROOT
BRANCH   4   6
ATOM      6  C   UNL     1      -0.656   0.651  11.150  0.00  0.00    +0.025 C 
ATOM      7  C   UNL     1      -0.742   1.795  11.944  0.00  0.00    +0.006 A 
ATOM      8  C   UNL     1      -0.750   3.172  11.633  0.00  0.00    +0.010 A 
ATOM      9  C   UNL     1      -0.846   4.087  12.632  0.00  0.00    +0.001 A 
ATOM     10  C   UNL     1      -0.937   3.701  13.971  0.00  0.00    +0.002 A 
ATOM     11  C   UNL     1      -0.934   2.397  14.341  0.00  0.00    +0.026 A 
ATOM     12  C   UNL     1      -0.837   1.383  13.353  0.00  0.00    +0.043 A 
ATOM     13  N   UNL     1      -0.814   0.069  13.452  0.00  0.00    -0.380 N 
ATOM     14  C   UNL     1      -0.708  -0.516  12.112  0.00  0.00    +0.152 C 
ATOM     15  H   UNL     1      -0.864  -0.433  14.281  0.00  0.00    +0.160 HD
ENDBRANCH   4   6
BRANCH   5  16
ATOM     16  C   UNL     1      -0.496  -1.879   9.423  0.00  0.00    +0.050 A 
ATOM     17  C   UNL     1      -1.632  -2.392  10.035  0.00  0.00    +0.026 A 
ATOM     18  C   UNL     1      -1.647  -3.701  10.475  0.00  0.00    +0.002 A 
ATOM     19  C   UNL     1      -0.531  -4.501  10.306  0.00  0.00    +0.000 A 
ATOM     20  C   UNL     1       0.602  -3.993   9.698  0.00  0.00    +0.002 A 
ATOM     21  C   UNL     1       0.621  -2.686   9.251  0.00  0.00    +0.026 A 
ENDBRANCH   5  16
BRANCH   1  22
ATOM     22  S   UNL     1      -0.259  -1.133   6.252  0.00  0.00    -0.076 S 
BRANCH  22  23
ATOM     23  C   UNL     1      -0.168   0.052   4.882  0.00  0.00    +0.173 C 
BRANCH  23  25
ATOM     24  N   UNL     1       0.025  -0.015   2.417  0.00  0.00    -0.285 N 
ATOM     25  C   UNL     1      -0.056  -0.694   3.578  0.00  0.00    +0.227 C 
ATOM     26  O   UNL     1      -0.040  -1.907   3.573  0.00  0.00    -0.275 OA
ATOM     27  H   UNL     1       0.078   0.954   2.425  0.00  0.00    +0.155 HD
BRANCH  24  34
ATOM     28  C   UNL     1      -1.264   1.184   0.181  0.00  0.00    +0.045 C 
ATOM     29  C   UNL     1      -0.584  -0.158   0.084  0.00  0.00    -0.029 A 
ATOM     30  C   UNL     1      -0.568  -0.840  -1.117  0.00  0.00    +0.005 A 
ATOM     31  C   UNL     1       0.055  -2.071  -1.206  0.00  0.00    +0.000 A 
ATOM     32  C   UNL     1       0.666  -2.622  -0.095  0.00  0.00    +0.002 A 
ATOM     33  C   UNL     1       0.655  -1.945   1.108  0.00  0.00    +0.023 A 
ATOM     34  C   UNL     1       0.034  -0.706   1.201  0.00  0.00    +0.036 A 
ENDBRANCH  24  34
ENDBRANCH  23  25
ENDBRANCH  22  23
ENDBRANCH   1  22
TORSDOF 6
