REMARK  Name = ZINC67406597
REMARK  5 active torsions:
REMARK  status: ('A' for Active; 'I' for Inactive)
REMARK    1  A    between atoms: C_1  and  C_2
REMARK    2  A    between atoms: C_2  and  C_3
REMARK    3  A    between atoms: C_3  and  C_5
REMARK    4  A    between atoms: C_3  and  N_10
REMARK    5  A    between atoms: C_17  and  C_20
REMARK                            x       y       z     vdW  Elec       q    Type
REMARK                         _______ _______ _______ _____ _____    ______ ____
ROOT
ATOM      1  N   UNL     1      -0.008  -0.140   2.444  0.00  0.00    -0.292 N 
ATOM      2  C   UNL     1       0.164   1.077   2.997  0.00  0.00    +0.303 C 
ATOM      3  O   UNL     1       1.007   1.832   2.554  0.00  0.00    -0.253 OA
ATOM      4  N   UNL     1      -0.598   1.456   4.042  0.00  0.00    -0.281 N 
ATOM      5  C   UNL     1      -1.544   0.519   4.669  0.00  0.00    +0.137 C 
ATOM      6  C   UNL     1      -2.911   1.205   4.767  0.00  0.00    +0.179 C 
ATOM      7  O   UNL     1      -2.756   2.474   5.407  0.00  0.00    -0.369 OA
ATOM      8  C   UNL     1      -1.926   3.393   4.691  0.00  0.00    +0.166 C 
ATOM      9  C   UNL     1      -0.505   2.817   4.593  0.00  0.00    +0.145 C 
ATOM     10  H   UNL     1      -0.626  -0.772   2.845  0.00  0.00    +0.151 HD
ENDROOT
BRANCH   8  11
ATOM     11  C   UNL     1      -1.886   4.710   5.423  0.00  0.00    -0.015 A 
ATOM     12  C   UNL     1      -1.806   4.731   6.803  0.00  0.00    +0.006 A 
ATOM     13  C   UNL     1      -1.769   5.938   7.476  0.00  0.00    +0.003 A 
ATOM     14  C   UNL     1      -1.812   7.125   6.769  0.00  0.00    +0.038 A 
ATOM     15  C   UNL     1      -1.892   7.105   5.387  0.00  0.00    +0.124 A 
ATOM     16  C   UNL     1      -1.923   5.895   4.714  0.00  0.00    +0.044 A 
ATOM     17  F   UNL     1      -1.935   8.265   4.695  0.00  0.00    -0.205 F 
ENDBRANCH   8  11
BRANCH   1  18
ATOM     18  C   UNL     1       0.737  -0.508   1.237  0.00  0.00    +0.111 C 
BRANCH  18  19
ATOM     19  C   UNL     1       0.868  -2.008   1.166  0.00  0.00    +0.010 A 
ATOM     20  C   UNL     1       1.934  -2.754   0.787  0.00  0.00    +0.013 A 
ATOM     21  C   UNL     1       1.826  -4.132   0.801  0.00  0.00    +0.008 A 
ATOM     22  C   UNL     1       0.657  -4.696   1.192  0.00  0.00    +0.045 A 
ATOM     23  S   UNL     1      -0.338  -3.262   1.566  0.00  0.00    -0.100 S 
ENDBRANCH  18  19
BRANCH  18  25
ATOM     24  C   UNL     1      -0.035   1.528   0.012  0.00  0.00    +0.006 C 
ATOM     25  C   UNL     1      -0.011  -0.002   0.002  0.00  0.00    +0.024 C 
ENDBRANCH  18  25
ENDBRANCH   1  18
TORSDOF 4
