REMARK  Name = ZINC20132877
REMARK  6 active torsions:
REMARK  status: ('A' for Active; 'I' for Inactive)
REMARK    1  A    between atoms: C_1  and  C_2
REMARK    2  A    between atoms: C_6  and  C_8
REMARK    3  A    between atoms: C_8  and  N_9
REMARK    4  A    between atoms: C_19  and  N_20
REMARK    5  A    between atoms: N_20  and  C_21
REMARK    6  A    between atoms: C_21  and  C_22
REMARK                            x       y       z     vdW  Elec       q    Type
REMARK                         _______ _______ _______ _____ _____    ______ ____
ROOT
ATOM      1  N   UNL     1       1.108  -2.438  -1.452  0.00  0.00    -0.198 N 
ATOM      2  C   UNL     1      -0.013  -2.857  -2.167  0.00  0.00    +0.062 A 
ATOM      3  C   UNL     1      -1.146  -3.243  -1.454  0.00  0.00    +0.025 A 
ATOM      4  C   UNL     1      -2.276  -3.666  -2.120  0.00  0.00    +0.002 A 
ATOM      5  C   UNL     1      -2.292  -3.711  -3.505  0.00  0.00    +0.001 A 
ATOM      6  C   UNL     1      -1.179  -3.324  -4.230  0.00  0.00    +0.013 A 
ATOM      7  C   UNL     1      -0.021  -2.894  -3.567  0.00  0.00    +0.046 A 
ATOM      8  C   UNL     1       1.143  -2.502  -4.384  0.00  0.00    +0.216 C 
ATOM      9  O   UNL     1       0.986  -2.259  -5.568  0.00  0.00    -0.285 OA
ATOM     10  C   UNL     1       2.439  -2.402  -3.821  0.00  0.00    +0.169 C 
ATOM     11  C   UNL     1       3.505  -2.053  -4.574  0.00  0.00    +0.100 C 
ATOM     12  S   UNL     1       2.610  -2.754  -2.094  0.00  0.00    +0.080 S 
ATOM     13  O   UNL     1       3.503  -1.787  -1.559  0.00  0.00    -0.150 OA
ATOM     14  O   UNL     1       2.828  -4.153  -1.974  0.00  0.00    -0.150 OA
ENDROOT
BRANCH  11  15
ATOM     15  N   UNL     1       3.325  -1.649  -5.866  0.00  0.00    -0.344 N 
ATOM     16  H   UNL     1       2.308  -1.523  -6.267  0.00  0.00    +0.146 HD
BRANCH  15  17
ATOM     17  C   UNL     1       4.487  -1.383  -6.719  0.00  0.00    +0.136 C 
BRANCH  17  18
ATOM     18  C   UNL     1       4.019  -0.955  -8.086  0.00  0.00    -0.027 A 
ATOM     19  C   UNL     1       3.809  -1.903  -9.071  0.00  0.00    +0.009 A 
ATOM     20  C   UNL     1       3.374  -1.516 -10.325  0.00  0.00    +0.050 A 
ATOM     21  C   UNL     1       3.158  -0.175 -10.601  0.00  0.00    +0.166 A 
ATOM     22  C   UNL     1       3.375   0.779  -9.611  0.00  0.00    +0.167 A 
ATOM     23  C   UNL     1       3.805   0.384  -8.354  0.00  0.00    +0.054 A 
ATOM     24  O   UNL     1       3.095   2.013 -10.125  0.00  0.00    -0.453 OA
ATOM     25  C   UNL     1       3.099   1.843 -11.555  0.00  0.00    +0.466 C 
ATOM     26  O   UNL     1       2.743   0.459 -11.736  0.00  0.00    -0.453 OA
ENDBRANCH  17  18
ENDBRANCH  15  17
ENDBRANCH  11  15
BRANCH   1  27
ATOM     27  C   UNL     1       0.968  -1.745  -0.169  0.00  0.00    +0.166 C 
BRANCH  27  33
ATOM     28  C   UNL     1       2.873   2.841  -0.790  0.00  0.00    +0.044 C 
ATOM     29  C   UNL     1       1.681   1.923  -0.711  0.00  0.00    -0.050 A 
ATOM     30  C   UNL     1       0.405   2.433  -0.861  0.00  0.00    +0.003 A 
ATOM     31  C   UNL     1      -0.689   1.591  -0.789  0.00  0.00    +0.001 A 
ATOM     32  C   UNL     1      -0.507   0.238  -0.566  0.00  0.00    +0.005 A 
ATOM     33  C   UNL     1       0.769  -0.271  -0.414  0.00  0.00    -0.028 A 
ATOM     34  C   UNL     1       1.863   0.571  -0.486  0.00  0.00    +0.008 A 
ENDBRANCH  27  33
ENDBRANCH   1  27
TORSDOF 5
