REMARK  Name = ZINC36052034
REMARK  12 active torsions:
REMARK  status: ('A' for Active; 'I' for Inactive)
REMARK    1  A    between atoms: C_1  and  C_2
REMARK    2  A    between atoms: C_5  and  C_8
REMARK    3  A    between atoms: N_10  and  C_11
REMARK    4  A    between atoms: N_10  and  C_16
REMARK    5  A    between atoms: C_11  and  C_12
REMARK    6  A    between atoms: C_12  and  N_13
REMARK    7  A    between atoms: N_13  and  C_14
REMARK    8  A    between atoms: N_13  and  C_15
REMARK    9  A    between atoms: C_16  and  C_17
REMARK   10  A    between atoms: C_22  and  C_32
REMARK   11  A    between atoms: N_24  and  C_25
REMARK   12  A    between atoms: C_29  and  C_31
REMARK                            x       y       z     vdW  Elec       q    Type
REMARK                         _______ _______ _______ _____ _____    ______ ____
ROOT
ATOM      1  C   UNL     1       1.692  -6.632   0.969  0.00  0.00    +0.237 C 
ATOM      2  O   UNL     1       2.467  -5.702   0.900  0.00  0.00    -0.274 OA
ATOM      3  N   UNL     1       2.153  -7.898   0.920  0.00  0.00    -0.254 N 
ATOM      4  C   UNL     1       3.515  -8.136   0.790  0.00  0.00    +0.207 A 
ATOM      5  N   UNL     1       4.447  -7.219   0.711  0.00  0.00    -0.214 NA
ATOM      6  C   UNL     1       5.652  -7.816   0.593  0.00  0.00    +0.091 A 
ATOM      7  C   UNL     1       5.457  -9.159   0.599  0.00  0.00    +0.122 A 
ATOM      8  N   UNL     1       4.104  -9.364   0.728  0.00  0.00    -0.287 N 
ATOM      9  H   UNL     1       1.534  -8.642   0.975  0.00  0.00    +0.158 HD
ENDROOT
BRANCH   8  10
ATOM     10  C   UNL     1       3.452 -10.604   0.783  0.00  0.00    +0.049 A 
ATOM     11  C   UNL     1       2.531 -10.861   1.790  0.00  0.00    +0.026 A 
ATOM     12  C   UNL     1       1.890 -12.083   1.841  0.00  0.00    +0.002 A 
ATOM     13  C   UNL     1       2.166 -13.051   0.892  0.00  0.00    +0.003 A 
ATOM     14  C   UNL     1       3.083 -12.798  -0.111  0.00  0.00    -0.048 A 
ATOM     15  C   UNL     1       3.722 -11.575  -0.172  0.00  0.00    +0.029 A 
ATOM     16  C   UNL     1       3.381 -13.855  -1.142  0.00  0.00    +0.044 C 
ENDBRANCH   8  10
BRANCH   6  17
ATOM     17  C   UNL     1       6.959  -7.126   0.477  0.00  0.00    +0.002 A 
ATOM     18  C   UNL     1       8.133  -7.867   0.354  0.00  0.00    +0.011 A 
ATOM     19  C   UNL     1       9.347  -7.220   0.246  0.00  0.00    +0.020 A 
ATOM     20  C   UNL     1       9.400  -5.837   0.261  0.00  0.00    +0.041 A 
ATOM     21  C   UNL     1       8.237  -5.096   0.383  0.00  0.00    +0.020 A 
ATOM     22  C   UNL     1       7.018  -5.733   0.485  0.00  0.00    +0.011 A 
ATOM     23 CL   UNL     1      10.931  -5.029   0.125  0.00  0.00    -0.084 Cl
ENDBRANCH   6  17
BRANCH   1  24
ATOM     24  C   UNL     1       0.214  -6.373   1.111  0.00  0.00    +0.204 C 
BRANCH  24  27
ATOM     25  C   UNL     1      -0.333  -4.273   0.003  0.00  0.00    +0.247 C 
ATOM     26  O   UNL     1      -0.472  -3.066   0.016  0.00  0.00    -0.270 OA
ATOM     27  N   UNL     1      -0.028  -4.929   1.140  0.00  0.00    -0.290 N 
BRANCH  25  32
ATOM     28  C   UNL     1      -0.977  -7.191  -4.915  0.00  0.00    +0.044 C 
ATOM     29  C   UNL     1      -0.808  -6.427  -3.627  0.00  0.00    -0.050 A 
ATOM     30  C   UNL     1       0.318  -6.628  -2.850  0.00  0.00    +0.004 A 
ATOM     31  C   UNL     1       0.479  -5.931  -1.670  0.00  0.00    +0.013 A 
ATOM     32  C   UNL     1      -0.498  -5.023  -1.261  0.00  0.00    +0.037 A 
ATOM     33  C   UNL     1      -1.633  -4.825  -2.050  0.00  0.00    +0.013 A 
ATOM     34  C   UNL     1      -1.778  -5.523  -3.230  0.00  0.00    +0.004 A 
ENDBRANCH  25  32
BRANCH  27  35
ATOM     35  C   UNL     1       0.062  -4.197   2.406  0.00  0.00    +0.090 C 
BRANCH  35  36
ATOM     36  C   UNL     1      -1.333  -4.071   3.022  0.00  0.00    -0.060 C 
BRANCH  36  37
ATOM     37  N   UNL     1      -1.244  -3.337   4.291  0.00  0.00    +0.377 N 
ATOM     38  C   UNL     1      -2.594  -3.111   4.823  0.00  0.00    -0.097 C 
ATOM     39  C   UNL     1      -0.463  -4.122   5.257  0.00  0.00    -0.097 C 
ATOM     40  H   UNL     1      -0.791  -2.449   4.135  0.00  0.00    -0.083 HD
ENDBRANCH  36  37
ENDBRANCH  35  36
ENDBRANCH  27  35
ENDBRANCH  24  27
ENDBRANCH   1  24
TORSDOF 8
