REMARK  Name = ZINC17202292
REMARK  8 active torsions:
REMARK  status: ('A' for Active; 'I' for Inactive)
REMARK    1  A    between atoms: C_4  and  C_7
REMARK    2  A    between atoms: C_12  and  O_13
REMARK    3  A    between atoms: O_13  and  C_14
REMARK    4  A    between atoms: C_14  and  C_15
REMARK    5  A    between atoms: N_17  and  N_18
REMARK    6  A    between atoms: C_19  and  C_21
REMARK    7  A    between atoms: C_21  and  C_22
REMARK    8  A    between atoms: C_31  and  O_34
REMARK                            x       y       z     vdW  Elec       q    Type
REMARK                         _______ _______ _______ _____ _____    ______ ____
ROOT
ATOM      1  C   UNL     1      -2.390   4.220   0.036  0.00  0.00    +0.267 C 
ATOM      2  O   UNL     1      -3.432   3.599   0.038  0.00  0.00    -0.271 OA
ATOM      3  N   UNL     1      -1.214   3.562   0.027  0.00  0.00    -0.232 N 
ATOM      4  H   UNL     1      -0.269   4.125   0.026  0.00  0.00    +0.173 HD
ENDROOT
BRANCH   3   5
ATOM      5  N   UNL     1      -1.195   2.161   0.019  0.00  0.00    -0.234 N 
ATOM      6  C   UNL     1      -0.018   1.503   0.010  0.00  0.00    +0.230 C 
ATOM      7  O   UNL     1       1.024   2.123   0.004  0.00  0.00    -0.274 OA
ATOM      8  H   UNL     1      -2.140   1.598   0.021  0.00  0.00    +0.173 HD
BRANCH   6   9
ATOM      9  C   UNL     1       0.002  -0.004   0.002  0.00  0.00    +0.104 C 
BRANCH   9  10
ATOM     10  C   UNL     1       1.451  -0.494  -0.015  0.00  0.00    -0.018 C 
ATOM     11  C   UNL     1       2.154   0.032  -1.268  0.00  0.00    +0.011 C 
ATOM     12  C   UNL     1       3.603  -0.458  -1.284  0.00  0.00    -0.007 C 
ATOM     13  C   UNL     1       4.329   0.055  -0.039  0.00  0.00    +0.007 C 
ATOM     14  C   UNL     1       3.627  -0.472   1.214  0.00  0.00    -0.007 C 
ATOM     15  C   UNL     1       2.178   0.019   1.231  0.00  0.00    +0.011 C 
ATOM     16  C   UNL     1       3.647  -2.002   1.206  0.00  0.00    +0.038 C 
ATOM     17  C   UNL     1       2.921  -2.514  -0.039  0.00  0.00    +0.067 C 
ATOM     18  C   UNL     1       3.624  -1.988  -1.292  0.00  0.00    +0.038 C 
ATOM     19  C   UNL     1       1.472  -2.024  -0.023  0.00  0.00    +0.042 C 
BRANCH  17  20
ATOM     20  O   UNL     1       2.941  -3.943  -0.047  0.00  0.00    -0.389 OA
ATOM     21  H   UNL     1       2.464  -4.495  -0.871  0.00  0.00    +0.210 HD
ENDBRANCH  17  20
ENDBRANCH   9  10
ENDBRANCH   6   9
ENDBRANCH   3   5
BRANCH   1  22
ATOM     22  C   UNL     1      -2.410   5.726   0.045  0.00  0.00    +0.326 C 
BRANCH  22  23
ATOM     23  O   UNL     1      -3.764   6.184   0.053  0.00  0.00    -0.482 OA
BRANCH  23  29
ATOM     24  C   UNL     1      -5.258   8.048   0.065  0.00  0.00    +0.024 A 
ATOM     25  C   UNL     1      -5.449   9.428   0.078  0.00  0.00    +0.012 A 
ATOM     26  C   UNL     1      -4.359  10.274   0.077  0.00  0.00    +0.001 A 
ATOM     27  C   UNL     1      -3.075   9.757   0.069  0.00  0.00    +0.004 A 
ATOM     28  C   UNL     1      -2.874   8.390   0.061  0.00  0.00    +0.046 A 
ATOM     29  C   UNL     1      -3.960   7.529   0.062  0.00  0.00    +0.129 A 
BRANCH  24  33
ATOM     30  C   UNL     1      -8.607   5.428   0.050  0.00  0.00    +0.000 A 
ATOM     31  C   UNL     1      -8.539   6.455   0.975  0.00  0.00    +0.001 A 
ATOM     32  C   UNL     1      -7.454   7.308   0.984  0.00  0.00    +0.008 A 
ATOM     33  C   UNL     1      -6.426   7.134   0.060  0.00  0.00    -0.014 A 
ATOM     34  C   UNL     1      -6.503   6.102  -0.873  0.00  0.00    +0.008 A 
ATOM     35  C   UNL     1      -7.589   5.250  -0.869  0.00  0.00    +0.001 A 
ENDBRANCH  24  33
ENDBRANCH  23  29
ENDBRANCH  22  23
ENDBRANCH   1  22
TORSDOF 8
