REMARK  Name = ZINC18386048
REMARK  5 active torsions:
REMARK  status: ('A' for Active; 'I' for Inactive)
REMARK    1  A    between atoms: C_1  and  C_2
REMARK    2  A    between atoms: C_2  and  C_21
REMARK    3  A    between atoms: N_5  and  C_9
REMARK    4  A    between atoms: C_9  and  C_10
REMARK    5  A    between atoms: C_13  and  C_15
REMARK                            x       y       z     vdW  Elec       q    Type
REMARK                         _______ _______ _______ _____ _____    ______ ____
ROOT
ATOM      1  C   UNL     1      -0.802   3.216   4.579  0.00  0.00    +0.047 C 
ATOM      2  C   UNL     1      -1.853   3.379   3.479  0.00  0.00    +0.135 C 
ATOM      3  C   UNL     1      -1.191   3.500   2.122  0.00  0.00    +0.251 C 
ATOM      4  O   UNL     1      -0.422   4.363   1.756  0.00  0.00    -0.272 OA
ATOM      5  N   UNL     1      -1.635   2.449   1.405  0.00  0.00    -0.215 N 
ATOM      6  C   UNL     1      -2.481   1.691   2.112  0.00  0.00    +0.310 C 
ATOM      7  O   UNL     1      -3.016   0.690   1.678  0.00  0.00    -0.252 OA
ATOM      8  N   UNL     1      -2.671   2.160   3.359  0.00  0.00    -0.281 N 
ATOM      9  H   UNL     1      -3.238   1.772   4.043  0.00  0.00    +0.152 HD
ENDROOT
BRANCH   2  10
ATOM     10  C   UNL     1      -2.723   4.579   3.753  0.00  0.00    -0.014 A 
ATOM     11  C   UNL     1      -3.847   4.451   4.549  0.00  0.00    +0.008 A 
ATOM     12  C   UNL     1      -4.645   5.550   4.801  0.00  0.00    +0.022 A 
ATOM     13  C   UNL     1      -4.320   6.780   4.257  0.00  0.00    +0.059 A 
ATOM     14  C   UNL     1      -3.195   6.909   3.461  0.00  0.00    +0.060 A 
ATOM     15  C   UNL     1      -2.394   5.808   3.214  0.00  0.00    +0.027 A 
ATOM     16 CL   UNL     1      -2.786   8.452   2.778  0.00  0.00    -0.082 Cl
ATOM     17 CL   UNL     1      -5.323   8.162   4.573  0.00  0.00    -0.082 Cl
ENDBRANCH   2  10
BRANCH   5  18
ATOM     18  C   UNL     1      -1.244   2.173   0.020  0.00  0.00    +0.215 C 
BRANCH  18  19
ATOM     19  C   UNL     1      -0.016   1.300   0.009  0.00  0.00    +0.235 A 
ATOM     20  N   UNL     1       0.002  -0.004   0.002  0.00  0.00    -0.110 NA
ATOM     21  N   UNL     1       1.220  -0.417  -0.012  0.00  0.00    -0.107 NA
ATOM     22  C   UNL     1       2.028   0.617  -0.014  0.00  0.00    +0.248 A 
ATOM     23  O   UNL     1       1.260   1.724  -0.001  0.00  0.00    -0.419 OA
BRANCH  22  24
ATOM     24  C   UNL     1       3.506   0.575  -0.028  0.00  0.00    +0.038 A 
ATOM     25  C   UNL     1       4.241   1.762  -0.035  0.00  0.00    +0.013 A 
ATOM     26  C   UNL     1       5.619   1.716  -0.043  0.00  0.00    +0.001 A 
ATOM     27  C   UNL     1       6.274   0.497  -0.054  0.00  0.00    +0.000 A 
ATOM     28  C   UNL     1       5.552  -0.683  -0.053  0.00  0.00    +0.001 A 
ATOM     29  C   UNL     1       4.173  -0.651  -0.040  0.00  0.00    +0.013 A 
ENDBRANCH  22  24
ENDBRANCH  18  19
ENDBRANCH   5  18
TORSDOF 4
