REMARK  Name = ZINC12348924
REMARK  9 active torsions:
REMARK  status: ('A' for Active; 'I' for Inactive)
REMARK    1  A    between atoms: C_1  and  O_2
REMARK    2  A    between atoms: O_2  and  C_3
REMARK    3  A    between atoms: C_3  and  C_5
REMARK    4  A    between atoms: C_5  and  N_6
REMARK    5  A    between atoms: C_10  and  S_26
REMARK    6  A    between atoms: N_15  and  C_16
REMARK    7  A    between atoms: C_16  and  C_18
REMARK    8  A    between atoms: C_18  and  C_19
REMARK    9  A    between atoms: S_26  and  N_29
REMARK                            x       y       z     vdW  Elec       q    Type
REMARK                         _______ _______ _______ _____ _____    ______ ____
ROOT
ATOM      1  N   UNL     1       0.123  -0.284   0.155  0.00  0.00    -0.310 N 
ATOM      2  C   UNL     1       0.374   0.985   0.642  0.00  0.00    +0.058 A 
ATOM      3  C   UNL     1      -0.551   1.960   1.050  0.00  0.00    +0.029 A 
ATOM      4  C   UNL     1      -0.125   3.184   1.507  0.00  0.00    +0.030 A 
ATOM      5  C   UNL     1       1.223   3.490   1.591  0.00  0.00    +0.106 A 
ATOM      6  C   UNL     1       2.156   2.546   1.200  0.00  0.00    +0.045 A 
ATOM      7  C   UNL     1       1.731   1.324   0.737  0.00  0.00    +0.041 A 
ATOM      8  S   UNL     1       2.556  -0.134   0.150  0.00  0.00    -0.052 S 
ATOM      9  C   UNL     1       1.156  -1.099  -0.187  0.00  0.00    +0.167 A 
ATOM     10  N   UNL     1       1.104  -2.340  -0.667  0.00  0.00    -0.156 NA
ENDROOT
BRANCH   5  11
ATOM     11  S   UNL     1       1.744   5.064   2.188  0.00  0.00    +0.056 S 
ATOM     12  O   UNL     1       0.688   5.561   2.999  0.00  0.00    -0.153 OA
ATOM     13  O   UNL     1       3.066   4.895   2.679  0.00  0.00    -0.153 OA
BRANCH  11  14
ATOM     14  N   UNL     1       1.850   6.074   0.880  0.00  0.00    -0.204 NA
ATOM     15  H   UNL     1       1.691   7.025   0.987  0.00  0.00    +0.144 HD
ATOM     16  H   UNL     1       2.072   5.714   0.007  0.00  0.00    +0.144 HD
ENDBRANCH  11  14
ENDBRANCH   5  11
BRANCH  10  17
ATOM     17  C   UNL     1       2.228  -2.991  -0.949  0.00  0.00    +0.243 C 
ATOM     18  O   UNL     1       3.303  -2.453  -0.768  0.00  0.00    -0.273 OA
BRANCH  17  19
ATOM     19  C   UNL     1       2.169  -4.396  -1.491  0.00  0.00    +0.133 C 
BRANCH  19  20
ATOM     20  C   UNL     1       3.569  -4.903  -1.724  0.00  0.00    -0.038 A 
ATOM     21  C   UNL     1       4.179  -4.708  -2.950  0.00  0.00    +0.005 A 
ATOM     22  C   UNL     1       5.465  -5.168  -3.162  0.00  0.00    +0.020 A 
ATOM     23  C   UNL     1       6.137  -5.833  -2.153  0.00  0.00    +0.041 A 
ATOM     24  C   UNL     1       5.524  -6.033  -0.929  0.00  0.00    +0.020 A 
ATOM     25  C   UNL     1       4.240  -5.568  -0.715  0.00  0.00    +0.005 A 
ATOM     26 CL   UNL     1       7.750  -6.417  -2.421  0.00  0.00    -0.084 Cl
ENDBRANCH  19  20
ENDBRANCH  17  19
ENDBRANCH  10  17
BRANCH   1  27
ATOM     27  C   UNL     1      -1.257  -0.752   0.010  0.00  0.00    +0.244 C 
BRANCH  27  28
ATOM     28  C   UNL     1      -1.395  -1.518  -1.281  0.00  0.00    +0.327 C 
ATOM     29  O   UNL     1      -0.490  -1.519  -2.082  0.00  0.00    -0.249 OA
BRANCH  28  31
ATOM     30  C   UNL     1      -2.584  -2.914  -2.802  0.00  0.00    +0.280 C 
ATOM     31  O   UNL     1      -2.522  -2.200  -1.540  0.00  0.00    -0.467 OA
ENDBRANCH  28  31
ENDBRANCH  27  28
ENDBRANCH   1  27
TORSDOF 8
