REMARK  Name = ZINC22124663
REMARK  2 active torsions:
REMARK  status: ('A' for Active; 'I' for Inactive)
REMARK    1  A    between atoms: C_6  and  N_7
REMARK    2  A    between atoms: C_9  and  C_12
REMARK                            x       y       z     vdW  Elec       q    Type
REMARK                         _______ _______ _______ _____ _____    ______ ____
ROOT
ATOM      1  C   UNL     1      -1.242   3.147   0.038  0.00  0.00    +0.025 A 
ATOM      2  C   UNL     1      -0.065   3.865   0.039  0.00  0.00    +0.029 A 
ATOM      3  C   UNL     1       1.153   3.200   0.016  0.00  0.00    +0.067 A 
ATOM      4  C   UNL     1       1.187   1.794  -0.008  0.00  0.00    +0.091 A 
ATOM      5  C   UNL     1      -0.013   1.076  -0.008  0.00  0.00    +0.052 A 
ATOM      6  C   UNL     1      -1.217   1.754   0.009  0.00  0.00    +0.027 A 
ATOM      7  N   UNL     1       2.491   1.426  -0.027  0.00  0.00    -0.228 NA
ATOM      8  C   UNL     1       3.251   2.494  -0.016  0.00  0.00    +0.141 A 
ATOM      9  N   UNL     1       2.471   3.618   0.010  0.00  0.00    -0.338 N 
ATOM     10  H   UNL     1       2.708   4.692   0.026  0.00  0.00    +0.167 HD
ENDROOT
BRANCH   8  11
ATOM     11  C   UNL     1       4.730   2.485  -0.030  0.00  0.00    +0.037 A 
ATOM     12  C   UNL     1       5.437   3.683  -0.136  0.00  0.00    +0.028 A 
ATOM     13  C   UNL     1       6.817   3.668  -0.148  0.00  0.00    +0.019 A 
ATOM     14  C   UNL     1       7.500   2.467  -0.056  0.00  0.00    +0.017 A 
ATOM     15  C   UNL     1       6.806   1.276   0.049  0.00  0.00    +0.022 A 
ATOM     16  C   UNL     1       5.425   1.278   0.069  0.00  0.00    +0.052 A 
ATOM     17 CL   UNL     1       4.555  -0.218   0.208  0.00  0.00    -0.083 Cl
ATOM     18 BR   UNL     1       7.777   5.291  -0.291  0.00  0.00    -0.050 Br
ENDBRANCH   8  11
BRANCH   6  19
ATOM     19  N   UNL     1      -2.419   1.037   0.002  0.00  0.00    -0.358 N 
ATOM     20  H   UNL     1      -2.403  -0.063  -0.021  0.00  0.00    +0.142 HD
ATOM     21  H   UNL     1      -3.379   1.573   0.020  0.00  0.00    +0.142 HD
ENDBRANCH   6  19
TORSDOF 2
