REMARK  Name = ZINC07652850
REMARK  5 active torsions:
REMARK  status: ('A' for Active; 'I' for Inactive)
REMARK    1  A    between atoms: C_6  and  O_7
REMARK    2  A    between atoms: O_7  and  C_8
REMARK    3  A    between atoms: C_8  and  C_9
REMARK    4  A    between atoms: N_11  and  N_12
REMARK    5  A    between atoms: C_13  and  C_15
REMARK                            x       y       z     vdW  Elec       q    Type
REMARK                         _______ _______ _______ _____ _____    ______ ____
ROOT
ATOM      1  C   UNL     1      -3.688  -0.955   0.014  0.00  0.00    +0.267 C 
ATOM      2  O   UNL     1      -4.657  -0.227   0.023  0.00  0.00    -0.271 OA
ATOM      3  N   UNL     1      -3.850  -2.293   0.008  0.00  0.00    -0.231 N 
ATOM      4  H   UNL     1      -3.074  -2.876   0.001  0.00  0.00    +0.173 HD
ENDROOT
BRANCH   3   5
ATOM      5  N   UNL     1      -5.138  -2.843   0.011  0.00  0.00    -0.230 N 
ATOM      6  C   UNL     1      -5.300  -4.181   0.004  0.00  0.00    +0.267 C 
ATOM      7  O   UNL     1      -4.327  -4.912  -0.004  0.00  0.00    -0.268 OA
ATOM      8  H   UNL     1      -5.914  -2.261   0.018  0.00  0.00    +0.173 HD
BRANCH   6   9
ATOM      9  C   UNL     1      -6.648  -4.756   0.007  0.00  0.00    +0.076 A 
ATOM     10  C   UNL     1      -7.029  -6.089   0.002  0.00  0.00    +0.022 A 
ATOM     11  C   UNL     1      -8.376  -6.354   0.007  0.00  0.00    +0.024 A 
ATOM     12  C   UNL     1      -9.256  -5.317   0.017  0.00  0.00    +0.056 A 
ATOM     13  S   UNL     1      -8.225  -3.923   0.027  0.00  0.00    -0.077 S 
ATOM     14 BR   UNL     1     -11.146  -5.380   0.025  0.00  0.00    -0.043 Br
ENDBRANCH   6   9
ENDBRANCH   3   5
BRANCH   1  15
ATOM     15  C   UNL     1      -2.301  -0.364   0.011  0.00  0.00    +0.326 C 
BRANCH  15  16
ATOM     16  O   UNL     1      -2.392   1.062   0.019  0.00  0.00    -0.483 OA
BRANCH  16  22
ATOM     17  C   UNL     1      -0.013   1.076   0.008  0.00  0.00    +0.046 A 
ATOM     18  C   UNL     1       1.173   1.784   0.000  0.00  0.00    +0.007 A 
ATOM     19  C   UNL     1       1.159   3.168   0.008  0.00  0.00    -0.044 A 
ATOM     20  C   UNL     1      -0.046   3.847   0.022  0.00  0.00    -0.041 A 
ATOM     21  C   UNL     1      -1.235   3.140   0.031  0.00  0.00    +0.049 A 
ATOM     22  C   UNL     1      -1.222   1.754   0.017  0.00  0.00    +0.121 A 
ATOM     23  C   UNL     1       0.208   5.340   0.027  0.00  0.00    +0.036 C 
ATOM     24  C   UNL     1       1.674   5.502  -0.427  0.00  0.00    +0.009 C 
ATOM     25  C   UNL     1       2.304   4.159   0.001  0.00  0.00    +0.036 C 
ENDBRANCH  16  22
ENDBRANCH  15  16
ENDBRANCH   1  15
TORSDOF 5
