REMARK  Name = ZINC06229144
REMARK  10 active torsions:
REMARK  status: ('A' for Active; 'I' for Inactive)
REMARK    1  A    between atoms: C_1  and  C_2
REMARK    2  A    between atoms: C_3  and  C_35
REMARK    3  A    between atoms: C_6  and  N_7
REMARK    4  A    between atoms: N_7  and  S_8
REMARK    5  A    between atoms: S_8  and  C_11
REMARK    6  A    between atoms: C_14  and  N_17
REMARK    7  A    between atoms: C_18  and  C_20
REMARK    8  A    between atoms: C_20  and  S_21
REMARK    9  A    between atoms: S_21  and  C_22
REMARK   10  A    between atoms: C_23  and  C_33
REMARK                            x       y       z     vdW  Elec       q    Type
REMARK                         _______ _______ _______ _____ _____    ______ ____
ROOT
ATOM      1  N   UNL     1       0.064   1.492   8.751  0.00  0.00    -0.285 N 
ATOM      2  C   UNL     1      -1.100   1.900   9.295  0.00  0.00    +0.227 C 
ATOM      3  O   UNL     1      -2.152   1.577   8.787  0.00  0.00    -0.275 OA
ATOM      4  H   UNL     1       0.903   1.686   9.199  0.00  0.00    +0.155 HD
ENDROOT
BRANCH   1   8
ATOM      5  C   UNL     1       0.062  -0.599   5.148  0.00  0.00    +0.111 A 
ATOM      6  C   UNL     1      -0.893   0.374   5.381  0.00  0.00    +0.031 A 
ATOM      7  C   UNL     1      -0.894   1.069   6.575  0.00  0.00    +0.025 A 
ATOM      8  C   UNL     1       0.063   0.790   7.541  0.00  0.00    +0.034 A 
ATOM      9  C   UNL     1       1.020  -0.188   7.303  0.00  0.00    +0.025 A 
ATOM     10  C   UNL     1       1.014  -0.883   6.110  0.00  0.00    +0.031 A 
BRANCH   5  11
ATOM     11  S   UNL     1       0.061  -1.483   3.624  0.00  0.00    +0.094 S 
ATOM     12  O   UNL     1       1.384  -1.964   3.432  0.00  0.00    -0.148 OA
ATOM     13  O   UNL     1      -0.593  -0.653   2.673  0.00  0.00    -0.148 OA
BRANCH  11  14
ATOM     14  N   UNL     1      -0.902  -2.815   3.831  0.00  0.00    -0.057 NA
BRANCH  14  20
ATOM     15  C   UNL     1      -2.636  -5.331   4.002  0.00  0.00    +0.051 C 
ATOM     16  C   UNL     1      -1.848  -4.828   2.820  0.00  0.00    +0.037 A 
ATOM     17  C   UNL     1      -1.775  -5.437   1.560  0.00  0.00    +0.085 A 
ATOM     18  N   UNL     1      -1.000  -4.712   0.800  0.00  0.00    -0.081 NA
ATOM     19  O   UNL     1      -0.550  -3.605   1.560  0.00  0.00    -0.336 OA
ATOM     20  C   UNL     1      -1.089  -3.701   2.787  0.00  0.00    +0.262 A 
ATOM     21  C   UNL     1      -2.470  -6.711   1.153  0.00  0.00    +0.069 C 
ENDBRANCH  14  20
ENDBRANCH  11  14
ENDBRANCH   5  11
ENDBRANCH   1   8
BRANCH   2  22
ATOM     22  C   UNL     1      -1.093   2.758  10.534  0.00  0.00    +0.172 C 
BRANCH  22  23
ATOM     23  S   UNL     1      -2.800   3.138  11.015  0.00  0.00    -0.095 S 
BRANCH  23  24
ATOM     24  C   UNL     1      -2.624   4.133  12.459  0.00  0.00    +0.115 A 
ATOM     25  C   UNL     1      -3.770   4.614  13.119  0.00  0.00    +0.084 A 
ATOM     26  C   UNL     1      -3.604   5.400  14.265  0.00  0.00    +0.027 A 
ATOM     27  C   UNL     1      -2.313   5.665  14.690  0.00  0.00    -0.025 A 
ATOM     28  C   UNL     1      -1.242   5.165  13.995  0.00  0.00    +0.046 A 
ATOM     29  N   UNL     1      -1.415   4.418  12.917  0.00  0.00    -0.244 NA
ATOM     30  C   UNL     1       0.169   5.466  14.462  0.00  0.00    +0.056 C 
ATOM     31  C   UNL     1       0.460   6.946  14.204  0.00  0.00    +0.006 C 
ATOM     32  C   UNL     1      -0.025   7.805  15.355  0.00  0.00    +0.001 C 
ATOM     33  C   UNL     1      -1.533   7.865  15.499  0.00  0.00    +0.005 C 
ATOM     34  C   UNL     1      -2.095   6.508  15.929  0.00  0.00    +0.037 C 
BRANCH  25  35
ATOM     35  C   UNL     1      -5.079   4.306  12.627  0.00  0.00    +0.102 C 
ATOM     36  N   UNL     1      -6.118   4.062  12.237  0.00  0.00    -0.191 NA
ENDBRANCH  25  35
ENDBRANCH  23  24
ENDBRANCH  22  23
ENDBRANCH   2  22
TORSDOF 8
