REMARK  Name = ZINC26003203
REMARK  6 active torsions:
REMARK  status: ('A' for Active; 'I' for Inactive)
REMARK    1  A    between atoms: C_1  and  C_2
REMARK    2  A    between atoms: C_2  and  C_3
REMARK    3  A    between atoms: C_2  and  C_4
REMARK    4  A    between atoms: C_2  and  O_5
REMARK    5  A    between atoms: O_5  and  C_6
REMARK    6  A    between atoms: C_17  and  C_19
REMARK                            x       y       z     vdW  Elec       q    Type
REMARK                         _______ _______ _______ _____ _____    ______ ____
ROOT
ATOM      1  C   UNL     1      -1.299  -8.022   1.012  0.00  0.00    +0.404 C 
ATOM      2  O   UNL     1      -2.279  -8.720   1.185  0.00  0.00    -0.226 OA
ATOM      3  N   UNL     1      -1.370  -6.950   0.199  0.00  0.00    -0.262 N 
ATOM      4  C   UNL     1      -2.619  -6.598  -0.494  0.00  0.00    +0.117 C 
ATOM      5  C   UNL     1      -3.126  -5.245   0.007  0.00  0.00    +0.075 C 
ATOM      6  C   UNL     1      -1.977  -4.244  -0.001  0.00  0.00    +0.057 A 
ATOM      7  C   UNL     1      -0.688  -4.672  -0.016  0.00  0.00    +0.032 A 
ATOM      8  S   UNL     1       0.230  -3.157  -0.017  0.00  0.00    -0.055 S 
ATOM      9  C   UNL     1      -1.137  -2.082   0.002  0.00  0.00    +0.165 A 
ATOM     10  N   UNL     1      -2.150  -2.924   0.012  0.00  0.00    -0.229 NA
ATOM     11  N   UNL     1      -1.156  -0.694   0.009  0.00  0.00    -0.259 N 
ATOM     12  C   UNL     1       0.002  -0.004   0.002  0.00  0.00    +0.268 C 
ATOM     13  O   UNL     1       1.062  -0.597  -0.011  0.00  0.00    -0.268 OA
ATOM     14  C   UNL     1      -0.197  -6.082  -0.032  0.00  0.00    +0.155 C 
ATOM     15  H   UNL     1      -2.116  -0.157   0.021  0.00  0.00    +0.157 HD
ENDROOT
BRANCH  12  16
ATOM     16  C   UNL     1      -0.018   1.478   0.010  0.00  0.00    +0.126 A 
ATOM     17  C   UNL     1       1.197   2.180   0.002  0.00  0.00    +0.033 A 
ATOM     18  C   UNL     1       1.192   3.545   0.009  0.00  0.00    +0.012 A 
ATOM     19  C   UNL     1      -0.051   4.207   0.024  0.00  0.00    +0.000 A 
ATOM     20  C   UNL     1      -0.130   5.608   0.031  0.00  0.00    +0.010 A 
ATOM     21  C   UNL     1      -1.349   6.214   0.045  0.00  0.00    +0.001 A 
ATOM     22  C   UNL     1      -2.522   5.462   0.053  0.00  0.00    +0.002 A 
ATOM     23  C   UNL     1      -2.485   4.102   0.046  0.00  0.00    +0.028 A 
ATOM     24  C   UNL     1      -1.243   3.438   0.032  0.00  0.00    +0.072 A 
ATOM     25  N   UNL     1      -1.178   2.107   0.019  0.00  0.00    -0.242 NA
ENDBRANCH  12  16
BRANCH   1  26
ATOM     26  O   UNL     1      -0.142  -8.320   1.634  0.00  0.00    -0.445 OA
BRANCH  26  28
ATOM     27  C   UNL     1      -0.494 -10.729   1.673  0.00  0.00    +0.055 C 
ATOM     28  C   UNL     1      -0.138  -9.489   2.495  0.00  0.00    +0.107 C 
ATOM     29  C   UNL     1       1.252  -9.666   3.109  0.00  0.00    +0.055 C 
ATOM     30  C   UNL     1      -1.169  -9.303   3.611  0.00  0.00    +0.055 C 
ENDBRANCH  26  28
ENDBRANCH   1  26
TORSDOF 3
