REMARK  Name = ZINC31425338
REMARK  8 active torsions:
REMARK  status: ('A' for Active; 'I' for Inactive)
REMARK    1  A    between atoms: C_1  and  O_2
REMARK    2  A    between atoms: O_2  and  C_3
REMARK    3  A    between atoms: C_7  and  O_11
REMARK    4  A    between atoms: C_8  and  O_9
REMARK    5  A    between atoms: O_9  and  C_10
REMARK    6  A    between atoms: O_11  and  C_12
REMARK    7  A    between atoms: C_19  and  O_27
REMARK    8  A    between atoms: C_20  and  O_26
REMARK                            x       y       z     vdW  Elec       q    Type
REMARK                         _______ _______ _______ _____ _____    ______ ____
ROOT
ATOM      1  C   UNL     1      -0.696   2.865   1.352  0.00  0.00    +0.165 A 
ATOM      2  C   UNL     1      -0.352   3.723   0.321  0.00  0.00    +0.053 A 
ATOM      3  C   UNL     1      -0.546   5.090   0.450  0.00  0.00    -0.034 A 
ATOM      4  C   UNL     1      -1.069   5.605   1.617  0.00  0.00    +0.015 A 
ATOM      5  C   UNL     1      -1.415   4.748   2.657  0.00  0.00    +0.170 A 
ATOM      6  C   UNL     1      -1.229   3.379   2.528  0.00  0.00    +0.204 A 
ATOM      7  C   UNL     1      -1.272   7.084   1.809  0.00  0.00    +0.124 C 
ATOM      8  N   UNL     1      -1.259   7.784   0.517  0.00  0.00    -0.291 NA
ATOM      9  C   UNL     1      -1.343   9.237   0.730  0.00  0.00    +0.090 C 
ATOM     10  C   UNL     1      -1.632   9.918  -0.607  0.00  0.00    +0.051 C 
ATOM     11  C   UNL     1      -0.615   9.470  -1.626  0.00  0.00    -0.038 A 
ATOM     12  C   UNL     1      -0.425  10.249  -2.758  0.00  0.00    +0.053 A 
ATOM     13  C   UNL     1       0.499   9.875  -3.717  0.00  0.00    +0.158 A 
ATOM     14  C   UNL     1       1.240   8.709  -3.539  0.00  0.00    +0.159 A 
ATOM     15  C   UNL     1       1.045   7.937  -2.409  0.00  0.00    +0.054 A 
ATOM     16  C   UNL     1       0.116   8.316  -1.449  0.00  0.00    -0.023 A 
ATOM     17  C   UNL     1      -0.052   7.433  -0.240  0.00  0.00    +0.092 C 
ATOM     18  C   UNL     1      -0.175   5.979  -0.708  0.00  0.00    +0.059 C 
ENDROOT
BRANCH   1  20
ATOM     19  C   UNL     1       0.046   1.069  -0.019  0.00  0.00    +0.277 C 
ATOM     20  O   UNL     1      -0.507   1.525   1.217  0.00  0.00    -0.491 OA
ENDBRANCH   1  20
BRANCH   6  21
ATOM     21  O   UNL     1      -1.569   2.544   3.548  0.00  0.00    -0.488 OA
ATOM     22  C   UNL     1      -2.900   2.024   3.545  0.00  0.00    +0.277 C 
ENDBRANCH   6  21
BRANCH   5  23
ATOM     23  O   UNL     1      -1.937   5.255   3.806  0.00  0.00    -0.491 OA
ATOM     24  C   UNL     1      -1.024   5.514   4.875  0.00  0.00    +0.277 C 
ENDBRANCH   5  23
BRANCH  14  25
ATOM     25  O   UNL     1       2.151   8.331  -4.475  0.00  0.00    -0.503 OA
ATOM     26  H   UNL     1       2.736   7.410  -4.333  0.00  0.00    +0.292 HD
ENDBRANCH  14  25
BRANCH  13  27
ATOM     27  O   UNL     1       0.683  10.640  -4.826  0.00  0.00    -0.503 OA
ATOM     28  H   UNL     1       1.419  10.339  -5.586  0.00  0.00    +0.292 HD
ENDBRANCH  13  27
TORSDOF 5
