REMARK  Name = ZINC03491959
REMARK  12 active torsions:
REMARK  status: ('A' for Active; 'I' for Inactive)
REMARK    1  A    between atoms: C_1  and  C_2
REMARK    2  A    between atoms: C_2  and  C_4
REMARK    3  A    between atoms: C_2  and  S_7
REMARK    4  A    between atoms: S_7  and  C_8
REMARK    5  A    between atoms: C_11  and  C_22
REMARK    6  A    between atoms: N_12  and  C_13
REMARK    7  A    between atoms: C_16  and  O_20
REMARK    8  A    between atoms: O_20  and  C_21
REMARK    9  A    between atoms: C_25  and  C_28
REMARK   10  A    between atoms: C_28  and  C_29
REMARK   11  A    between atoms: C_28  and  C_30
REMARK   12  A    between atoms: C_28  and  C_31
REMARK                            x       y       z     vdW  Elec       q    Type
REMARK                         _______ _______ _______ _____ _____    ______ ____
ROOT
ATOM      1  C   UNL     1       2.842   0.210  -0.956  0.00  0.00    +0.197 A 
ATOM      2  N   UNL     1       4.054  -0.160  -0.607  0.00  0.00    -0.122 NA
ATOM      3  N   UNL     1       4.387   0.403   0.498  0.00  0.00    -0.128 NA
ATOM      4  C   UNL     1       3.411   1.172   0.923  0.00  0.00    +0.169 A 
ATOM      5  N   UNL     1       2.388   1.069   0.006  0.00  0.00    -0.270 N 
ENDROOT
BRANCH   5   6
ATOM      6  C   UNL     1       1.142   1.714   0.049  0.00  0.00    +0.052 A 
ATOM      7  C   UNL     1      -0.016   0.975   0.251  0.00  0.00    +0.030 A 
ATOM      8  C   UNL     1      -1.242   1.609   0.287  0.00  0.00    +0.049 A 
ATOM      9  C   UNL     1      -1.316   2.986   0.132  0.00  0.00    +0.138 A 
ATOM     10  C   UNL     1      -0.159   3.725  -0.071  0.00  0.00    +0.084 A 
ATOM     11  C   UNL     1       1.068   3.090  -0.113  0.00  0.00    +0.050 A 
ATOM     12 CL   UNL     1      -0.253   5.447  -0.273  0.00  0.00    -0.080 Cl
BRANCH   9  13
ATOM     13  O   UNL     1      -2.523   3.610   0.172  0.00  0.00    -0.494 OA
ATOM     14  C   UNL     1      -3.672   2.787   0.384  0.00  0.00    +0.277 C 
ENDBRANCH   9  13
ENDBRANCH   5   6
BRANCH   4  15
ATOM     15  C   UNL     1       3.409   1.992   2.152  0.00  0.00    +0.020 A 
ATOM     16  C   UNL     1       4.612   2.296   2.794  0.00  0.00    +0.012 A 
ATOM     17  C   UNL     1       4.604   3.066   3.939  0.00  0.00    +0.005 A 
ATOM     18  C   UNL     1       3.407   3.528   4.457  0.00  0.00    -0.042 A 
ATOM     19  C   UNL     1       2.211   3.226   3.829  0.00  0.00    +0.005 A 
ATOM     20  C   UNL     1       2.206   2.461   2.681  0.00  0.00    +0.012 A 
BRANCH  18  21
ATOM     21  C   UNL     1       3.405   4.364   5.711  0.00  0.00    -0.013 C 
ATOM     22  C   UNL     1       2.585   3.658   6.793  0.00  0.00    +0.015 C 
ATOM     23  C   UNL     1       4.842   4.550   6.201  0.00  0.00    +0.015 C 
ATOM     24  C   UNL     1       2.786   5.731   5.412  0.00  0.00    +0.015 C 
ENDBRANCH  18  21
ENDBRANCH   4  15
BRANCH   1  25
ATOM     25  S   UNL     1       1.965  -0.305  -2.396  0.00  0.00    -0.073 S 
BRANCH  25  27
ATOM     26  C   UNL     1       4.425  -0.588  -3.550  0.00  0.00    +0.029 C 
ATOM     27  C   UNL     1       3.198  -1.404  -3.138  0.00  0.00    +0.137 C 
BRANCH  27  28
ATOM     28  C   UNL     1       2.608  -2.073  -4.353  0.00  0.00    +0.224 C 
ATOM     29  O   UNL     1       1.696  -1.544  -4.953  0.00  0.00    -0.275 OA
ATOM     30  N   UNL     1       3.093  -3.258  -4.772  0.00  0.00    -0.328 N 
ATOM     31  H   UNL     1       3.823  -3.680  -4.292  0.00  0.00    +0.145 HD
ATOM     32  H   UNL     1       2.714  -3.688  -5.554  0.00  0.00    +0.145 HD
ENDBRANCH  27  28
ENDBRANCH  25  27
ENDBRANCH   1  25
TORSDOF 7
