REMARK  Name = ZINC66972904
REMARK  10 active torsions:
REMARK  status: ('A' for Active; 'I' for Inactive)
REMARK    1  A    between atoms: C_1  and  C_2
REMARK    2  A    between atoms: C_5  and  C_28
REMARK    3  A    between atoms: N_8  and  C_10
REMARK    4  A    between atoms: C_10  and  C_11
REMARK    5  A    between atoms: C_11  and  C_12
REMARK    6  A    between atoms: C_12  and  C_13
REMARK    7  A    between atoms: C_13  and  N_14
REMARK    8  A    between atoms: N_14  and  C_15
REMARK    9  A    between atoms: C_15  and  C_16
REMARK   10  A    between atoms: C_21  and  N_22
REMARK                            x       y       z     vdW  Elec       q    Type
REMARK                         _______ _______ _______ _____ _____    ______ ____
ROOT
ATOM      1  N   UNL     1       6.035  -2.578   4.439  0.00  0.00    +0.382 N 
ATOM      2  H   UNL     1       5.654  -2.187   5.288  0.00  0.00    -0.085 HD
ATOM      3  H   UNL     1       5.986  -3.585   4.480  0.00  0.00    -0.085 HD
ENDROOT
BRANCH   1   4
ATOM      4  C   UNL     1       5.260  -2.096   3.288  0.00  0.00    -0.082 C 
BRANCH   4   5
ATOM      5  C   UNL     1       3.800  -2.529   3.438  0.00  0.00    -0.021 C 
BRANCH   5   6
ATOM      6  C   UNL     1       2.993  -2.028   2.239  0.00  0.00    -0.020 C 
BRANCH   6   7
ATOM      7  C   UNL     1       1.534  -2.461   2.390  0.00  0.00    -0.079 C 
BRANCH   7  13
ATOM      8  C   UNL     1      -0.019   1.526   0.010  0.00  0.00    +0.005 C 
ATOM      9  C   UNL     1       0.002  -0.004   0.002  0.00  0.00    -0.031 C 
ATOM     10  C   UNL     1      -1.434  -0.535   0.015  0.00  0.00    +0.003 C 
ATOM     11  C   UNL     1      -1.402  -2.064   0.086  0.00  0.00    -0.031 C 
ATOM     12  C   UNL     1      -0.613  -2.496   1.324  0.00  0.00    -0.076 C 
ATOM     13  N   UNL     1       0.758  -1.980   1.239  0.00  0.00    +0.380 N 
ATOM     14  C   UNL     1       0.740  -0.512   1.242  0.00  0.00    -0.076 C 
ATOM     15  C   UNL     1      -2.832  -2.602   0.177  0.00  0.00    +0.005 C 
ATOM     16  H   UNL     1       1.188  -2.307   0.386  0.00  0.00    -0.082 HD
ENDBRANCH   7  13
ENDBRANCH   6   7
ENDBRANCH   5   6
ENDBRANCH   4   5
ENDBRANCH   1   4
BRANCH   1  17
ATOM     17  C   UNL     1       7.437  -2.162   4.294  0.00  0.00    -0.045 C 
BRANCH  17  18
ATOM     18  C   UNL     1       8.232  -2.656   5.475  0.00  0.00    -0.043 A 
ATOM     19  C   UNL     1       8.526  -1.799   6.517  0.00  0.00    +0.003 A 
ATOM     20  C   UNL     1       9.256  -2.251   7.601  0.00  0.00    +0.000 A 
ATOM     21  C   UNL     1       9.693  -3.562   7.646  0.00  0.00    +0.002 A 
ATOM     22  C   UNL     1       9.402  -4.424   6.607  0.00  0.00    +0.023 A 
ATOM     23  C   UNL     1       8.664  -3.975   5.519  0.00  0.00    +0.031 A 
BRANCH  23  24
ATOM     24  N   UNL     1       8.363  -4.846   4.470  0.00  0.00    -0.325 N 
ATOM     25  C   UNL     1       9.273  -4.991   3.322  0.00  0.00    +0.133 C 
ATOM     26  C   UNL     1       9.536  -6.485   3.100  0.00  0.00    +0.178 C 
ATOM     27  O   UNL     1       8.287  -7.175   3.013  0.00  0.00    -0.377 OA
ATOM     28  C   UNL     1       7.496  -7.107   4.201  0.00  0.00    +0.178 C 
ATOM     29  C   UNL     1       7.131  -5.649   4.482  0.00  0.00    +0.133 C 
ENDBRANCH  23  24
ENDBRANCH  17  18
ENDBRANCH   1  17
TORSDOF 8
