REMARK  Name = ZINC04046039
REMARK  5 active torsions:
REMARK  status: ('A' for Active; 'I' for Inactive)
REMARK    1  A    between atoms: C_1  and  C_2
REMARK    2  A    between atoms: C_6  and  N_9
REMARK    3  A    between atoms: C_7  and  C_8
REMARK    4  A    between atoms: N_19  and  N_20
REMARK    5  A    between atoms: C_21  and  C_22
REMARK                            x       y       z     vdW  Elec       q    Type
REMARK                         _______ _______ _______ _____ _____    ______ ____
ROOT
ATOM      1  N   UNL     1       3.583   2.122  -0.021  0.00  0.00    -0.296 N 
ATOM      2  C   UNL     1       3.567   3.500  -0.118  0.00  0.00    +0.167 A 
ATOM      3  C   UNL     1       4.833   4.234  -0.231  0.00  0.00    +0.181 A 
ATOM      4  N   UNL     1       4.841   5.548  -0.331  0.00  0.00    -0.202 NA
ATOM      5  C   UNL     1       3.682   6.219  -0.318  0.00  0.00    +0.244 A 
ATOM      6  C   UNL     1       2.404   5.477  -0.198  0.00  0.00    +0.244 A 
ATOM      7  N   UNL     1       2.417   4.141  -0.103  0.00  0.00    -0.203 NA
ATOM      8  N   UNL     1       1.509   6.436  -0.219  0.00  0.00    -0.027 NA
ATOM      9  O   UNL     1       2.075   7.504  -0.325  0.00  0.00    -0.238 OA
ATOM     10  N   UNL     1       3.286   7.468  -0.386  0.00  0.00    -0.027 NA
ATOM     11  N   UNL     1       6.025   3.542  -0.238  0.00  0.00    -0.218 N 
ATOM     12  H   UNL     1       4.426   1.651   0.064  0.00  0.00    +0.154 HD
ATOM     13  H   UNL     1       6.025   2.575  -0.169  0.00  0.00    +0.176 HD
ENDROOT
BRANCH   1  19
ATOM     14  C   UNL     1       1.074  -1.968   1.045  0.00  0.00    +0.044 C 
ATOM     15  C   UNL     1       1.138  -0.579   0.464  0.00  0.00    -0.046 A 
ATOM     16  C   UNL     1       0.007  -0.011  -0.095  0.00  0.00    +0.004 A 
ATOM     17  C   UNL     1       0.061   1.263  -0.629  0.00  0.00    +0.002 A 
ATOM     18  C   UNL     1       1.245   1.974  -0.606  0.00  0.00    +0.023 A 
ATOM     19  C   UNL     1       2.383   1.407  -0.046  0.00  0.00    +0.036 A 
ATOM     20  C   UNL     1       2.325   0.126   0.490  0.00  0.00    -0.026 A 
ATOM     21  C   UNL     1       3.556  -0.493   1.100  0.00  0.00    +0.046 C 
ENDBRANCH   1  19
BRANCH  11  22
ATOM     22  N   UNL     1       7.238   4.236  -0.346  0.00  0.00    -0.189 NA
ATOM     23  C   UNL     1       8.361   3.584  -0.353  0.00  0.00    +0.139 C 
BRANCH  23  24
ATOM     24  C   UNL     1       9.636   4.315  -0.466  0.00  0.00    +0.012 A 
ATOM     25  C   UNL     1      10.846   3.615  -0.473  0.00  0.00    +0.060 A 
ATOM     26  C   UNL     1      12.039   4.304  -0.580  0.00  0.00    +0.167 A 
ATOM     27  C   UNL     1      12.035   5.695  -0.680  0.00  0.00    +0.167 A 
ATOM     28  C   UNL     1      10.835   6.390  -0.672  0.00  0.00    +0.065 A 
ATOM     29  C   UNL     1       9.639   5.708  -0.571  0.00  0.00    +0.030 A 
ATOM     30 BR   UNL     1       8.005   6.661  -0.569  0.00  0.00    -0.050 Br
ATOM     31  O   UNL     1      13.327   6.128  -0.772  0.00  0.00    -0.453 OA
ATOM     32  C   UNL     1      14.135   5.028  -0.317  0.00  0.00    +0.466 C 
ATOM     33  O   UNL     1      13.333   3.869  -0.610  0.00  0.00    -0.453 OA
ENDBRANCH  23  24
ENDBRANCH  11  22
TORSDOF 3
