REMARK  Name = ZINC19928336
REMARK  6 active torsions:
REMARK  status: ('A' for Active; 'I' for Inactive)
REMARK    1  A    between atoms: C_1  and  O_2
REMARK    2  A    between atoms: O_2  and  C_3
REMARK    3  A    between atoms: C_6  and  C_9
REMARK    4  A    between atoms: C_15  and  O_27
REMARK    5  A    between atoms: C_20  and  C_22
REMARK    6  A    between atoms: O_27  and  C_28
REMARK                            x       y       z     vdW  Elec       q    Type
REMARK                         _______ _______ _______ _____ _____    ______ ____
ROOT
ATOM      1  C   UNL     1      -4.984   1.073   0.373  0.00  0.00    +0.172 C 
ATOM      2  C   UNL     1      -3.618   1.713   0.363  0.00  0.00    +0.026 C 
ATOM      3  C   UNL     1      -2.518   1.040   0.019  0.00  0.00    +0.050 C 
ATOM      4  C   UNL     1      -1.222   1.760   0.017  0.00  0.00    +0.042 A 
ATOM      5  C   UNL     1      -0.013   1.076   0.008  0.00  0.00    +0.059 A 
ATOM      6  C   UNL     1       1.175   1.790   0.001  0.00  0.00    +0.121 A 
ATOM      7  C   UNL     1       1.155   3.179   0.007  0.00  0.00    +0.049 A 
ATOM      8  C   UNL     1      -0.048   3.862   0.022  0.00  0.00    +0.050 A 
ATOM      9  C   UNL     1      -1.238   3.160   0.031  0.00  0.00    +0.131 A 
ATOM     10  O   UNL     1      -2.438   3.796   0.049  0.00  0.00    -0.479 OA
ATOM     11  C   UNL     1      -3.500   3.168   0.755  0.00  0.00    +0.241 C 
ATOM     12  N   UNL     1      -2.550  -0.315  -0.331  0.00  0.00    -0.283 N 
ATOM     13  C   UNL     1      -3.713  -1.016  -0.054  0.00  0.00    +0.219 A 
ATOM     14  N   UNL     1      -4.861  -0.377   0.284  0.00  0.00    -0.221 N 
ATOM     15  N   UNL     1      -5.816  -1.370   0.504  0.00  0.00    -0.156 NA
ATOM     16  C   UNL     1      -5.223  -2.518   0.292  0.00  0.00    +0.247 A 
ATOM     17  N   UNL     1      -3.948  -2.299  -0.047  0.00  0.00    -0.201 NA
ATOM     18  H   UNL     1      -1.675  -0.781  -0.805  0.00  0.00    +0.155 HD
ENDROOT
BRANCH   1  22
ATOM     19  C   UNL     1      -7.245   2.510  -2.957  0.00  0.00    +0.120 A 
ATOM     20  C   UNL     1      -7.703   2.718  -1.664  0.00  0.00    +0.046 A 
ATOM     21  C   UNL     1      -6.971   2.252  -0.589  0.00  0.00    +0.009 A 
ATOM     22  C   UNL     1      -5.781   1.580  -0.801  0.00  0.00    -0.019 A 
ATOM     23  C   UNL     1      -5.319   1.377  -2.088  0.00  0.00    +0.009 A 
ATOM     24  C   UNL     1      -6.051   1.835  -3.167  0.00  0.00    +0.046 A 
BRANCH  19  26
ATOM     25  C   UNL     1      -7.430   2.718  -5.318  0.00  0.00    +0.277 C 
ATOM     26  O   UNL     1      -7.963   2.968  -4.016  0.00  0.00    -0.495 OA
ENDBRANCH  19  26
ENDBRANCH   1  22
BRANCH  11  27
ATOM     27  C   UNL     1      -3.225   3.264   2.233  0.00  0.00    +0.034 A 
ATOM     28  C   UNL     1      -4.099   3.443   3.254  0.00  0.00    +0.015 A 
ATOM     29  C   UNL     1      -3.615   3.501   4.548  0.00  0.00    +0.008 A 
ATOM     30  C   UNL     1      -2.282   3.377   4.758  0.00  0.00    +0.045 A 
ATOM     31  S   UNL     1      -1.665   3.164   3.096  0.00  0.00    -0.098 S 
ENDBRANCH  11  27
BRANCH   6  32
ATOM     32  O   UNL     1       2.364   1.130  -0.014  0.00  0.00    -0.495 OA
ATOM     33  C   UNL     1       3.549   1.928  -0.021  0.00  0.00    +0.277 C 
ENDBRANCH   6  32
TORSDOF 4
