REMARK  Name = ZINC13494586
REMARK  12 active torsions:
REMARK  status: ('A' for Active; 'I' for Inactive)
REMARK    1  A    between atoms: C_1  and  C_2
REMARK    2  A    between atoms: C_2  and  C_3
REMARK    3  A    between atoms: C_3  and  C_5
REMARK    4  A    between atoms: C_3  and  N_68
REMARK    5  A    between atoms: N_9  and  C_10
REMARK    6  A    between atoms: C_10  and  C_11
REMARK    7  A    between atoms: C_10  and  C_12
REMARK    8  A    between atoms: C_10  and  C_13
REMARK    9  A    between atoms: C_14  and  C_15
REMARK   10  A    between atoms: C_14  and  N_68
REMARK   11  A    between atoms: C_21  and  C_27
REMARK   12  A    between atoms: C_28  and  N_68
REMARK                            x       y       z     vdW  Elec       q    Type
REMARK                         _______ _______ _______ _____ _____    ______ ____
ROOT
ATOM      1  N   UNL     1       3.507  -0.473  -0.412  0.00  0.00    +0.391 N 
ATOM      2  H   UNL     1       2.987  -1.341  -0.235  0.00  0.00    -0.080 HD
ENDROOT
BRANCH   1   3
ATOM      3  C   UNL     1       2.760   0.344  -1.390  0.00  0.00    -0.067 C 
ATOM      4  C   UNL     1       1.733   1.206  -0.653  0.00  0.00    -0.015 C 
ATOM      5  C   UNL     1       0.939   2.032  -1.667  0.00  0.00    -0.002 C 
ATOM      6  C   UNL     1       0.217   1.094  -2.636  0.00  0.00    -0.000 C 
ATOM      7  C   UNL     1       1.244   0.233  -3.373  0.00  0.00    -0.002 C 
ATOM      8  C   UNL     1       2.038  -0.594  -2.360  0.00  0.00    -0.015 C 
ENDBRANCH   1   3
BRANCH   1   9
ATOM      9  C   UNL     1       3.653   0.267   0.859  0.00  0.00    +0.003 C 
BRANCH   9  10
ATOM     10  C   UNL     1       3.882  -0.725   1.970  0.00  0.00    +0.139 A 
ATOM     11  N   UNL     1       4.719  -1.734   1.958  0.00  0.00    -0.115 NA
ATOM     12  N   UNL     1       4.623  -2.344   3.089  0.00  0.00    -0.023 NA
ATOM     13  N   UNL     1       3.748  -1.749   3.823  0.00  0.00    -0.043 NA
ATOM     14  N   UNL     1       3.268  -0.746   3.168  0.00  0.00    -0.226 N 
BRANCH  14  15
ATOM     15  C   UNL     1       2.247   0.192   3.639  0.00  0.00    +0.059 C 
ATOM     16  C   UNL     1       1.921  -0.102   5.105  0.00  0.00    +0.036 C 
ATOM     17  C   UNL     1       2.772   1.624   3.511  0.00  0.00    +0.036 C 
ATOM     18  C   UNL     1       0.982   0.036   2.794  0.00  0.00    +0.036 C 
ENDBRANCH  14  15
ENDBRANCH   9  10
BRANCH   9  20
ATOM     19  C   UNL     1       4.548   2.314  -0.258  0.00  0.00    +0.002 C 
ATOM     20  C   UNL     1       4.838   1.232   0.783  0.00  0.00    -0.011 C 
ENDBRANCH   9  20
ENDBRANCH   1   9
BRANCH   1  21
ATOM     21  C   UNL     1       4.840  -0.815  -0.953  0.00  0.00    -0.036 C 
BRANCH  21  22
ATOM     22  C   UNL     1       4.676  -1.883  -2.003  0.00  0.00    +0.001 A 
ATOM     23  C   UNL     1       4.732  -1.552  -3.317  0.00  0.00    +0.017 A 
ATOM     24  C   UNL     1       4.569  -2.613  -4.313  0.00  0.00    -0.001 A 
ATOM     25  C   UNL     1       4.618  -2.333  -5.683  0.00  0.00    +0.010 A 
ATOM     26  C   UNL     1       4.462  -3.346  -6.586  0.00  0.00    +0.001 A 
ATOM     27  C   UNL     1       4.257  -4.650  -6.158  0.00  0.00    +0.005 A 
ATOM     28  C   UNL     1       4.206  -4.949  -4.813  0.00  0.00    -0.026 A 
ATOM     29  C   UNL     1       4.362  -3.934  -3.874  0.00  0.00    +0.052 A 
ATOM     30  N   UNL     1       4.316  -4.205  -2.523  0.00  0.00    -0.322 N 
ATOM     31  H   UNL     1       4.173  -5.116  -2.223  0.00  0.00    +0.169 HD
ATOM     32  C   UNL     1       4.472  -3.225  -1.616  0.00  0.00    +0.251 A 
ATOM     33  O   UNL     1       4.430  -3.501  -0.430  0.00  0.00    -0.268 OA
ATOM     34  C   UNL     1       3.982  -6.369  -4.362  0.00  0.00    +0.046 C 
ENDBRANCH  21  22
ENDBRANCH   1  21
TORSDOF 7
