REMARK  Name = ZINC01886761
REMARK  12 active torsions:
REMARK  status: ('A' for Active; 'I' for Inactive)
REMARK    1  A    between atoms: C_1  and  C_2
REMARK    2  A    between atoms: C_2  and  N_3
REMARK    3  A    between atoms: C_4  and  C_22
REMARK    4  A    between atoms: C_7  and  S_8
REMARK    5  A    between atoms: S_8  and  C_9
REMARK    6  A    between atoms: C_9  and  C_10
REMARK    7  A    between atoms: N_12  and  C_13
REMARK    8  A    between atoms: C_16  and  C_20
REMARK    9  A    between atoms: C_25  and  C_28
REMARK   10  A    between atoms: C_28  and  C_29
REMARK   11  A    between atoms: C_28  and  C_30
REMARK   12  A    between atoms: C_28  and  C_31
REMARK                            x       y       z     vdW  Elec       q    Type
REMARK                         _______ _______ _______ _____ _____    ______ ____
ROOT
ATOM      1  N   UNL     1      -2.570   1.461  -0.016  0.00  0.00    -0.302 N 
ATOM      2  C   UNL     1      -3.068   0.832   1.102  0.00  0.00    +0.165 A 
ATOM      3  N   UNL     1      -3.787  -0.184   0.685  0.00  0.00    -0.128 NA
ATOM      4  N   UNL     1      -3.773  -0.233  -0.600  0.00  0.00    -0.122 NA
ATOM      5  C   UNL     1      -3.048   0.752  -1.081  0.00  0.00    +0.192 A 
ENDROOT
BRANCH   2   6
ATOM      6  C   UNL     1      -2.836   1.226   2.508  0.00  0.00    +0.019 A 
ATOM      7  C   UNL     1      -2.407   2.518   2.812  0.00  0.00    +0.012 A 
ATOM      8  C   UNL     1      -2.192   2.880   4.126  0.00  0.00    +0.005 A 
ATOM      9  C   UNL     1      -2.402   1.963   5.142  0.00  0.00    -0.042 A 
ATOM     10  C   UNL     1      -2.828   0.680   4.847  0.00  0.00    +0.005 A 
ATOM     11  C   UNL     1      -3.051   0.308   3.537  0.00  0.00    +0.012 A 
BRANCH   9  12
ATOM     12  C   UNL     1      -2.165   2.364   6.575  0.00  0.00    -0.013 C 
ATOM     13  C   UNL     1      -3.082   3.535   6.935  0.00  0.00    +0.015 C 
ATOM     14  C   UNL     1      -2.467   1.178   7.493  0.00  0.00    +0.015 C 
ATOM     15  C   UNL     1      -0.705   2.788   6.751  0.00  0.00    +0.015 C 
ENDBRANCH   9  12
ENDBRANCH   2   6
BRANCH   1  17
ATOM     16  C   UNL     1      -2.576   3.898  -0.221  0.00  0.00    +0.027 C 
ATOM     17  C   UNL     1      -1.711   2.647  -0.056  0.00  0.00    +0.122 C 
ENDBRANCH   1  17
BRANCH   5  18
ATOM     18  S   UNL     1      -2.747   1.093  -2.783  0.00  0.00    -0.077 S 
BRANCH  18  19
ATOM     19  C   UNL     1      -3.660  -0.207  -3.659  0.00  0.00    +0.173 C 
BRANCH  19  20
ATOM     20  C   UNL     1      -3.484  -0.030  -5.146  0.00  0.00    +0.228 C 
ATOM     21  O   UNL     1      -2.809   0.883  -5.572  0.00  0.00    -0.275 OA
ATOM     22  N   UNL     1      -4.076  -0.886  -6.001  0.00  0.00    -0.283 N 
ATOM     23  H   UNL     1      -4.657  -1.586  -5.663  0.00  0.00    +0.155 HD
BRANCH  22  24
ATOM     24  C   UNL     1      -3.853  -0.766  -7.378  0.00  0.00    +0.062 A 
ATOM     25  C   UNL     1      -2.567  -0.562  -7.860  0.00  0.00    +0.040 A 
ATOM     26  C   UNL     1      -2.350  -0.445  -9.220  0.00  0.00    +0.020 A 
ATOM     27  C   UNL     1      -3.413  -0.530 -10.101  0.00  0.00    -0.048 A 
ATOM     28  C   UNL     1      -4.695  -0.733  -9.624  0.00  0.00    +0.020 A 
ATOM     29  C   UNL     1      -4.918  -0.857  -8.266  0.00  0.00    +0.040 A 
ATOM     30 BR   UNL     1      -6.671  -1.143  -7.616  0.00  0.00    -0.048 Br
ATOM     31  C   UNL     1      -3.173  -0.401 -11.583  0.00  0.00    +0.044 C 
ATOM     32 BR   UNL     1      -1.113  -0.444  -6.657  0.00  0.00    -0.048 Br
ENDBRANCH  22  24
ENDBRANCH  19  20
ENDBRANCH  18  19
ENDBRANCH   5  18
TORSDOF 7
