REMARK  Name = ZINC63329619
REMARK  8 active torsions:
REMARK  status: ('A' for Active; 'I' for Inactive)
REMARK    1  A    between atoms: C_1  and  C_2
REMARK    2  A    between atoms: C_2  and  C_3
REMARK    3  A    between atoms: C_2  and  C_4
REMARK    4  A    between atoms: C_2  and  C_5
REMARK    5  A    between atoms: C_8  and  C_11
REMARK    6  A    between atoms: N_18  and  C_19
REMARK    7  A    between atoms: C_22  and  C_25
REMARK    8  A    between atoms: N_27  and  C_28
REMARK                            x       y       z     vdW  Elec       q    Type
REMARK                         _______ _______ _______ _____ _____    ______ ____
ROOT
ATOM      1  C   UNL     1       2.707  -1.868  -4.752  0.00  0.00    +0.108 C 
ATOM      2  C   UNL     1       2.781  -0.733  -5.795  0.00  0.00    +0.029 C 
ATOM      3  C   UNL     1       4.189  -0.923  -6.417  0.00  0.00    +0.021 C 
ATOM      4  C   UNL     1       5.011  -1.391  -5.190  0.00  0.00    +0.110 C 
ATOM      5  N   UNL     1       4.088  -2.249  -4.424  0.00  0.00    -0.279 N 
ATOM      6  C   UNL     1       4.452  -3.222  -3.564  0.00  0.00    +0.303 C 
ATOM      7  O   UNL     1       3.602  -3.870  -2.985  0.00  0.00    -0.253 OA
ATOM      8  N   UNL     1       5.757  -3.477  -3.348  0.00  0.00    -0.296 N 
ATOM      9  H   UNL     1       6.436  -2.960  -3.810  0.00  0.00    +0.151 HD
ENDROOT
BRANCH   1  13
ATOM     10  C   UNL     1       0.707  -0.490  -1.238  0.00  0.00    -0.042 A 
ATOM     11  C   UNL     1       0.036  -1.284  -2.148  0.00  0.00    +0.004 A 
ATOM     12  C   UNL     1       0.683  -1.730  -3.286  0.00  0.00    +0.006 A 
ATOM     13  C   UNL     1       2.001  -1.381  -3.513  0.00  0.00    -0.027 A 
ATOM     14  C   UNL     1       2.672  -0.586  -2.603  0.00  0.00    +0.006 A 
ATOM     15  C   UNL     1       2.024  -0.137  -1.467  0.00  0.00    +0.004 A 
BRANCH  10  17
ATOM     16  C   UNL     1      -0.019   1.526   0.010  0.00  0.00    +0.015 C 
ATOM     17  C   UNL     1       0.002  -0.004   0.002  0.00  0.00    -0.013 C 
ATOM     18  C   UNL     1       0.742  -0.511   1.242  0.00  0.00    +0.015 C 
ATOM     19  C   UNL     1      -1.433  -0.534   0.013  0.00  0.00    +0.015 C 
ENDBRANCH  10  17
ENDBRANCH   1  13
BRANCH   8  20
ATOM     20  C   UNL     1       6.152  -4.534  -2.414  0.00  0.00    +0.074 C 
ATOM     21  C   UNL     1       6.176  -3.974  -0.990  0.00  0.00    +0.023 C 
ATOM     22  C   UNL     1       6.588  -5.079  -0.015  0.00  0.00    +0.014 C 
ATOM     23  C   UNL     1       7.981  -5.591  -0.384  0.00  0.00    +0.075 C 
ATOM     24  C   UNL     1       7.958  -6.151  -1.808  0.00  0.00    +0.014 C 
ATOM     25  C   UNL     1       7.545  -5.047  -2.783  0.00  0.00    +0.023 C 
BRANCH  23  26
ATOM     26  C   UNL     1       8.388  -6.679   0.577  0.00  0.00    +0.216 C 
ATOM     27  O   UNL     1       7.637  -7.011   1.469  0.00  0.00    -0.276 OA
ATOM     28  N   UNL     1       9.585  -7.283   0.444  0.00  0.00    -0.318 N 
ATOM     29  C   UNL     1       9.980  -8.340   1.378  0.00  0.00    +0.128 C 
ATOM     30  H   UNL     1      10.186  -7.017  -0.270  0.00  0.00    +0.148 HD
ENDBRANCH  23  26
ENDBRANCH   8  20
TORSDOF 4
