REMARK  Name = ZINC52910029
REMARK  11 active torsions:
REMARK  status: ('A' for Active; 'I' for Inactive)
REMARK    1  A    between atoms: C_1  and  C_2
REMARK    2  A    between atoms: C_2  and  C_4
REMARK    3  A    between atoms: C_2  and  N_13
REMARK    4  A    between atoms: N_9  and  C_10
REMARK    5  A    between atoms: C_10  and  C_11
REMARK    6  A    between atoms: C_16  and  N_19
REMARK    7  A    between atoms: C_20  and  O_22
REMARK    8  A    between atoms: O_22  and  C_23
REMARK    9  A    between atoms: C_23  and  C_24
REMARK   10  A    between atoms: C_23  and  C_25
REMARK   11  A    between atoms: C_23  and  C_26
REMARK                            x       y       z     vdW  Elec       q    Type
REMARK                         _______ _______ _______ _____ _____    ______ ____
ROOT
ATOM      1  N   UNL     1       1.037  -0.553  -0.884  0.00  0.00    -0.292 NA
ATOM      2  C   UNL     1       1.021  -2.021  -0.866  0.00  0.00    +0.087 C 
ATOM      3  C   UNL     1       2.200  -2.556  -1.682  0.00  0.00    +0.038 C 
ATOM      4  C   UNL     1       2.093  -2.043  -3.121  0.00  0.00    +0.079 C 
ATOM      5  C   UNL     1       2.063  -0.512  -3.108  0.00  0.00    +0.038 C 
ATOM      6  C   UNL     1       0.888  -0.037  -2.251  0.00  0.00    +0.087 C 
ENDROOT
BRANCH   4   7
ATOM      7  N   UNL     1       3.250  -2.504  -3.893  0.00  0.00    -0.278 N 
ATOM      8  C   UNL     1       3.160  -2.630  -5.231  0.00  0.00    +0.401 C 
ATOM      9  O   UNL     1       2.120  -2.361  -5.799  0.00  0.00    -0.226 OA
ATOM     10  H   UNL     1       4.080  -2.719  -3.440  0.00  0.00    +0.152 HD
BRANCH   8  11
ATOM     11  O   UNL     1       4.224  -3.053  -5.940  0.00  0.00    -0.445 OA
BRANCH  11  12
ATOM     12  C   UNL     1       4.058  -3.163  -7.355  0.00  0.00    +0.107 C 
ATOM     13  C   UNL     1       3.697  -1.794  -7.934  0.00  0.00    +0.055 C 
ATOM     14  C   UNL     1       5.363  -3.655  -7.985  0.00  0.00    +0.055 C 
ATOM     15  C   UNL     1       2.937  -4.158  -7.662  0.00  0.00    +0.055 C 
ENDBRANCH  11  12
ENDBRANCH   8  11
ENDBRANCH   4   7
BRANCH   1  17
ATOM     16  C   UNL     1      -1.366  -0.131  -0.672  0.00  0.00    +0.034 C 
ATOM     17  C   UNL     1       0.002  -0.004   0.002  0.00  0.00    +0.140 C 
BRANCH  17  18
ATOM     18  C   UNL     1       0.294   1.449   0.276  0.00  0.00    +0.237 C 
ATOM     19  O   UNL     1       1.095   2.046  -0.410  0.00  0.00    -0.274 OA
ATOM     20  N   UNL     1      -0.335   2.084   1.285  0.00  0.00    -0.239 N 
ATOM     21  C   UNL     1      -0.073   3.383   1.530  0.00  0.00    +0.306 C 
ATOM     22  O   UNL     1       0.730   3.982   0.842  0.00  0.00    -0.252 OA
ATOM     23  N   UNL     1      -0.702   4.018   2.539  0.00  0.00    -0.296 N 
ATOM     24  H   UNL     1      -0.975   1.606   1.835  0.00  0.00    +0.159 HD
ATOM     25  H   UNL     1      -1.343   3.540   3.089  0.00  0.00    +0.151 HD
BRANCH  23  26
ATOM     26  C   UNL     1      -0.418   5.430   2.806  0.00  0.00    +0.132 C 
BRANCH  26  27
ATOM     27  C   UNL     1      -1.245   5.897   3.976  0.00  0.00    -0.016 C 
ATOM     28  C   UNL     1      -0.662   6.447   5.012  0.00  0.00    +0.005 C 
ENDBRANCH  26  27
ENDBRANCH  23  26
ENDBRANCH  17  18
ENDBRANCH   1  17
TORSDOF 7
