REMARK  Name = ZINC13591210
REMARK  13 active torsions:
REMARK  status: ('A' for Active; 'I' for Inactive)
REMARK    1  A    between atoms: C_1  and  C_2
REMARK    2  A    between atoms: C_2  and  C_3
REMARK    3  A    between atoms: C_3  and  C_4
REMARK    4  A    between atoms: C_4  and  C_5
REMARK    5  A    between atoms: C_5  and  C_7
REMARK    6  A    between atoms: C_5  and  N_27
REMARK    7  A    between atoms: C_7  and  O_9
REMARK    8  A    between atoms: O_9  and  C_10
REMARK    9  A    between atoms: C_12  and  O_26
REMARK   10  A    between atoms: C_18  and  C_25
REMARK   11  A    between atoms: N_27  and  S_28
REMARK   12  A    between atoms: S_28  and  C_31
REMARK   13  A    between atoms: C_34  and  C_37
REMARK                            x       y       z     vdW  Elec       q    Type
REMARK                         _______ _______ _______ _____ _____    ______ ____
ROOT
ATOM      1  C   UNL     1       3.296  10.178   0.063  0.00  0.00    +0.331 C 
ATOM      2  O   UNL     1       4.455   9.842   0.005  0.00  0.00    -0.249 OA
ENDROOT
BRANCH   1   3
ATOM      3  C   UNL     1       2.942  11.622   0.313  0.00  0.00    +0.185 C 
BRANCH   3   4
ATOM      4  N   UNL     1       4.170  12.409   0.449  0.00  0.00    -0.176 NA
ATOM      5  H   UNL     1       4.767  12.512  -0.309  0.00  0.00    +0.149 HD
BRANCH   4   6
ATOM      6  S   UNL     1       4.540  13.123   1.896  0.00  0.00    +0.059 S 
ATOM      7  O   UNL     1       5.813  13.733   1.735  0.00  0.00    -0.153 OA
ATOM      8  O   UNL     1       3.389  13.856   2.293  0.00  0.00    -0.153 OA
BRANCH   6   9
ATOM      9  C   UNL     1       4.746  11.832   3.077  0.00  0.00    +0.105 A 
ATOM     10  C   UNL     1       3.663  11.389   3.812  0.00  0.00    +0.029 A 
ATOM     11  C   UNL     1       3.824  10.372   4.736  0.00  0.00    +0.005 A 
ATOM     12  C   UNL     1       5.070   9.806   4.930  0.00  0.00    -0.050 A 
ATOM     13  C   UNL     1       6.154  10.253   4.198  0.00  0.00    +0.005 A 
ATOM     14  C   UNL     1       5.992  11.266   3.272  0.00  0.00    +0.029 A 
ATOM     15  C   UNL     1       5.247   8.702   5.940  0.00  0.00    +0.044 C 
ENDBRANCH   6   9
ENDBRANCH   4   6
ENDBRANCH   3   4
BRANCH   3  16
ATOM     16  C   UNL     1       2.122  12.156  -0.863  0.00  0.00    +0.032 C 
BRANCH  16  17
ATOM     17  C   UNL     1       1.669  13.586  -0.560  0.00  0.00    +0.002 C 
BRANCH  17  19
ATOM     18  C   UNL     1       0.293  15.506  -1.375  0.00  0.00    +0.004 C 
ATOM     19  C   UNL     1       0.746  14.076  -1.677  0.00  0.00    -0.003 C 
ENDBRANCH  17  19
ENDBRANCH  16  17
ENDBRANCH   3  16
ENDBRANCH   1   3
BRANCH   1  20
ATOM     20  O   UNL     1       2.323   9.266  -0.094  0.00  0.00    -0.424 OA
BRANCH  20  21
ATOM     21  C   UNL     1       2.706   7.968  -0.199  0.00  0.00    +0.139 A 
ATOM     22  C   UNL     1       3.218   7.310   0.913  0.00  0.00    +0.092 A 
ATOM     23  C   UNL     1       3.610   5.987   0.816  0.00  0.00    +0.135 A 
ATOM     24  C   UNL     1       3.488   5.319  -0.410  0.00  0.00    +0.106 A 
ATOM     25  C   UNL     1       2.971   5.985  -1.535  0.00  0.00    +0.146 A 
ATOM     26  C   UNL     1       2.583   7.312  -1.414  0.00  0.00    +0.093 A 
ATOM     27  O   UNL     1       2.848   5.354  -2.721  0.00  0.00    -0.454 OA
ATOM     28  C   UNL     1       3.201   4.069  -2.921  0.00  0.00    +0.142 A 
ATOM     29  C   UNL     1       3.042   3.492  -4.177  0.00  0.00    -0.007 A 
ATOM     30  C   UNL     1       3.405   2.179  -4.387  0.00  0.00    +0.007 A 
ATOM     31  C   UNL     1       3.924   1.414  -3.353  0.00  0.00    +0.001 A 
ATOM     32  C   UNL     1       4.091   1.965  -2.101  0.00  0.00    +0.015 A 
ATOM     33  C   UNL     1       3.731   3.294  -1.878  0.00  0.00    +0.065 A 
ATOM     34  C   UNL     1       3.898   3.911  -0.545  0.00  0.00    +0.204 A 
ATOM     35  O   UNL     1       4.352   3.285   0.395  0.00  0.00    -0.286 OA
ATOM     36  C   UNL     1       2.476   4.306  -5.312  0.00  0.00    +0.047 C 
BRANCH  23  37
ATOM     37  O   UNL     1       4.109   5.341   1.899  0.00  0.00    -0.506 OA
ATOM     38  H   UNL     1       5.069   5.412   1.991  0.00  0.00    +0.292 HD
ENDBRANCH  23  37
ENDBRANCH  20  21
ENDBRANCH   1  20
TORSDOF 10
