REMARK  Name = ZINC24716856
REMARK  10 active torsions:
REMARK  status: ('A' for Active; 'I' for Inactive)
REMARK    1  A    between atoms: C_1  and  O_2
REMARK    2  A    between atoms: O_2  and  C_3
REMARK    3  A    between atoms: C_6  and  C_9
REMARK    4  A    between atoms: C_18  and  C_20
REMARK    5  A    between atoms: C_20  and  N_21
REMARK    6  A    between atoms: C_25  and  C_27
REMARK    7  A    between atoms: C_29  and  O_35
REMARK    8  A    between atoms: C_32  and  O_33
REMARK    9  A    between atoms: O_33  and  C_34
REMARK   10  A    between atoms: O_35  and  C_36
REMARK                            x       y       z     vdW  Elec       q    Type
REMARK                         _______ _______ _______ _____ _____    ______ ____
ROOT
ATOM      1  C   UNL     1      -6.224   6.592   3.693  0.00  0.00    +0.022 A 
ATOM      2  C   UNL     1      -5.471   5.545   4.139  0.00  0.00    +0.044 A 
ATOM      3  C   UNL     1      -4.132   5.745   4.483  0.00  0.00    +0.086 A 
ATOM      4  C   UNL     1      -3.655   7.060   4.334  0.00  0.00    +0.102 A 
ATOM      5  S   UNL     1      -5.066   7.950   3.732  0.00  0.00    -0.081 S 
ATOM      6  C   UNL     1      -2.336   7.393   4.642  0.00  0.00    +0.266 A 
ATOM      7  O   UNL     1      -1.931   8.536   4.510  0.00  0.00    -0.267 OA
ATOM      8  N   UNL     1      -1.519   6.413   5.097  0.00  0.00    -0.311 N 
ATOM      9  H   UNL     1      -0.475   6.644   5.358  0.00  0.00    +0.170 HD
ATOM     10  C   UNL     1      -2.002   5.149   5.228  0.00  0.00    +0.094 A 
ATOM     11  N   UNL     1      -3.222   4.824   4.946  0.00  0.00    -0.235 NA
ENDROOT
BRANCH   1  15
ATOM     12  C   UNL     1     -10.304   6.615   2.508  0.00  0.00    +0.120 A 
ATOM     13  C   UNL     1      -9.564   7.790   2.467  0.00  0.00    +0.046 A 
ATOM     14  C   UNL     1      -8.240   7.786   2.850  0.00  0.00    +0.012 A 
ATOM     15  C   UNL     1      -7.643   6.600   3.281  0.00  0.00    -0.011 A 
ATOM     16  C   UNL     1      -8.389   5.420   3.317  0.00  0.00    +0.012 A 
ATOM     17  C   UNL     1      -9.714   5.433   2.937  0.00  0.00    +0.046 A 
BRANCH  12  19
ATOM     18  C   UNL     1     -12.311   5.380   2.197  0.00  0.00    +0.277 C 
ATOM     19  O   UNL     1     -11.608   6.623   2.129  0.00  0.00    -0.495 OA
ENDBRANCH  12  19
ENDBRANCH   1  15
BRANCH  10  20
ATOM     20  C   UNL     1      -1.072   4.075   5.730  0.00  0.00    -0.002 C 
BRANCH  20  21
ATOM     21  N   UNL     1      -1.792   2.797   5.801  0.00  0.00    +0.389 N 
ATOM     22  C   UNL     1      -2.722   2.773   6.959  0.00  0.00    -0.077 C 
ATOM     23  C   UNL     1      -2.975   1.274   7.224  0.00  0.00    -0.020 C 
ATOM     24  C   UNL     1      -1.748   0.549   6.632  0.00  0.00    -0.012 C 
ATOM     25  C   UNL     1      -0.857   1.672   6.060  0.00  0.00    -0.033 C 
ATOM     26  H   UNL     1      -2.312   2.704   4.836  0.00  0.00    -0.080 HD
BRANCH  25  27
ATOM     27  C   UNL     1      -0.206   1.224   4.777  0.00  0.00    -0.016 A 
ATOM     28  C   UNL     1      -0.747   1.595   3.561  0.00  0.00    +0.051 A 
ATOM     29  C   UNL     1      -0.148   1.182   2.380  0.00  0.00    +0.121 A 
ATOM     30  C   UNL     1       0.991   0.392   2.420  0.00  0.00    +0.049 A 
ATOM     31  C   UNL     1       1.536   0.026   3.635  0.00  0.00    +0.049 A 
ATOM     32  C   UNL     1       0.937   0.439   4.816  0.00  0.00    +0.122 A 
BRANCH  32  33
ATOM     33  O   UNL     1       1.470   0.074   6.013  0.00  0.00    -0.495 OA
ATOM     34  C   UNL     1       2.647  -0.735   5.979  0.00  0.00    +0.277 C 
ENDBRANCH  32  33
BRANCH  29  35
ATOM     35  O   UNL     1      -0.682   1.547   1.184  0.00  0.00    -0.495 OA
ATOM     36  C   UNL     1      -0.013   1.086   0.008  0.00  0.00    +0.277 C 
ENDBRANCH  29  35
ENDBRANCH  25  27
ENDBRANCH  20  21
ENDBRANCH  10  20
TORSDOF 7
