REMARK  Name = ZINC21154561
REMARK  5 active torsions:
REMARK  status: ('A' for Active; 'I' for Inactive)
REMARK    1  A    between atoms: C_1  and  C_2
REMARK    2  A    between atoms: C_12  and  S_15
REMARK    3  A    between atoms: S_15  and  N_18
REMARK    4  A    between atoms: C_22  and  C_25
REMARK    5  A    between atoms: C_25  and  N_26
REMARK                            x       y       z     vdW  Elec       q    Type
REMARK                         _______ _______ _______ _____ _____    ______ ____
ROOT
ATOM      1  N   UNL     1       2.130   1.465  -1.145  0.00  0.00    -0.176 NA
ATOM      2  C   UNL     1       1.420   2.052  -0.001  0.00  0.00    +0.109 C 
ATOM      3  C   UNL     1      -0.019   1.526   0.010  0.00  0.00    +0.017 C 
ATOM      4  C   UNL     1       0.002  -0.004   0.002  0.00  0.00    +0.004 C 
ATOM      5  C   UNL     1       0.688  -0.500  -1.273  0.00  0.00    -0.012 C 
ATOM      6  C   UNL     1       2.135   0.004  -1.299  0.00  0.00    +0.111 C 
ENDROOT
BRANCH   1   7
ATOM      7  S   UNL     1       2.910   2.431  -2.240  0.00  0.00    +0.061 S 
ATOM      8  O   UNL     1       3.209   3.647  -1.569  0.00  0.00    -0.153 OA
ATOM      9  O   UNL     1       3.914   1.629  -2.847  0.00  0.00    -0.153 OA
BRANCH   7  21
ATOM     10  C   UNL     1       2.709   2.238  -7.606  0.00  0.00    +0.109 C 
ATOM     11  C   UNL     1       1.478   1.370  -7.670  0.00  0.00    +0.217 C 
ATOM     12  O   UNL     1       1.321   0.609  -8.601  0.00  0.00    -0.276 OA
ATOM     13  N   UNL     1       0.553   1.440  -6.692  0.00  0.00    -0.270 N 
ATOM     14  C   UNL     1      -0.654   0.601  -6.736  0.00  0.00    +0.114 C 
ATOM     15  C   UNL     1      -1.775   1.289  -7.470  0.00  0.00    +0.030 C 
ATOM     16  C   UNL     1      -2.352   2.514  -6.778  0.00  0.00    +0.076 C 
ATOM     17  S   UNL     1      -1.151   3.877  -6.817  0.00  0.00    -0.123 S 
ATOM     18  C   UNL     1      -0.048   3.464  -5.486  0.00  0.00    +0.029 A 
ATOM     19  C   UNL     1       0.718   2.313  -5.609  0.00  0.00    +0.051 A 
ATOM     20  C   UNL     1       1.643   2.010  -4.616  0.00  0.00    +0.053 A 
ATOM     21  C   UNL     1       1.749   2.827  -3.505  0.00  0.00    +0.107 A 
ATOM     22  C   UNL     1       0.959   3.955  -3.379  0.00  0.00    +0.030 A 
ATOM     23  C   UNL     1       0.059   4.284  -4.380  0.00  0.00    +0.018 A 
ENDBRANCH   7  21
ENDBRANCH   1   7
BRANCH   5  24
ATOM     24  C   UNL     1       0.679  -2.029  -1.296  0.00  0.00    -0.074 C 
BRANCH  24  25
ATOM     25  N   UNL     1      -0.706  -2.510  -1.389  0.00  0.00    +0.383 N 
ATOM     26  C   UNL     1      -0.773  -3.967  -1.198  0.00  0.00    -0.074 C 
ATOM     27  C   UNL     1      -2.228  -4.356  -0.938  0.00  0.00    +0.017 C 
ATOM     28  C   UNL     1      -3.118  -3.756  -1.995  0.00  0.00    -0.048 A 
ATOM     29  C   UNL     1      -4.399  -4.264  -2.149  0.00  0.00    +0.004 A 
ATOM     30  C   UNL     1      -5.249  -3.737  -3.100  0.00  0.00    +0.000 A 
ATOM     31  C   UNL     1      -4.822  -2.696  -3.903  0.00  0.00    +0.000 A 
ATOM     32  C   UNL     1      -3.546  -2.190  -3.752  0.00  0.00    +0.002 A 
ATOM     33  C   UNL     1      -2.690  -2.720  -2.798  0.00  0.00    -0.061 A 
ATOM     34  C   UNL     1      -1.306  -2.138  -2.674  0.00  0.00    -0.043 C 
ATOM     35  H   UNL     1      -1.282  -2.025  -0.587  0.00  0.00    -0.081 HD
ENDBRANCH  24  25
ENDBRANCH   5  24
TORSDOF 4
