REMARK  Name = ZINC35745668
REMARK  10 active torsions:
REMARK  status: ('A' for Active; 'I' for Inactive)
REMARK    1  A    between atoms: C_1  and  C_2
REMARK    2  A    between atoms: C_2  and  C_3
REMARK    3  A    between atoms: C_3  and  C_4
REMARK    4  A    between atoms: C_4  and  C_6
REMARK    5  A    between atoms: C_4  and  O_32
REMARK    6  A    between atoms: C_6  and  N_7
REMARK    7  A    between atoms: N_7  and  C_8
REMARK    8  A    between atoms: N_7  and  C_26
REMARK    9  A    between atoms: C_8  and  C_9
REMARK   10  A    between atoms: C_15  and  C_20
REMARK                            x       y       z     vdW  Elec       q    Type
REMARK                         _______ _______ _______ _____ _____    ______ ____
ROOT
ATOM      1  C   UNL     1      -3.410  -5.619  -2.136  0.00  0.00    +0.094 A 
ATOM      2  N   UNL     1      -4.253  -6.025  -3.120  0.00  0.00    -0.312 N 
ATOM      3  H   UNL     1      -5.135  -5.627  -3.185  0.00  0.00    +0.170 HD
ATOM      4  C   UNL     1      -3.888  -6.969  -4.007  0.00  0.00    +0.260 A 
ATOM      5  O   UNL     1      -4.656  -7.322  -4.885  0.00  0.00    -0.267 OA
ATOM      6  C   UNL     1      -2.585  -7.551  -3.904  0.00  0.00    +0.080 A 
ATOM      7  C   UNL     1      -1.964  -8.578  -4.734  0.00  0.00    +0.004 A 
ATOM      8  C   UNL     1      -0.703  -8.977  -4.442  0.00  0.00    +0.056 A 
ATOM      9  S   UNL     1      -0.275  -7.987  -3.023  0.00  0.00    -0.076 S 
ATOM     10  C   UNL     1      -1.784  -7.069  -2.856  0.00  0.00    +0.116 A 
ATOM     11  N   UNL     1      -2.213  -6.127  -2.020  0.00  0.00    -0.229 NA
ENDROOT
BRANCH   7  12
ATOM     12  C   UNL     1      -2.700  -9.173  -5.875  0.00  0.00    -0.017 A 
ATOM     13  C   UNL     1      -3.997  -9.654  -5.697  0.00  0.00    +0.008 A 
ATOM     14  C   UNL     1      -4.677 -10.206  -6.763  0.00  0.00    +0.001 A 
ATOM     15  C   UNL     1      -4.074 -10.284  -8.006  0.00  0.00    +0.000 A 
ATOM     16  C   UNL     1      -2.788  -9.808  -8.188  0.00  0.00    +0.001 A 
ATOM     17  C   UNL     1      -2.100  -9.249  -7.131  0.00  0.00    +0.008 A 
ENDBRANCH   7  12
BRANCH   1  18
ATOM     18  C   UNL     1      -3.861  -4.558  -1.165  0.00  0.00    -0.003 C 
BRANCH  18  19
ATOM     19  N   UNL     1      -2.860  -4.410  -0.101  0.00  0.00    +0.388 N 
ATOM     20  H   UNL     1      -1.935  -4.497  -0.495  0.00  0.00    -0.081 HD
BRANCH  19  21
ATOM     21  C   UNL     1      -3.061  -5.456   0.910  0.00  0.00    -0.068 C 
ATOM     22  C   UNL     1      -4.441  -5.289   1.549  0.00  0.00    -0.015 C 
ATOM     23  C   UNL     1      -4.652  -6.379   2.602  0.00  0.00    -0.002 C 
ATOM     24  C   UNL     1      -4.560  -7.754   1.938  0.00  0.00    -0.000 C 
ATOM     25  C   UNL     1      -3.180  -7.921   1.299  0.00  0.00    -0.002 C 
ATOM     26  C   UNL     1      -2.970  -6.832   0.246  0.00  0.00    -0.015 C 
ENDBRANCH  19  21
BRANCH  19  27
ATOM     27  C   UNL     1      -3.003  -3.089   0.526  0.00  0.00    -0.046 C 
BRANCH  27  28
ATOM     28  C   UNL     1      -1.859  -2.868   1.517  0.00  0.00    +0.098 C 
BRANCH  28  29
ATOM     29  O   UNL     1      -2.013  -3.753   2.628  0.00  0.00    -0.394 OA
ATOM     30  H   UNL     1      -2.869  -3.681   3.072  0.00  0.00    +0.210 HD
ENDBRANCH  28  29
BRANCH  28  31
ATOM     31  C   UNL     1      -1.884  -1.420   2.011  0.00  0.00    +0.029 C 
BRANCH  31  33
ATOM     32  C   UNL     1      -0.694   0.283   3.399  0.00  0.00    +0.004 C 
ATOM     33  C   UNL     1      -0.669  -1.165   2.905  0.00  0.00    -0.001 C 
ENDBRANCH  31  33
ENDBRANCH  28  31
ENDBRANCH  27  28
ENDBRANCH  19  27
ENDBRANCH  18  19
ENDBRANCH   1  18
TORSDOF 9
