REMARK  Name = ZINC38777335
REMARK  6 active torsions:
REMARK  status: ('A' for Active; 'I' for Inactive)
REMARK    1  A    between atoms: C_3  and  N_40
REMARK    2  A    between atoms: C_11  and  C_14
REMARK    3  A    between atoms: N_16  and  C_17
REMARK    4  A    between atoms: N_16  and  C_28
REMARK    5  A    between atoms: C_17  and  C_18
REMARK    6  A    between atoms: C_28  and  C_29
REMARK                            x       y       z     vdW  Elec       q    Type
REMARK                         _______ _______ _______ _____ _____    ______ ____
ROOT
ATOM      1  C   UNL     1       3.226  -3.059   2.087  0.00  0.00    +0.231 C 
ATOM      2  O   UNL     1       3.408  -2.567   0.993  0.00  0.00    -0.274 OA
ATOM      3  N   UNL     1       3.877  -4.186   2.435  0.00  0.00    -0.292 N 
ENDROOT
BRANCH   1  11
ATOM      4  C   UNL     1       0.059   1.625   1.242  0.00  0.00    -0.002 C 
ATOM      5  C   UNL     1      -0.968   0.829   0.973  0.00  0.00    +0.006 C 
ATOM      6  C   UNL     1      -0.994  -0.593   1.477  0.00  0.00    +0.209 C 
ATOM      7  C   UNL     1       0.420  -1.167   1.427  0.00  0.00    +0.108 C 
ATOM      8  C   UNL     1       1.357  -0.198   2.149  0.00  0.00    -0.035 C 
ATOM      9  C   UNL     1       1.199   1.128   2.031  0.00  0.00    +0.002 C 
ATOM     10  C   UNL     1       2.389  -0.868   3.004  0.00  0.00    +0.129 C 
ATOM     11  C   UNL     1       2.273  -2.409   3.056  0.00  0.00    +0.155 C 
ATOM     12  S   UNL     1       0.513  -2.656   2.509  0.00  0.00    -0.136 S 
ATOM     13 CL   UNL     1       4.023  -0.443   2.370  0.00  0.00    -0.115 Cl
BRANCH   6  14
ATOM     14  N   UNL     1      -1.486  -0.615   2.857  0.00  0.00    +0.031 N 
ATOM     15  O   UNL     1      -2.485  -1.237   3.132  0.00  0.00    -0.131 OA
ATOM     16  O   UNL     1      -0.892  -0.011   3.720  0.00  0.00    -0.131 OA
ENDBRANCH   6  14
ENDBRANCH   1  11
BRANCH   3  17
ATOM     17  C   UNL     1       4.887  -4.756   1.540  0.00  0.00    +0.143 C 
BRANCH  17  18
ATOM     18  C   UNL     1       6.254  -4.279   1.956  0.00  0.00    -0.025 C 
ATOM     19  C   UNL     1       7.059  -5.000   2.793  0.00  0.00    +0.005 C 
ATOM     20  C   UNL     1       8.398  -4.517   3.117  0.00  0.00    -0.002 C 
ATOM     21  C   UNL     1       8.789  -3.256   2.896  0.00  0.00    +0.004 C 
ATOM     22  C   UNL     1       7.801  -2.276   2.341  0.00  0.00    +0.158 C 
ATOM     23  C   UNL     1       6.797  -3.061   1.508  0.00  0.00    -0.013 C 
ATOM     24  C   UNL     1       6.650  -2.356   0.374  0.00  0.00    +0.025 C 
ATOM     25  C   UNL     1       7.648  -1.358   0.312  0.00  0.00    +0.106 C 
ATOM     26  N   UNL     1       8.351  -1.296   1.416  0.00  0.00    -0.279 NA
ENDBRANCH  17  18
ENDBRANCH   3  17
BRANCH   3  27
ATOM     27  C   UNL     1       3.574  -4.843   3.709  0.00  0.00    +0.143 C 
BRANCH  27  28
ATOM     28  C   UNL     1       2.601  -5.969   3.475  0.00  0.00    -0.025 C 
ATOM     29  C   UNL     1       3.007  -7.258   3.268  0.00  0.00    +0.005 C 
ATOM     30  C   UNL     1       2.018  -8.320   3.105  0.00  0.00    -0.002 C 
ATOM     31  C   UNL     1       0.730  -8.078   2.837  0.00  0.00    +0.004 C 
ATOM     32  C   UNL     1       0.282  -6.661   2.641  0.00  0.00    +0.158 C 
ATOM     33  C   UNL     1       1.208  -5.772   3.459  0.00  0.00    -0.013 C 
ATOM     34  C   UNL     1       0.400  -4.906   4.092  0.00  0.00    +0.025 C 
ATOM     35  C   UNL     1      -0.941  -5.330   3.951  0.00  0.00    +0.106 C 
ATOM     36  N   UNL     1      -1.050  -6.356   3.143  0.00  0.00    -0.279 NA
ENDBRANCH  27  28
ENDBRANCH   3  27
TORSDOF 6
