REMARK  Name = ZINC35488882
REMARK  4 active torsions:
REMARK  status: ('A' for Active; 'I' for Inactive)
REMARK    1  A    between atoms: C_1  and  N_2
REMARK    2  A    between atoms: C_4  and  C_29
REMARK    3  A    between atoms: C_6  and  C_18
REMARK    4  A    between atoms: C_18  and  C_20
REMARK                            x       y       z     vdW  Elec       q    Type
REMARK                         _______ _______ _______ _____ _____    ______ ____
ROOT
ATOM      1  C   UNL     1       2.262   0.559   2.202  0.00  0.00    +0.106 C 
ATOM      2  N   UNL     1       1.550  -0.336   1.279  0.00  0.00    -0.287 NA
ATOM      3  C   UNL     1       0.283   0.277   0.818  0.00  0.00    +0.094 C 
ATOM      4  C   UNL     1      -0.696  -0.913   0.654  0.00  0.00    +0.046 C 
ATOM      5  C   UNL     1      -0.286  -1.825   1.842  0.00  0.00    +0.103 C 
ATOM      6  C   UNL     1       1.234  -1.614   1.926  0.00  0.00    +0.136 C 
ATOM      7  C   UNL     1       1.968  -2.755   1.274  0.00  0.00    +0.004 A 
ATOM      8  C   UNL     1       1.984  -3.258  -0.007  0.00  0.00    +0.008 A 
ATOM      9  C   UNL     1       2.781  -4.348  -0.312  0.00  0.00    +0.000 A 
ATOM     10  C   UNL     1       3.559  -4.929   0.673  0.00  0.00    +0.002 A 
ATOM     11  C   UNL     1       3.546  -4.427   1.958  0.00  0.00    +0.023 A 
ATOM     12  C   UNL     1       2.747  -3.330   2.273  0.00  0.00    +0.039 A 
ATOM     13  N   UNL     1       2.565  -2.650   3.479  0.00  0.00    -0.283 N 
ATOM     14  C   UNL     1       1.695  -1.631   3.361  0.00  0.00    +0.243 C 
ATOM     15  O   UNL     1       1.348  -0.871   4.240  0.00  0.00    -0.273 OA
ATOM     16  H   UNL     1       3.014  -2.886   4.306  0.00  0.00    +0.155 HD
ENDROOT
BRANCH   4  17
ATOM     17  C   UNL     1      -2.126  -0.458   0.789  0.00  0.00    -0.042 A 
ATOM     18  C   UNL     1      -2.414   0.734   1.427  0.00  0.00    +0.005 A 
ATOM     19  C   UNL     1      -3.725   1.152   1.552  0.00  0.00    +0.020 A 
ATOM     20  C   UNL     1      -4.750   0.377   1.039  0.00  0.00    +0.041 A 
ATOM     21  C   UNL     1      -4.461  -0.816   0.401  0.00  0.00    +0.020 A 
ATOM     22  C   UNL     1      -3.149  -1.230   0.271  0.00  0.00    +0.005 A 
ATOM     23 CL   UNL     1      -6.397   0.901   1.196  0.00  0.00    -0.084 Cl
ENDBRANCH   4  17
BRANCH   5  24
ATOM     24  C   UNL     1      -0.962  -1.380   3.114  0.00  0.00    +0.170 C 
ATOM     25  O   UNL     1      -1.109  -0.198   3.340  0.00  0.00    -0.292 OA
BRANCH  24  26
ATOM     26  C   UNL     1      -1.441  -2.378   4.079  0.00  0.00    +0.021 A 
ATOM     27  C   UNL     1      -1.267  -3.743   3.822  0.00  0.00    +0.015 A 
ATOM     28  C   UNL     1      -1.718  -4.676   4.728  0.00  0.00    +0.050 A 
ATOM     29  C   UNL     1      -2.346  -4.269   5.899  0.00  0.00    +0.166 A 
ATOM     30  C   UNL     1      -2.523  -2.909   6.161  0.00  0.00    +0.167 A 
ATOM     31  C   UNL     1      -2.069  -1.967   5.261  0.00  0.00    +0.061 A 
ATOM     32  O   UNL     1      -3.160  -2.777   7.362  0.00  0.00    -0.453 OA
ATOM     33  C   UNL     1      -3.734  -4.069   7.636  0.00  0.00    +0.466 C 
ATOM     34  O   UNL     1      -2.870  -4.983   6.934  0.00  0.00    -0.453 OA
ENDBRANCH  24  26
ENDBRANCH   5  24
TORSDOF 3
