REMARK  Name = ZINC62578586
REMARK  8 active torsions:
REMARK  status: ('A' for Active; 'I' for Inactive)
REMARK    1  A    between atoms: C_1  and  C_2
REMARK    2  A    between atoms: C_5  and  C_27
REMARK    3  A    between atoms: C_6  and  S_8
REMARK    4  A    between atoms: S_8  and  N_11
REMARK    5  A    between atoms: N_11  and  C_12
REMARK    6  A    between atoms: C_12  and  C_13
REMARK    7  A    between atoms: C_13  and  C_14
REMARK    8  A    between atoms: C_21  and  C_26
REMARK                            x       y       z     vdW  Elec       q    Type
REMARK                         _______ _______ _______ _____ _____    ______ ____
ROOT
ATOM      1  C   UNL     1      -1.316  -4.857   0.773  0.00  0.00    +0.110 C 
ENDROOT
BRANCH   1   2
ATOM      2  N   UNL     1      -1.394  -3.974   1.939  0.00  0.00    -0.190 NA
ATOM      3  H   UNL     1      -2.169  -4.006   2.521  0.00  0.00    +0.148 HD
BRANCH   2   4
ATOM      4  S   UNL     1      -0.158  -2.919   2.263  0.00  0.00    +0.059 S 
ATOM      5  O   UNL     1       1.048  -3.664   2.162  0.00  0.00    -0.153 OA
ATOM      6  O   UNL     1      -0.523  -2.216   3.442  0.00  0.00    -0.153 OA
BRANCH   4  12
ATOM      7  C   UNL     1       2.209  -0.603  -1.781  0.00  0.00    +0.044 C 
ATOM      8  C   UNL     1       1.002  -0.708  -0.885  0.00  0.00    -0.049 A 
ATOM      9  C   UNL     1      -0.083   0.125  -1.086  0.00  0.00    +0.004 A 
ATOM     10  C   UNL     1      -1.190   0.029  -0.265  0.00  0.00    +0.005 A 
ATOM     11  C   UNL     1      -1.213  -0.901   0.758  0.00  0.00    -0.024 A 
ATOM     12  C   UNL     1      -0.129  -1.735   0.959  0.00  0.00    +0.108 A 
ATOM     13  C   UNL     1       0.977  -1.641   0.134  0.00  0.00    +0.032 A 
ATOM     14  C   UNL     1      -2.420  -1.006   1.654  0.00  0.00    +0.046 C 
ENDBRANCH   4  12
ENDBRANCH   2   4
ENDBRANCH   1   2
BRANCH   1  15
ATOM     15  C   UNL     1      -2.381  -5.949   0.889  0.00  0.00    +0.052 C 
BRANCH  15  16
ATOM     16  C   UNL     1      -2.301  -6.858  -0.311  0.00  0.00    -0.045 A 
ATOM     17  C   UNL     1      -3.045  -6.567  -1.446  0.00  0.00    +0.006 A 
ATOM     18  C   UNL     1      -2.987  -7.384  -2.554  0.00  0.00    +0.026 A 
ATOM     19  C   UNL     1      -2.175  -8.513  -2.538  0.00  0.00    +0.049 A 
ATOM     20  C   UNL     1      -1.421  -8.805  -1.385  0.00  0.00    -0.001 A 
ATOM     21  C   UNL     1      -1.492  -7.959  -0.274  0.00  0.00    +0.013 A 
ATOM     22  C   UNL     1      -0.569  -9.996  -1.377  0.00  0.00    +0.018 A 
ATOM     23  C   UNL     1      -0.537 -10.777  -2.485  0.00  0.00    +0.014 A 
ATOM     24  C   UNL     1      -1.312 -10.439  -3.616  0.00  0.00    +0.252 A 
ATOM     25  O   UNL     1      -1.268 -11.154  -4.601  0.00  0.00    -0.268 OA
ATOM     26  N   UNL     1      -2.097  -9.348  -3.632  0.00  0.00    -0.322 N 
ATOM     27  H   UNL     1      -2.617  -9.145  -4.425  0.00  0.00    +0.169 HD
ATOM     28  C   UNL     1       0.329 -12.009  -2.510  0.00  0.00    +0.049 C 
ENDBRANCH  15  16
ENDBRANCH   1  15
TORSDOF 5
