REMARK  Name = ZINC14492838
REMARK  5 active torsions:
REMARK  status: ('A' for Active; 'I' for Inactive)
REMARK    1  A    between atoms: C_1  and  C_2
REMARK    2  A    between atoms: C_7  and  N_8
REMARK    3  A    between atoms: C_9  and  C_11
REMARK    4  A    between atoms: C_13  and  S_18
REMARK    5  A    between atoms: S_18  and  N_21
REMARK                            x       y       z     vdW  Elec       q    Type
REMARK                         _______ _______ _______ _____ _____    ______ ____
ROOT
ATOM      1  C   UNL     1      -0.017   1.392   0.025  0.00  0.00    +0.053 A 
ATOM      2  C   UNL     1       0.002  -0.005   0.025  0.00  0.00    +0.042 A 
ATOM      3  C   UNL     1       1.207  -0.675   0.021  0.00  0.00    +0.106 A 
ATOM      4  C   UNL     1       2.397   0.032   0.016  0.00  0.00    +0.029 A 
ATOM      5  C   UNL     1       2.387   1.415   0.016  0.00  0.00    +0.018 A 
ATOM      6  C   UNL     1       1.187   2.100   0.020  0.00  0.00    +0.030 A 
ATOM      7 BR   UNL     1       1.175   3.990   0.019  0.00  0.00    -0.050 Br
ENDROOT
BRANCH   1   9
ATOM      8  N   UNL     1      -2.464   1.430   0.021  0.00  0.00    -0.281 N 
ATOM      9  C   UNL     1      -1.304   2.117   0.023  0.00  0.00    +0.249 C 
ATOM     10  O   UNL     1      -1.317   3.332   0.022  0.00  0.00    -0.270 OA
ATOM     11  H   UNL     1      -2.456   0.464  -0.059  0.00  0.00    +0.155 HD
BRANCH   8  18
ATOM     12  C   UNL     1      -4.800   0.199  -1.038  0.00  0.00    +0.046 C 
ATOM     13  C   UNL     1      -4.845   1.547  -0.367  0.00  0.00    -0.028 A 
ATOM     14  C   UNL     1      -6.045   2.220  -0.248  0.00  0.00    +0.025 A 
ATOM     15  C   UNL     1      -6.086   3.461   0.363  0.00  0.00    +0.041 A 
ATOM     16  C   UNL     1      -4.926   4.029   0.862  0.00  0.00    +0.022 A 
ATOM     17  C   UNL     1      -3.724   3.358   0.750  0.00  0.00    +0.025 A 
ATOM     18  C   UNL     1      -3.680   2.112   0.137  0.00  0.00    +0.037 A 
ATOM     19 CL   UNL     1      -7.595   4.307   0.506  0.00  0.00    -0.084 Cl
ENDBRANCH   8  18
ENDBRANCH   1   9
BRANCH   3  20
ATOM     20  S   UNL     1       1.232  -2.437   0.021  0.00  0.00    +0.061 S 
ATOM     21  O   UNL     1       2.485  -2.825   0.567  0.00  0.00    -0.153 OA
ATOM     22  O   UNL     1      -0.006  -2.861   0.576  0.00  0.00    -0.153 OA
BRANCH  20  23
ATOM     23  N   UNL     1       1.234  -2.927  -1.561  0.00  0.00    -0.177 NA
ATOM     24  C   UNL     1       0.040  -3.203  -2.374  0.00  0.00    +0.109 C 
ATOM     25  C   UNL     1       0.528  -3.650  -3.768  0.00  0.00    +0.018 C 
ATOM     26  C   UNL     1       1.968  -4.152  -3.485  0.00  0.00    +0.018 C 
ATOM     27  C   UNL     1       2.432  -3.163  -2.386  0.00  0.00    +0.109 C 
ENDBRANCH  20  23
ENDBRANCH   3  20
TORSDOF 4
