REMARK  Name = ZINC08310783
REMARK  8 active torsions:
REMARK  status: ('A' for Active; 'I' for Inactive)
REMARK    1  A    between atoms: C_1  and  C_2
REMARK    2  A    between atoms: C_2  and  C_4
REMARK    3  A    between atoms: C_2  and  N_44
REMARK    4  A    between atoms: N_9  and  C_10
REMARK    5  A    between atoms: C_11  and  N_44
REMARK    6  A    between atoms: C_12  and  C_13
REMARK    7  A    between atoms: C_12  and  N_44
REMARK    8  A    between atoms: C_16  and  C_18
REMARK                            x       y       z     vdW  Elec       q    Type
REMARK                         _______ _______ _______ _____ _____    ______ ____
ROOT
ATOM      1  C   UNL     1       2.078  -0.122   1.243  0.00  0.00    -0.095 C 
ATOM      2  N   UNL     1       1.370  -0.564   0.023  0.00  0.00    +0.390 N 
ATOM      3  H   UNL     1       1.890  -0.237  -0.800  0.00  0.00    -0.081 HD
ENDROOT
BRANCH   2   5
ATOM      4  C   UNL     1      -0.894  -0.692   1.005  0.00  0.00    -0.004 C 
ATOM      5  C   UNL     1       0.009   0.012  -0.009  0.00  0.00    +0.017 C 
BRANCH   5   6
ATOM      6  C   UNL     1      -0.558  -0.162  -1.394  0.00  0.00    +0.207 C 
ATOM      7  O   UNL     1       0.054  -0.799  -2.224  0.00  0.00    -0.277 OA
ATOM      8  N   UNL     1      -1.749   0.386  -1.708  0.00  0.00    -0.242 N 
ATOM      9  C   UNL     1      -2.256   0.231  -2.947  0.00  0.00    +0.306 C 
ATOM     10  O   UNL     1      -1.641  -0.404  -3.780  0.00  0.00    -0.252 OA
ATOM     11  N   UNL     1      -3.447   0.778  -3.261  0.00  0.00    -0.302 N 
ATOM     12  C   UNL     1      -3.999   0.609  -4.607  0.00  0.00    +0.129 C 
ATOM     13  H   UNL     1      -2.240   0.893  -1.042  0.00  0.00    +0.159 HD
ATOM     14  H   UNL     1      -3.938   1.285  -2.595  0.00  0.00    +0.150 HD
ENDBRANCH   5   6
ENDBRANCH   2   5
BRANCH   2  15
ATOM     15  C   UNL     1       1.295  -2.039  -0.011  0.00  0.00    -0.002 C 
BRANCH  15  16
ATOM     16  C   UNL     1       2.684  -2.593  -0.200  0.00  0.00    +0.089 A 
ATOM     17  C   UNL     1       3.539  -2.924   0.787  0.00  0.00    +0.043 A 
ATOM     18  C   UNL     1       4.715  -3.399   0.173  0.00  0.00    +0.050 A 
ATOM     19  C   UNL     1       4.514  -3.323  -1.169  0.00  0.00    +0.135 A 
ATOM     20  O   UNL     1       3.277  -2.832  -1.381  0.00  0.00    -0.462 OA
BRANCH  19  21
ATOM     21  C   UNL     1       5.484  -3.711  -2.215  0.00  0.00    +0.017 A 
ATOM     22  C   UNL     1       6.740  -4.203  -1.857  0.00  0.00    +0.013 A 
ATOM     23  C   UNL     1       7.639  -4.567  -2.838  0.00  0.00    +0.021 A 
ATOM     24  C   UNL     1       7.301  -4.437  -4.175  0.00  0.00    +0.041 A 
ATOM     25  C   UNL     1       6.058  -3.946  -4.535  0.00  0.00    +0.021 A 
ATOM     26  C   UNL     1       5.149  -3.582  -3.564  0.00  0.00    +0.013 A 
ATOM     27 CL   UNL     1       8.441  -4.892  -5.403  0.00  0.00    -0.084 Cl
ENDBRANCH  19  21
ENDBRANCH  15  16
ENDBRANCH   2  15
TORSDOF 5
