REMARK  Name = ZINC05577556
REMARK  10 active torsions:
REMARK  status: ('A' for Active; 'I' for Inactive)
REMARK    1  A    between atoms: C_1  and  C_2
REMARK    2  A    between atoms: C_4  and  C_31
REMARK    3  A    between atoms: C_5  and  C_9
REMARK    4  A    between atoms: C_6  and  C_8
REMARK    5  A    between atoms: C_9  and  C_30
REMARK    6  A    between atoms: C_11  and  C_13
REMARK    7  A    between atoms: C_13  and  C_19
REMARK    8  A    between atoms: N_14  and  N_15
REMARK    9  A    between atoms: C_25  and  O_28
REMARK   10  A    between atoms: O_28  and  C_29
REMARK                            x       y       z     vdW  Elec       q    Type
REMARK                         _______ _______ _______ _____ _____    ______ ____
ROOT
ATOM      1  C   UNL     1      -4.714  -1.715  -0.445  0.00  0.00    +0.105 C 
ATOM      2  N   UNL     1      -5.400  -2.797  -0.665  0.00  0.00    -0.180 NA
ENDROOT
BRANCH   1   3
ATOM      3  C   UNL     1      -3.273  -1.800  -0.185  0.00  0.00    +0.152 A 
ATOM      4  C   UNL     1      -2.361  -0.846  -0.510  0.00  0.00    +0.059 A 
ATOM      5  C   UNL     1      -1.064  -1.357  -0.066  0.00  0.00    +0.024 A 
ATOM      6  C   UNL     1       0.243  -0.863  -0.107  0.00  0.00    +0.012 A 
ATOM      7  C   UNL     1       1.267  -1.606   0.409  0.00  0.00    +0.004 A 
ATOM      8  C   UNL     1       1.020  -2.848   0.975  0.00  0.00    +0.049 A 
ATOM      9  C   UNL     1      -0.266  -3.356   1.026  0.00  0.00    +0.163 A 
ATOM     10  C   UNL     1      -1.324  -2.617   0.500  0.00  0.00    +0.177 A 
ATOM     11  O   UNL     1      -2.652  -2.838   0.412  0.00  0.00    -0.450 OA
BRANCH   9  12
ATOM     12  O   UNL     1      -0.496  -4.575   1.582  0.00  0.00    -0.491 OA
ATOM     13  C   UNL     1       0.637  -5.279   2.095  0.00  0.00    +0.277 C 
ENDBRANCH   9  12
ENDBRANCH   1   3
BRANCH   2  14
ATOM     14  N   UNL     1      -4.744  -4.027  -0.798  0.00  0.00    -0.191 N 
ATOM     15  C   UNL     1      -5.453  -5.144  -1.059  0.00  0.00    +0.317 C 
ATOM     16  O   UNL     1      -4.883  -6.212  -1.174  0.00  0.00    -0.251 OA
ATOM     17  N   UNL     1      -6.792  -5.077  -1.191  0.00  0.00    -0.312 N 
ATOM     18  H   UNL     1      -3.780  -4.076  -0.703  0.00  0.00    +0.179 HD
ATOM     19  H   UNL     1      -7.247  -4.225  -1.098  0.00  0.00    +0.147 HD
ATOM     20  H   UNL     1      -7.302  -5.880  -1.378  0.00  0.00    +0.147 HD
ENDBRANCH   2  14
BRANCH   1  23
ATOM     21  C   UNL     1      -7.147   0.608   0.231  0.00  0.00    -0.005 C 
ATOM     22  C   UNL     1      -6.881  -0.441  -0.862  0.00  0.00    +0.021 C 
ATOM     23  C   UNL     1      -5.399  -0.372  -0.457  0.00  0.00    +0.045 C 
ATOM     24  C   UNL     1      -5.881   0.085   0.930  0.00  0.00    +0.021 C 
ATOM     25  C   UNL     1      -7.026   2.051  -0.262  0.00  0.00    +0.016 C 
BRANCH  21  30
ATOM     26  C   UNL     1     -12.002  -0.344   3.217  0.00  0.00    +0.044 C 
ATOM     27  C   UNL     1     -10.736  -0.095   2.438  0.00  0.00    -0.050 A 
ATOM     28  C   UNL     1      -9.662   0.528   3.046  0.00  0.00    +0.007 A 
ATOM     29  C   UNL     1      -8.500   0.755   2.331  0.00  0.00    -0.046 A 
ATOM     30  C   UNL     1      -8.413   0.360   1.010  0.00  0.00    -0.036 A 
ATOM     31  C   UNL     1      -9.489  -0.259   0.401  0.00  0.00    -0.046 A 
ATOM     32  C   UNL     1     -10.649  -0.491   1.117  0.00  0.00    +0.007 A 
ATOM     33  C   UNL     1      -9.396  -0.685  -1.042  0.00  0.00    +0.044 C 
ATOM     34  C   UNL     1      -7.330   1.435   2.993  0.00  0.00    +0.044 C 
ENDBRANCH  21  30
ENDBRANCH   1  23
TORSDOF 5
