REMARK  Name = ZINC03360318
REMARK  5 active torsions:
REMARK  status: ('A' for Active; 'I' for Inactive)
REMARK    1  A    between atoms: C_1  and  C_2
REMARK    2  A    between atoms: C_6  and  N_8
REMARK    3  A    between atoms: C_18  and  S_19
REMARK    4  A    between atoms: S_19  and  C_20
REMARK    5  A    between atoms: C_20  and  C_21
REMARK                            x       y       z     vdW  Elec       q    Type
REMARK                         _______ _______ _______ _____ _____    ______ ____
ROOT
ATOM      1  N   UNL     1       0.050  -2.798   2.394  0.00  0.00    -0.255 N 
ATOM      2  C   UNL     1       0.143  -2.127   3.565  0.00  0.00    +0.267 A 
ATOM      3  O   UNL     1       0.215  -0.912   3.592  0.00  0.00    -0.267 OA
ATOM      4  C   UNL     1       0.154  -2.918   4.803  0.00  0.00    +0.065 A 
ATOM      5  C   UNL     1       0.247  -2.320   6.059  0.00  0.00    +0.015 A 
ATOM      6  C   UNL     1       0.252  -3.103   7.180  0.00  0.00    +0.001 A 
ATOM      7  C   UNL     1       0.168  -4.486   7.080  0.00  0.00    +0.002 A 
ATOM      8  C   UNL     1       0.076  -5.098   5.862  0.00  0.00    +0.028 A 
ATOM      9  C   UNL     1       0.067  -4.325   4.697  0.00  0.00    +0.079 A 
ATOM     10  N   UNL     1      -0.022  -4.890   3.471  0.00  0.00    -0.223 NA
ATOM     11  C   UNL     1      -0.036  -4.163   2.381  0.00  0.00    +0.177 A 
ENDROOT
BRANCH   1  17
ATOM     12  C   UNL     1      -2.489  -0.510  -1.141  0.00  0.00    +0.044 C 
ATOM     13  C   UNL     1      -1.181  -0.968  -0.550  0.00  0.00    -0.048 A 
ATOM     14  C   UNL     1       0.007  -0.689  -1.201  0.00  0.00    +0.003 A 
ATOM     15  C   UNL     1       1.209  -1.108  -0.661  0.00  0.00    +0.002 A 
ATOM     16  C   UNL     1       1.226  -1.808   0.530  0.00  0.00    +0.026 A 
ATOM     17  C   UNL     1       0.035  -2.089   1.186  0.00  0.00    +0.052 A 
ATOM     18  C   UNL     1      -1.170  -1.661   0.644  0.00  0.00    +0.029 A 
ENDBRANCH   1  17
BRANCH  11  19
ATOM     19  S   UNL     1      -0.163  -4.982   0.826  0.00  0.00    -0.078 S 
BRANCH  19  20
ATOM     20  C   UNL     1      -0.251  -6.740   1.262  0.00  0.00    +0.173 C 
BRANCH  20  21
ATOM     21  C   UNL     1      -0.364  -7.564   0.005  0.00  0.00    +0.231 C 
ATOM     22  O   UNL     1      -0.383  -7.019  -1.078  0.00  0.00    -0.274 OA
ATOM     23  N   UNL     1      -0.444  -8.907   0.085  0.00  0.00    -0.260 N 
ATOM     24  C   UNL     1      -0.430  -9.593   1.386  0.00  0.00    +0.209 C 
ATOM     25  C   UNL     1       0.445 -10.816   1.287  0.00  0.00    +0.235 C 
ATOM     26  O   UNL     1       1.022 -11.221   2.275  0.00  0.00    -0.274 OA
ATOM     27  N   UNL     1       0.594 -11.465   0.117  0.00  0.00    -0.283 N 
ATOM     28  C   UNL     1      -0.021 -10.992  -1.047  0.00  0.00    +0.055 A 
ATOM     29  C   UNL     1      -0.549  -9.697  -1.071  0.00  0.00    +0.058 A 
ATOM     30  C   UNL     1      -1.159  -9.212  -2.214  0.00  0.00    +0.025 A 
ATOM     31  C   UNL     1      -1.251 -10.016  -3.337  0.00  0.00    +0.002 A 
ATOM     32  C   UNL     1      -0.737 -11.299  -3.317  0.00  0.00    +0.002 A 
ATOM     33  C   UNL     1      -0.115 -11.791  -2.175  0.00  0.00    +0.025 A 
ATOM     34  H   UNL     1       1.133 -12.271   0.081  0.00  0.00    +0.155 HD
ENDBRANCH  20  21
ENDBRANCH  19  20
ENDBRANCH  11  19
TORSDOF 4
