REMARK  Name = ZINC01148418
REMARK  5 active torsions:
REMARK  status: ('A' for Active; 'I' for Inactive)
REMARK    1  A    between atoms: C_1  and  C_2
REMARK    2  A    between atoms: C_2  and  C_3
REMARK    3  A    between atoms: C_6  and  C_9
REMARK    4  A    between atoms: N_11  and  C_12
REMARK    5  A    between atoms: C_12  and  N_14
REMARK                            x       y       z     vdW  Elec       q    Type
REMARK                         _______ _______ _______ _____ _____    ______ ____
ROOT
ATOM      1  C   UNL     1      -2.715   2.948   4.734  0.00  0.00    +0.250 C 
ATOM      2  O   UNL     1      -3.595   2.277   5.234  0.00  0.00    -0.270 OA
ATOM      3  N   UNL     1      -2.367   4.126   5.290  0.00  0.00    -0.264 N 
ATOM      4  H   UNL     1      -1.664   4.662   4.890  0.00  0.00    +0.157 HD
ENDROOT
BRANCH   1   8
ATOM      5  C   UNL     1      -0.735   1.586   1.232  0.00  0.00    -0.048 A 
ATOM      6  C   UNL     1      -0.371   2.792   1.803  0.00  0.00    +0.004 A 
ATOM      7  C   UNL     1      -1.014   3.243   2.938  0.00  0.00    +0.013 A 
ATOM      8  C   UNL     1      -2.026   2.474   3.516  0.00  0.00    +0.037 A 
ATOM      9  C   UNL     1      -2.383   1.255   2.937  0.00  0.00    +0.013 A 
ATOM     10  C   UNL     1      -1.736   0.818   1.800  0.00  0.00    +0.004 A 
BRANCH   5  12
ATOM     11  C   UNL     1      -0.775   1.613  -1.247  0.00  0.00    +0.009 C 
ATOM     12  C   UNL     1      -0.033   1.102  -0.011  0.00  0.00    +0.032 C 
ENDBRANCH   5  12
ENDBRANCH   1   8
BRANCH   3  13
ATOM     13  C   UNL     1      -2.995   4.559   6.401  0.00  0.00    +0.142 C 
ATOM     14  S   UNL     1      -4.236   3.612   7.106  0.00  0.00    -0.018 S 
BRANCH  13  15
ATOM     15  N   UNL     1      -2.647   5.736   6.956  0.00  0.00    -0.282 N 
ATOM     16  C   UNL     1      -3.369   6.235   8.039  0.00  0.00    +0.124 A 
ATOM     17  C   UNL     1      -3.074   7.499   8.539  0.00  0.00    +0.045 A 
ATOM     18  C   UNL     1      -3.801   7.986   9.610  0.00  0.00    +0.019 A 
ATOM     19  C   UNL     1      -4.795   7.183  10.155  0.00  0.00    +0.032 A 
ATOM     20  C   UNL     1      -5.030   5.935   9.612  0.00  0.00    +0.127 A 
ATOM     21  N   UNL     1      -4.324   5.500   8.586  0.00  0.00    -0.239 NA
ATOM     22  I   UNL     1      -5.927   7.858  11.784  0.00  0.00    -0.042 I 
ATOM     23  H   UNL     1      -1.895   6.236   6.603  0.00  0.00    +0.155 HD
ENDBRANCH  13  15
ENDBRANCH   3  13
TORSDOF 4
