REMARK  Name = ZINC40347750
REMARK  6 active torsions:
REMARK  status: ('A' for Active; 'I' for Inactive)
REMARK    1  A    between atoms: C_1  and  C_2
REMARK    2  A    between atoms: C_2  and  N_3
REMARK    3  A    between atoms: C_6  and  N_9
REMARK    4  A    between atoms: N_9  and  S_10
REMARK    5  A    between atoms: S_10  and  C_13
REMARK    6  A    between atoms: C_16  and  N_20
REMARK                            x       y       z     vdW  Elec       q    Type
REMARK                         _______ _______ _______ _____ _____    ______ ____
ROOT
ATOM      1  S   UNL     1      -5.455  -3.914  -1.695  0.00  0.00    +0.060 S 
ATOM      2  O   UNL     1      -6.860  -4.093  -1.587  0.00  0.00    -0.153 OA
ATOM      3  O   UNL     1      -4.796  -3.792  -2.949  0.00  0.00    -0.153 OA
ENDROOT
BRANCH   1   4
ATOM      4  C   UNL     1      -4.708  -5.276  -0.865  0.00  0.00    +0.119 A 
ATOM      5  C   UNL     1      -3.713  -6.005  -1.491  0.00  0.00    +0.031 A 
ATOM      6  C   UNL     1      -3.126  -7.074  -0.843  0.00  0.00    +0.025 A 
ATOM      7  C   UNL     1      -3.535  -7.417   0.440  0.00  0.00    +0.026 A 
ATOM      8  C   UNL     1      -4.533  -6.683   1.067  0.00  0.00    +0.040 A 
ATOM      9  C   UNL     1      -5.114  -5.611   0.415  0.00  0.00    +0.046 A 
ATOM     10 BR   UNL     1      -6.468  -4.606   1.270  0.00  0.00    -0.048 Br
BRANCH   7  11
ATOM     11  N   UNL     1      -2.943  -8.498   1.097  0.00  0.00    -0.358 N 
ATOM     12  H   UNL     1      -2.246  -9.010   0.658  0.00  0.00    +0.142 HD
ATOM     13  H   UNL     1      -3.229  -8.736   1.993  0.00  0.00    +0.142 HD
ENDBRANCH   7  11
ENDBRANCH   1   4
BRANCH   1  14
ATOM     14  N   UNL     1      -5.084  -2.550  -0.831  0.00  0.00    -0.187 NA
ATOM     15  H   UNL     1      -5.790  -2.038  -0.406  0.00  0.00    +0.148 HD
BRANCH  14  19
ATOM     16  N   UNL     1      -1.791  -0.171   0.289  0.00  0.00    +0.380 N 
ATOM     17  C   UNL     1      -2.085  -0.256  -1.146  0.00  0.00    -0.077 C 
ATOM     18  C   UNL     1      -3.524  -0.736  -1.348  0.00  0.00    +0.002 C 
ATOM     19  C   UNL     1      -3.690  -2.118  -0.708  0.00  0.00    +0.073 C 
ATOM     20  C   UNL     1      -3.308  -2.033   0.773  0.00  0.00    +0.002 C 
ATOM     21  C   UNL     1      -1.878  -1.504   0.896  0.00  0.00    -0.077 C 
ATOM     22  H   UNL     1      -2.458   0.443   0.732  0.00  0.00    -0.082 HD
BRANCH  16  24
ATOM     23  C   UNL     1      -0.378   1.802  -0.041  0.00  0.00    -0.017 C 
ATOM     24  C   UNL     1      -0.436   0.364   0.479  0.00  0.00    -0.082 C 
ENDBRANCH  16  24
ENDBRANCH  14  19
ENDBRANCH   1  14
TORSDOF 5
