REMARK  Name = ZINC19911180
REMARK  6 active torsions:
REMARK  status: ('A' for Active; 'I' for Inactive)
REMARK    1  A    between atoms: C_1  and  C_2
REMARK    2  A    between atoms: C_5  and  N_8
REMARK    3  A    between atoms: C_11  and  C_14
REMARK    4  A    between atoms: C_15  and  C_22
REMARK    5  A    between atoms: C_17  and  C_20
REMARK    6  A    between atoms: C_18  and  N_19
REMARK                            x       y       z     vdW  Elec       q    Type
REMARK                         _______ _______ _______ _____ _____    ______ ____
ROOT
ATOM      1  N   UNL     1      -2.729   7.247   0.056  0.00  0.00    -0.226 N 
ATOM      2  C   UNL     1      -2.060   7.025  -1.136  0.00  0.00    +0.234 A 
ATOM      3  C   UNL     1      -0.817   6.449  -1.167  0.00  0.00    +0.050 A 
ATOM      4  C   UNL     1      -0.486   6.406  -2.519  0.00  0.00    +0.087 A 
ATOM      5  N   UNL     1      -1.502   6.929  -3.159  0.00  0.00    -0.081 NA
ATOM      6  O   UNL     1      -2.386   7.276  -2.400  0.00  0.00    -0.338 OA
ATOM      7  C   UNL     1       0.785   5.868  -3.124  0.00  0.00    +0.069 C 
ATOM      8  C   UNL     1      -0.079   6.004   0.059  0.00  0.00    +0.099 C 
ATOM      9  C   UNL     1      -0.783   6.546   1.277  0.00  0.00    +0.076 C 
ATOM     10  C   UNL     1      -2.013   7.110   1.229  0.00  0.00    +0.093 C 
ENDROOT
BRANCH   1  15
ATOM     11  C   UNL     1      -8.220   8.676   0.118  0.00  0.00    +0.044 C 
ATOM     12  C   UNL     1      -6.761   8.296   0.101  0.00  0.00    -0.050 A 
ATOM     13  C   UNL     1      -5.825   9.178  -0.407  0.00  0.00    +0.005 A 
ATOM     14  C   UNL     1      -4.488   8.833  -0.424  0.00  0.00    +0.024 A 
ATOM     15  C   UNL     1      -4.084   7.600   0.071  0.00  0.00    +0.043 A 
ATOM     16  C   UNL     1      -5.028   6.714   0.575  0.00  0.00    +0.024 A 
ATOM     17  C   UNL     1      -6.363   7.068   0.595  0.00  0.00    +0.005 A 
ENDBRANCH   1  15
BRANCH   8  18
ATOM     18  C   UNL     1      -0.058   4.498   0.116  0.00  0.00    -0.035 A 
ATOM     19  C   UNL     1       1.149   3.824   0.117  0.00  0.00    +0.006 A 
ATOM     20  C   UNL     1       1.170   2.443   0.170  0.00  0.00    +0.020 A 
ATOM     21  C   UNL     1      -0.018   1.736   0.221  0.00  0.00    +0.041 A 
ATOM     22  C   UNL     1      -1.226   2.411   0.215  0.00  0.00    +0.020 A 
ATOM     23  C   UNL     1      -1.245   3.792   0.167  0.00  0.00    +0.006 A 
ATOM     24 CL   UNL     1       0.006   0.001   0.287  0.00  0.00    -0.084 Cl
ENDBRANCH   8  18
BRANCH  10  25
ATOM     25  N   UNL     1      -2.574   7.564   2.399  0.00  0.00    -0.404 NA
ATOM     26  H   UNL     1      -1.881   7.381   3.233  0.00  0.00    +0.122 HD
ATOM     27  H   UNL     1      -3.519   7.032   2.583  0.00  0.00    +0.122 HD
ATOM     28  H   UNL     1      -2.771   8.643   2.316  0.00  0.00    +0.122 HD
ENDBRANCH  10  25
BRANCH   9  29
ATOM     29  C   UNL     1      -0.119   6.460   2.543  0.00  0.00    +0.099 C 
ATOM     30  N   UNL     1       0.407   6.392   3.548  0.00  0.00    -0.191 NA
ENDBRANCH   9  29
TORSDOF 4
