REMARK  Name = ZINC37370467
REMARK  5 active torsions:
REMARK  status: ('A' for Active; 'I' for Inactive)
REMARK    1  A    between atoms: C_2  and  O_13
REMARK    2  A    between atoms: C_5  and  S_8
REMARK    3  A    between atoms: S_8  and  N_11
REMARK    4  A    between atoms: O_13  and  C_14
REMARK    5  A    between atoms: C_14  and  C_15
REMARK                            x       y       z     vdW  Elec       q    Type
REMARK                         _______ _______ _______ _____ _____    ______ ____
ROOT
ATOM      1  C   UNL     1      -0.017   1.378   0.010  0.00  0.00    +0.069 A 
ATOM      2  C   UNL     1       1.175   2.087   0.002  0.00  0.00    +0.140 A 
ATOM      3  C   UNL     1       2.385   1.406  -0.013  0.00  0.00    +0.084 A 
ATOM      4  C   UNL     1       2.399   0.023  -0.021  0.00  0.00    +0.053 A 
ATOM      5  C   UNL     1       1.209  -0.681  -0.014  0.00  0.00    +0.125 A 
ATOM      6  C   UNL     1       0.002  -0.004   0.002  0.00  0.00    +0.071 A 
ATOM      7 CL   UNL     1      -1.490  -0.892   0.011  0.00  0.00    -0.081 Cl
ATOM      8 CL   UNL     1       3.879   2.289  -0.023  0.00  0.00    -0.080 Cl
ENDROOT
BRANCH   5   9
ATOM      9  S   UNL     1       1.230  -2.443  -0.024  0.00  0.00    +0.057 S 
ATOM     10  O   UNL     1       0.329  -2.853  -1.044  0.00  0.00    -0.153 OA
ATOM     11  O   UNL     1       2.596  -2.833  -0.013  0.00  0.00    -0.153 OA
BRANCH   9  12
ATOM     12  N   UNL     1       0.581  -2.949   1.413  0.00  0.00    -0.203 NA
ATOM     13  H   UNL     1       0.106  -3.793   1.460  0.00  0.00    +0.144 HD
ATOM     14  H   UNL     1       0.676  -2.401   2.207  0.00  0.00    +0.144 HD
ENDBRANCH   9  12
ENDBRANCH   5   9
BRANCH   2  15
ATOM     15  O   UNL     1       1.160   3.446   0.009  0.00  0.00    -0.490 OA
BRANCH  15  16
ATOM     16  C   UNL     1      -0.121   4.080   0.024  0.00  0.00    +0.232 C 
BRANCH  16  17
ATOM     17  C   UNL     1       0.062   5.599   0.030  0.00  0.00    +0.027 C 
ATOM     18  C   UNL     1       0.740   6.026   1.333  0.00  0.00    +0.007 C 
ATOM     19  C   UNL     1       0.923   7.545   1.339  0.00  0.00    +0.000 C 
ATOM     20  C   UNL     1      -0.444   8.223   1.230  0.00  0.00    +0.000 C 
ATOM     21  C   UNL     1      -1.123   7.796  -0.073  0.00  0.00    +0.000 C 
ATOM     22  C   UNL     1      -1.305   6.277  -0.079  0.00  0.00    +0.007 C 
ENDBRANCH  16  17
ENDBRANCH  15  16
ENDBRANCH   2  15
TORSDOF 5
