REMARK  Name = ZINC04373643
REMARK  10 active torsions:
REMARK  status: ('A' for Active; 'I' for Inactive)
REMARK    1  A    between atoms: C_1  and  C_2
REMARK    2  A    between atoms: C_5  and  N_8
REMARK    3  A    between atoms: N_11  and  C_12
REMARK    4  A    between atoms: N_11  and  C_26
REMARK    5  A    between atoms: C_12  and  C_13
REMARK    6  A    between atoms: N_17  and  C_18
REMARK    7  A    between atoms: C_18  and  C_19
REMARK    8  A    between atoms: C_26  and  C_27
REMARK    9  A    between atoms: C_27  and  C_28
REMARK   10  A    between atoms: C_27  and  C_29
REMARK                            x       y       z     vdW  Elec       q    Type
REMARK                         _______ _______ _______ _____ _____    ______ ____
ROOT
ATOM      1  N   UNL     1       0.724  -2.977   0.110  0.00  0.00    -0.269 N 
ATOM      2  C   UNL     1       2.064  -3.091   0.189  0.00  0.00    +0.307 C 
ATOM      3  O   UNL     1       2.729  -2.165   0.611  0.00  0.00    -0.252 OA
ATOM      4  N   UNL     1       2.667  -4.232  -0.200  0.00  0.00    -0.279 N 
ATOM      5  H   UNL     1       0.186  -3.742  -0.149  0.00  0.00    +0.156 HD
ENDROOT
BRANCH   1  10
ATOM      6  C   UNL     1      -1.776   1.976   1.296  0.00  0.00    +0.044 C 
ATOM      7  C   UNL     1      -1.112   0.660   0.981  0.00  0.00    -0.050 A 
ATOM      8  C   UNL     1      -1.600  -0.131  -0.043  0.00  0.00    +0.005 A 
ATOM      9  C   UNL     1      -0.993  -1.337  -0.334  0.00  0.00    +0.023 A 
ATOM     10  C   UNL     1       0.107  -1.755   0.403  0.00  0.00    +0.035 A 
ATOM     11  C   UNL     1       0.594  -0.958   1.430  0.00  0.00    +0.023 A 
ATOM     12  C   UNL     1      -0.017   0.247   1.716  0.00  0.00    +0.005 A 
ENDBRANCH   1  10
BRANCH   4  13
ATOM     13  C   UNL     1       4.112  -4.393  -0.023  0.00  0.00    +0.162 C 
BRANCH  13  14
ATOM     14  C   UNL     1       4.393  -4.931   1.356  0.00  0.00    +0.036 A 
ATOM     15  C   UNL     1       3.974  -4.387   2.517  0.00  0.00    +0.024 A 
ATOM     16  C   UNL     1       4.455  -5.201   3.562  0.00  0.00    +0.019 A 
ATOM     17  C   UNL     1       5.149  -6.212   3.000  0.00  0.00    +0.086 A 
ATOM     18  N   UNL     1       5.110  -6.054   1.646  0.00  0.00    -0.345 N 
BRANCH  18  19
ATOM     19  C   UNL     1       5.737  -6.943   0.665  0.00  0.00    +0.156 C 
BRANCH  19  20
ATOM     20  C   UNL     1       7.032  -6.334   0.191  0.00  0.00    -0.026 A 
ATOM     21  C   UNL     1       7.042  -5.505  -0.915  0.00  0.00    +0.005 A 
ATOM     22  C   UNL     1       8.229  -4.942  -1.347  0.00  0.00    +0.002 A 
ATOM     23  C   UNL     1       9.407  -5.217  -0.679  0.00  0.00    +0.020 A 
ATOM     24  C   UNL     1       9.399  -6.051   0.424  0.00  0.00    +0.041 A 
ATOM     25  C   UNL     1       8.210  -6.610   0.860  0.00  0.00    +0.025 A 
ATOM     26 CL   UNL     1      10.879  -6.397   1.263  0.00  0.00    -0.084 Cl
ENDBRANCH  19  20
ENDBRANCH  18  19
ENDBRANCH  13  14
ENDBRANCH   4  13
BRANCH   4  27
ATOM     27  C   UNL     1       1.877  -5.311  -0.799  0.00  0.00    +0.112 C 
BRANCH  27  28
ATOM     28  C   UNL     1       1.825  -5.122  -2.316  0.00  0.00    +0.000 C 
ATOM     29  C   UNL     1       3.231  -5.279  -2.898  0.00  0.00    +0.009 C 
ATOM     30  C   UNL     1       0.899  -6.175  -2.929  0.00  0.00    +0.009 C 
ENDBRANCH  27  28
ENDBRANCH   4  27
TORSDOF 7
