REMARK  Name = ZINC63440199
REMARK  13 active torsions:
REMARK  status: ('A' for Active; 'I' for Inactive)
REMARK    1  A    between atoms: C_1  and  C_2
REMARK    2  A    between atoms: C_4  and  C_12
REMARK    3  A    between atoms: C_12  and  C_13
REMARK    4  A    between atoms: C_13  and  N_14
REMARK    5  A    between atoms: N_14  and  C_15
REMARK    6  A    between atoms: N_14  and  C_21
REMARK    7  A    between atoms: C_15  and  C_16
REMARK    8  A    between atoms: C_21  and  N_23
REMARK    9  A    between atoms: N_23  and  C_24
REMARK   10  A    between atoms: C_26  and  O_32
REMARK   11  A    between atoms: C_29  and  O_30
REMARK   12  A    between atoms: O_30  and  C_31
REMARK   13  A    between atoms: O_32  and  C_33
REMARK                            x       y       z     vdW  Elec       q    Type
REMARK                         _______ _______ _______ _____ _____    ______ ____
ROOT
ATOM      1  N   UNL     1       0.679  -0.535  -4.888  0.00  0.00    -0.307 N 
ENDROOT
BRANCH   1   2
ATOM      2  C   UNL     1      -0.144  -1.371  -5.551  0.00  0.00    +0.138 C 
ATOM      3  S   UNL     1      -1.169  -2.432  -4.681  0.00  0.00    -0.018 S 
BRANCH   2   4
ATOM      4  N   UNL     1      -0.161  -1.372  -6.899  0.00  0.00    -0.294 N 
ATOM      5  H   UNL     1       0.359  -0.718  -7.390  0.00  0.00    +0.154 HD
BRANCH   4   6
ATOM      6  C   UNL     1      -0.930  -2.318  -7.589  0.00  0.00    +0.078 A 
ATOM      7  C   UNL     1      -0.920  -3.647  -7.191  0.00  0.00    +0.072 A 
ATOM      8  C   UNL     1      -1.682  -4.580  -7.876  0.00  0.00    +0.122 A 
ATOM      9  C   UNL     1      -2.454  -4.186  -8.959  0.00  0.00    +0.049 A 
ATOM     10  C   UNL     1      -2.467  -2.863  -9.357  0.00  0.00    +0.051 A 
ATOM     11  C   UNL     1      -1.712  -1.925  -8.672  0.00  0.00    +0.141 A 
BRANCH  11  12
ATOM     12  O   UNL     1      -1.730  -0.621  -9.062  0.00  0.00    -0.493 OA
ATOM     13  C   UNL     1      -2.554  -0.289 -10.181  0.00  0.00    +0.277 C 
ENDBRANCH  11  12
BRANCH   8  14
ATOM     14  O   UNL     1      -1.672  -5.883  -7.487  0.00  0.00    -0.495 OA
ATOM     15  C   UNL     1      -2.481  -6.791  -8.237  0.00  0.00    +0.277 C 
ENDBRANCH   8  14
ENDBRANCH   4   6
ENDBRANCH   2   4
ENDBRANCH   1   2
BRANCH   1  16
ATOM     16  C   UNL     1       0.697  -0.535  -3.423  0.00  0.00    +0.111 C 
BRANCH  16  17
ATOM     17  C   UNL     1      -0.329   0.473  -2.901  0.00  0.00    +0.052 C 
BRANCH  17  20
ATOM     18  C   UNL     1      -0.893   2.804  -0.720  0.00  0.00    +0.035 C 
ATOM     19  C   UNL     1      -1.164   1.318  -0.474  0.00  0.00    +0.103 C 
ATOM     20  C   UNL     1      -0.310   0.474  -1.394  0.00  0.00    -0.037 C 
ATOM     21  C   UNL     1       0.474  -0.280  -0.590  0.00  0.00    -0.001 A 
ATOM     22  C   UNL     1       1.503  -1.289  -0.867  0.00  0.00    +0.010 A 
ATOM     23  C   UNL     1       2.131  -1.888   0.170  0.00  0.00    +0.001 A 
ATOM     24  C   UNL     1       1.823  -1.571   1.501  0.00  0.00    +0.002 A 
ATOM     25  C   UNL     1       0.889  -0.655   1.835  0.00  0.00    +0.026 A 
ATOM     26  C   UNL     1       0.167   0.037   0.823  0.00  0.00    +0.043 A 
ATOM     27  N   UNL     1      -0.771   0.952   0.891  0.00  0.00    -0.378 N 
ATOM     28  H   UNL     1      -1.143   1.324   1.706  0.00  0.00    +0.160 HD
ENDBRANCH  17  20
ENDBRANCH  16  17
ENDBRANCH   1  16
BRANCH   1  29
ATOM     29  C   UNL     1       1.556   0.372  -5.632  0.00  0.00    +0.149 C 
BRANCH  29  30
ATOM     30  C   UNL     1       2.873  -0.308  -5.899  0.00  0.00    +0.007 A 
ATOM     31  C   UNL     1       3.242  -1.067  -6.960  0.00  0.00    +0.013 A 
ATOM     32  C   UNL     1       4.519  -1.596  -6.994  0.00  0.00    +0.008 A 
ATOM     33  C   UNL     1       5.364  -1.341  -5.965  0.00  0.00    +0.045 A 
ATOM     34  S   UNL     1       4.356  -0.319  -4.904  0.00  0.00    -0.100 S 
ENDBRANCH  29  30
ENDBRANCH   1  29
TORSDOF 10
