REMARK  Name = ZINC67103703
REMARK  4 active torsions:
REMARK  status: ('A' for Active; 'I' for Inactive)
REMARK    1  A    between atoms: C_3  and  C_26
REMARK    2  A    between atoms: N_15  and  N_16
REMARK    3  A    between atoms: C_17  and  C_19
REMARK    4  A    between atoms: C_19  and  C_20
REMARK                            x       y       z     vdW  Elec       q    Type
REMARK                         _______ _______ _______ _____ _____    ______ ____
ROOT
ATOM      1  C   UNL     1      -0.002   1.405   0.063  0.00  0.00    +0.021 A 
ATOM      2  C   UNL     1       0.517   1.067  -1.175  0.00  0.00    +0.024 A 
ATOM      3  C   UNL     1       1.698   0.318  -1.219  0.00  0.00    +0.092 A 
ATOM      4  C   UNL     1       2.305  -0.059  -0.009  0.00  0.00    +0.139 A 
ATOM      5  N   UNL     1       1.765   0.291   1.148  0.00  0.00    -0.239 NA
ATOM      6  C   UNL     1       0.653   0.997   1.210  0.00  0.00    +0.113 A 
ATOM      7  N   UNL     1       3.474  -0.801  -0.027  0.00  0.00    -0.311 N 
ATOM      8  C   UNL     1       4.779  -0.137  -0.147  0.00  0.00    +0.125 C 
ATOM      9  C   UNL     1       5.661  -0.572   1.029  0.00  0.00    +0.128 C 
ATOM     10  N   UNL     1       5.619  -2.038   1.131  0.00  0.00    -0.281 N 
ATOM     11  C   UNL     1       4.313  -2.702   1.252  0.00  0.00    +0.128 C 
ATOM     12  C   UNL     1       3.432  -2.266   0.080  0.00  0.00    +0.125 C 
ATOM     13  C   UNL     1       6.756  -2.760   1.113  0.00  0.00    +0.319 C 
ATOM     14  O   UNL     1       7.834  -2.196   1.109  0.00  0.00    -0.251 OA
ATOM     15  N   UNL     1       6.700  -4.106   1.101  0.00  0.00    -0.218 N 
ATOM     16  H   UNL     1       5.843  -4.555   1.030  0.00  0.00    +0.174 HD
ENDROOT
BRANCH  15  17
ATOM     17  N   UNL     1       7.879  -4.858   1.192  0.00  0.00    -0.233 N 
ATOM     18  C   UNL     1       7.817  -6.201   1.282  0.00  0.00    +0.229 C 
ATOM     19  O   UNL     1       6.740  -6.759   1.284  0.00  0.00    -0.274 OA
ATOM     20  H   UNL     1       8.740  -4.411   1.190  0.00  0.00    +0.173 HD
BRANCH  18  21
ATOM     21  C   UNL     1       9.085  -7.009   1.379  0.00  0.00    +0.101 C 
BRANCH  21  22
ATOM     22  C   UNL     1       8.736  -8.496   1.469  0.00  0.00    -0.002 C 
ATOM     23  C   UNL     1       7.984  -8.765   2.773  0.00  0.00    +0.004 C 
ATOM     24  C   UNL     1       7.635 -10.252   2.863  0.00  0.00    +0.000 C 
ATOM     25  C   UNL     1       8.921 -11.080   2.837  0.00  0.00    +0.000 C 
ATOM     26  C   UNL     1       9.674 -10.811   1.532  0.00  0.00    +0.000 C 
ATOM     27  C   UNL     1      10.023  -9.324   1.442  0.00  0.00    +0.004 C 
ENDBRANCH  21  22
ENDBRANCH  18  21
ENDBRANCH  15  17
BRANCH   3  28
ATOM     28  C   UNL     1       2.276  -0.059  -2.474  0.00  0.00    +0.103 C 
ATOM     29  N   UNL     1       2.735  -0.357  -3.469  0.00  0.00    -0.191 NA
ENDBRANCH   3  28
TORSDOF 4
