REMARK  Name = ZINC65422964
REMARK  8 active torsions:
REMARK  status: ('A' for Active; 'I' for Inactive)
REMARK    1  A    between atoms: C_1  and  C_2
REMARK    2  A    between atoms: N_4  and  C_10
REMARK    3  A    between atoms: C_6  and  C_8
REMARK    4  A    between atoms: C_6  and  C_9
REMARK    5  A    between atoms: C_10  and  C_11
REMARK    6  A    between atoms: C_14  and  C_16
REMARK    7  A    between atoms: C_16  and  C_17
REMARK    8  A    between atoms: C_16  and  C_18
REMARK                            x       y       z     vdW  Elec       q    Type
REMARK                         _______ _______ _______ _____ _____    ______ ____
ROOT
ATOM      1  C   UNL     1      -0.019   1.526   0.010  0.00  0.00    +0.039 C 
ATOM      2  C   UNL     1       0.002  -0.004   0.002  0.00  0.00    +0.130 C 
ATOM      3  C   UNL     1      -1.434  -0.535   0.018  0.00  0.00    +0.116 C 
ATOM      4  N   UNL     1      -1.407  -2.003   0.088  0.00  0.00    -0.292 NA
ATOM      5  C   UNL     1      -0.689  -2.455   1.289  0.00  0.00    +0.119 C 
ATOM      6  C   UNL     1       0.739  -1.905   1.260  0.00  0.00    +0.077 C 
ATOM      7  O   UNL     1       0.694  -0.479   1.160  0.00  0.00    -0.368 OA
ATOM      8  C   UNL     1       1.483  -2.477   0.051  0.00  0.00    +0.042 C 
ATOM      9  C   UNL     1       1.467  -2.304   2.545  0.00  0.00    +0.042 C 
ENDROOT
BRANCH   4  10
ATOM     10  C   UNL     1      -2.767  -2.557   0.049  0.00  0.00    +0.140 C 
BRANCH  10  11
ATOM     11  C   UNL     1      -3.386  -2.273  -1.296  0.00  0.00    +0.063 A 
ATOM     12  C   UNL     1      -3.350  -3.185  -2.301  0.00  0.00    +0.071 A 
ATOM     13  S   UNL     1      -4.217  -2.295  -3.584  0.00  0.00    -0.080 S 
ATOM     14  C   UNL     1      -4.526  -0.885  -2.719  0.00  0.00    +0.081 A 
ATOM     15  N   UNL     1      -3.993  -1.130  -1.548  0.00  0.00    -0.247 NA
BRANCH  14  16
ATOM     16  C   UNL     1      -5.246   0.357  -3.178  0.00  0.00    +0.038 C 
ATOM     17  C   UNL     1      -4.512   0.957  -4.379  0.00  0.00    +0.014 C 
ATOM     18  C   UNL     1      -6.677  -0.004  -3.583  0.00  0.00    +0.014 C 
ENDBRANCH  14  16
ENDBRANCH  10  11
ENDBRANCH   4  10
TORSDOF 3
