REMARK  Name = ZINC66356835
REMARK  6 active torsions:
REMARK  status: ('A' for Active; 'I' for Inactive)
REMARK    1  A    between atoms: C_1  and  C_2
REMARK    2  A    between atoms: C_2  and  N_3
REMARK    3  A    between atoms: N_3  and  C_4
REMARK    4  A    between atoms: C_4  and  C_5
REMARK    5  A    between atoms: C_11  and  C_13
REMARK    6  A    between atoms: C_13  and  N_14
REMARK                            x       y       z     vdW  Elec       q    Type
REMARK                         _______ _______ _______ _____ _____    ______ ____
ROOT
ATOM      1  N   UNL     1      -2.026  -0.792  -3.684  0.00  0.00    -0.291 N 
ATOM      2  C   UNL     1      -3.343  -0.657  -3.940  0.00  0.00    +0.303 C 
ATOM      3  O   UNL     1      -4.109  -0.360  -3.043  0.00  0.00    -0.253 OA
ATOM      4  N   UNL     1      -3.810  -0.851  -5.189  0.00  0.00    -0.281 N 
ATOM      5  C   UNL     1      -5.222  -0.600  -5.515  0.00  0.00    +0.116 C 
ATOM      6  C   UNL     1      -5.305   0.554  -6.521  0.00  0.00    +0.072 C 
ATOM      7  C   UNL     1      -4.279   0.334  -7.608  0.00  0.00    +0.023 A 
ATOM      8  C   UNL     1      -3.219  -0.495  -7.492  0.00  0.00    -0.002 A 
ATOM      9  C   UNL     1      -2.481  -0.423  -8.735  0.00  0.00    +0.005 A 
ATOM     10  C   UNL     1      -1.314  -1.048  -9.185  0.00  0.00    +0.010 A 
ATOM     11  C   UNL     1      -0.890  -0.735 -10.453  0.00  0.00    +0.001 A 
ATOM     12  C   UNL     1      -1.578   0.156 -11.259  0.00  0.00    +0.002 A 
ATOM     13  C   UNL     1      -2.736   0.789 -10.841  0.00  0.00    +0.026 A 
ATOM     14  C   UNL     1      -3.189   0.492  -9.557  0.00  0.00    +0.047 A 
ATOM     15  N   UNL     1      -4.269   0.927  -8.844  0.00  0.00    -0.358 N 
ATOM     16  H   UNL     1      -4.929   1.561  -9.165  0.00  0.00    +0.166 HD
ATOM     17  C   UNL     1      -2.919  -1.316  -6.267  0.00  0.00    +0.146 C 
ATOM     18  H   UNL     1      -1.426  -1.101  -4.381  0.00  0.00    +0.151 HD
ENDROOT
BRANCH   1  19
ATOM     19  C   UNL     1      -1.502  -0.473  -2.354  0.00  0.00    +0.201 C 
BRANCH  19  21
ATOM     20  N   UNL     1       0.688  -0.477  -1.204  0.00  0.00    -0.296 N 
ATOM     21  C   UNL     1      -0.013  -0.707  -2.332  0.00  0.00    +0.233 C 
ATOM     22  O   UNL     1       0.554  -1.101  -3.329  0.00  0.00    -0.274 OA
BRANCH  20  24
ATOM     23  C   UNL     1      -0.015   1.529   0.006  0.00  0.00    +0.024 C 
ATOM     24  C   UNL     1       0.003  -0.001   0.001  0.00  0.00    +0.105 C 
ENDBRANCH  20  24
BRANCH  20  25
ATOM     25  C   UNL     1       2.135  -0.704  -1.182  0.00  0.00    +0.142 C 
BRANCH  25  26
ATOM     26  C   UNL     1       2.414  -2.126  -0.766  0.00  0.00    -0.030 A 
ATOM     27  C   UNL     1       2.573  -2.436   0.571  0.00  0.00    +0.005 A 
ATOM     28  C   UNL     1       2.829  -3.740   0.952  0.00  0.00    +0.000 A 
ATOM     29  C   UNL     1       2.926  -4.734  -0.004  0.00  0.00    +0.000 A 
ATOM     30  C   UNL     1       2.767  -4.423  -1.342  0.00  0.00    +0.000 A 
ATOM     31  C   UNL     1       2.506  -3.120  -1.722  0.00  0.00    +0.005 A 
ENDBRANCH  25  26
ENDBRANCH  20  25
ENDBRANCH  19  21
ENDBRANCH   1  19
TORSDOF 5
