REMARK  Name = ZINC66637747
REMARK  4 active torsions:
REMARK  status: ('A' for Active; 'I' for Inactive)
REMARK    1  A    between atoms: C_11  and  C_13
REMARK    2  A    between atoms: N_15  and  C_16
REMARK    3  A    between atoms: C_16  and  C_17
REMARK    4  A    between atoms: N_21  and  C_22
REMARK                            x       y       z     vdW  Elec       q    Type
REMARK                         _______ _______ _______ _____ _____    ______ ____
ROOT
ATOM      1  C   UNL     1       1.666  -6.362  -1.086  0.00  0.00    +0.251 C 
ATOM      2  O   UNL     1       2.688  -7.013  -1.198  0.00  0.00    -0.270 OA
ATOM      3  N   UNL     1       0.504  -6.978  -0.789  0.00  0.00    -0.304 N 
ATOM      4  H   UNL     1      -0.311  -6.459  -0.699  0.00  0.00    +0.149 HD
ENDROOT
BRANCH   1  15
ATOM      5  C   UNL     1      -0.185   1.255  -1.693  0.00  0.00    +0.001 A 
ATOM      6  C   UNL     1       0.960   1.977  -2.001  0.00  0.00    +0.001 A 
ATOM      7  C   UNL     1       2.163   1.315  -2.146  0.00  0.00    +0.016 A 
ATOM      8  C   UNL     1       2.211  -0.055  -1.983  0.00  0.00    +0.021 A 
ATOM      9  C   UNL     1       1.064  -0.808  -1.670  0.00  0.00    +0.004 A 
ATOM     10  C   UNL     1      -0.150  -0.095  -1.530  0.00  0.00    +0.010 A 
ATOM     11  C   UNL     1       1.281  -2.250  -1.530  0.00  0.00    +0.035 A 
ATOM     12  C   UNL     1       2.574  -2.735  -1.715  0.00  0.00    +0.028 A 
ATOM     13  S   UNL     1       3.511  -1.255  -2.078  0.00  0.00    -0.088 S 
ATOM     14  C   UNL     1       2.772  -4.101  -1.581  0.00  0.00    +0.036 A 
ATOM     15  C   UNL     1       1.698  -4.910  -1.275  0.00  0.00    +0.075 A 
ATOM     16  S   UNL     1       0.358  -3.739  -1.168  0.00  0.00    -0.083 S 
ENDBRANCH   1  15
BRANCH   3  17
ATOM     17  C   UNL     1       0.472  -8.430  -0.600  0.00  0.00    +0.181 C 
BRANCH  17  18
ATOM     18  C   UNL     1      -0.935  -8.864  -0.279  0.00  0.00    +0.149 A 
ATOM     19  N   UNL     1      -1.962  -8.082  -0.188  0.00  0.00    -0.157 NA
ATOM     20  N   UNL     1      -3.081  -8.866   0.125  0.00  0.00    -0.254 N 
ATOM     21  C   UNL     1      -2.662 -10.145   0.214  0.00  0.00    +0.176 A 
ATOM     22  N   UNL     1      -1.338 -10.155  -0.040  0.00  0.00    -0.303 N 
ATOM     23  S   UNL     1      -3.635 -11.507   0.575  0.00  0.00    -0.011 S 
ATOM     24  H   UNL     1      -3.988  -8.547   0.255  0.00  0.00    +0.191 HD
BRANCH  22  25
ATOM     25  C   UNL     1      -0.476 -11.339  -0.055  0.00  0.00    +0.091 C 
ATOM     26  C   UNL     1      -1.157 -12.707  -0.141  0.00  0.00    +0.027 C 
ATOM     27  C   UNL     1      -0.512 -12.255   1.171  0.00  0.00    +0.027 C 
ENDBRANCH  22  25
ENDBRANCH  17  18
ENDBRANCH   3  17
TORSDOF 4
