REMARK  Name = ZINC13007929
REMARK  5 active torsions:
REMARK  status: ('A' for Active; 'I' for Inactive)
REMARK    1  A    between atoms: C_1  and  C_2
REMARK    2  A    between atoms: C_2  and  C_3
REMARK    3  A    between atoms: N_6  and  C_10
REMARK    4  A    between atoms: C_10  and  C_11
REMARK    5  A    between atoms: C_20  and  O_21
REMARK                            x       y       z     vdW  Elec       q    Type
REMARK                         _______ _______ _______ _____ _____    ______ ____
ROOT
ATOM      1  C   UNL     1      -2.677  -4.051  -0.357  0.00  0.00    +0.016 A 
ATOM      2  C   UNL     1      -2.557  -4.618  -1.637  0.00  0.00    -0.010 A 
ATOM      3  C   UNL     1      -2.502  -3.813  -2.788  0.00  0.00    +0.009 A 
ATOM      4  C   UNL     1      -2.380  -4.396  -4.012  0.00  0.00    +0.001 A 
ATOM      5  C   UNL     1      -2.304  -5.782  -4.142  0.00  0.00    +0.001 A 
ATOM      6  C   UNL     1      -2.349  -6.592  -3.049  0.00  0.00    +0.008 A 
ATOM      7  C   UNL     1      -2.474  -6.027  -1.769  0.00  0.00    -0.017 A 
ATOM      8  C   UNL     1      -2.524  -6.833  -0.618  0.00  0.00    +0.012 A 
ATOM      9  C   UNL     1      -2.645  -6.254   0.606  0.00  0.00    +0.046 A 
ATOM     10  C   UNL     1      -2.722  -4.864   0.740  0.00  0.00    +0.122 A 
ENDROOT
BRANCH  10  11
ATOM     11  O   UNL     1      -2.843  -4.315   1.976  0.00  0.00    -0.506 OA
ATOM     12  H   UNL     1      -2.880  -4.962   2.865  0.00  0.00    +0.292 HD
ENDBRANCH  10  11
BRANCH   1  13
ATOM     13  C   UNL     1      -2.762  -2.555  -0.196  0.00  0.00    +0.124 C 
BRANCH  13  16
ATOM     14  C   UNL     1       0.002  -0.004   0.002  0.00  0.00    +0.132 C 
ATOM     15  C   UNL     1      -1.430  -0.534  -0.107  0.00  0.00    +0.116 C 
ATOM     16  N   UNL     1      -1.410  -2.002  -0.037  0.00  0.00    -0.293 NA
ATOM     17  C   UNL     1      -0.800  -2.456   1.221  0.00  0.00    +0.113 C 
ATOM     18  C   UNL     1       0.626  -1.907   1.317  0.00  0.00    +0.175 C 
ATOM     19  O   UNL     1       0.590  -0.480   1.216  0.00  0.00    -0.374 OA
BRANCH  14  21
ATOM     20  C   UNL     1       1.417   2.055  -0.000  0.00  0.00    +0.006 C 
ATOM     21  C   UNL     1      -0.019   1.526   0.010  0.00  0.00    +0.029 C 
ENDBRANCH  14  21
ENDBRANCH  13  16
ENDBRANCH   1  13
TORSDOF 4
