REMARK  Name = ZINC08502058
REMARK  6 active torsions:
REMARK  status: ('A' for Active; 'I' for Inactive)
REMARK    1  A    between atoms: C_1  and  C_2
REMARK    2  A    between atoms: C_2  and  C_3
REMARK    3  A    between atoms: C_2  and  N_4
REMARK    4  A    between atoms: N_4  and  C_5
REMARK    5  A    between atoms: C_6  and  C_8
REMARK    6  A    between atoms: C_8  and  N_9
REMARK                            x       y       z     vdW  Elec       q    Type
REMARK                         _______ _______ _______ _____ _____    ______ ____
ROOT
ATOM      1  N   UNL     1      -0.386   3.561   2.350  0.00  0.00    -0.215 N 
ATOM      2  C   UNL     1      -1.004   3.039   1.264  0.00  0.00    +0.251 C 
ATOM      3  O   UNL     1      -1.659   3.674   0.466  0.00  0.00    -0.272 OA
ATOM      4  C   UNL     1      -0.692   1.571   1.285  0.00  0.00    +0.138 C 
ATOM      5  C   UNL     1      -0.013   1.090   0.008  0.00  0.00    +0.040 C 
ATOM      6  C   UNL     1      -0.712   1.583  -1.242  0.00  0.00    +0.003 C 
ATOM      7  C   UNL     1      -2.053   0.926  -1.505  0.00  0.00    +0.005 C 
ATOM      8  C   UNL     1      -3.110   1.433  -0.525  0.00  0.00    +0.035 C 
ATOM      9  C   UNL     1      -2.999   0.658   0.771  0.00  0.00    -0.042 A 
ATOM     10  C   UNL     1      -1.910   0.732   1.590  0.00  0.00    -0.012 A 
ATOM     11  C   UNL     1      -1.892  -0.000   2.774  0.00  0.00    +0.006 A 
ATOM     12  C   UNL     1      -2.961  -0.803   3.117  0.00  0.00    +0.000 A 
ATOM     13  C   UNL     1      -4.058  -0.884   2.280  0.00  0.00    +0.000 A 
ATOM     14  C   UNL     1      -4.076  -0.156   1.107  0.00  0.00    +0.004 A 
ATOM     15  N   UNL     1       0.263   1.433   2.405  0.00  0.00    -0.281 N 
ATOM     16  C   UNL     1       0.327   2.636   3.001  0.00  0.00    +0.310 C 
ATOM     17  O   UNL     1       0.969   2.862   4.009  0.00  0.00    -0.252 OA
ATOM     18  H   UNL     1       0.744   0.628   2.646  0.00  0.00    +0.152 HD
ENDROOT
BRANCH   1  19
ATOM     19  C   UNL     1      -0.490   4.965   2.756  0.00  0.00    +0.213 C 
BRANCH  19  22
ATOM     20  N   UNL     1       0.711   7.084   2.330  0.00  0.00    -0.301 N 
ATOM     21  C   UNL     1      -0.247   7.750   3.217  0.00  0.00    +0.132 C 
ATOM     22  C   UNL     1       0.609   5.760   2.101  0.00  0.00    +0.233 C 
ATOM     23  O   UNL     1       1.402   5.209   1.367  0.00  0.00    -0.274 OA
BRANCH  20  25
ATOM     24  C   UNL     1       1.166   8.952   0.819  0.00  0.00    +0.028 C 
ATOM     25  C   UNL     1       1.780   7.858   1.694  0.00  0.00    +0.070 C 
ATOM     26  C   UNL     1       2.657   8.499   2.771  0.00  0.00    +0.028 C 
ENDBRANCH  20  25
ENDBRANCH  19  22
ENDBRANCH   1  19
TORSDOF 3
