REMARK  Name = ZINC04931727
REMARK  4 active torsions:
REMARK  status: ('A' for Active; 'I' for Inactive)
REMARK    1  A    between atoms: C_1  and  C_2
REMARK    2  A    between atoms: C_7  and  N_12
REMARK    3  A    between atoms: C_9  and  C_11
REMARK    4  A    between atoms: C_13  and  C_15
REMARK                            x       y       z     vdW  Elec       q    Type
REMARK                         _______ _______ _______ _____ _____    ______ ____
ROOT
ATOM      1  C   UNL     1      -6.539   1.206   3.239  0.00  0.00    +0.087 C 
ATOM      2  C   UNL     1      -7.506   1.873   3.928  0.00  0.00    +0.080 C 
ATOM      3  C   UNL     1      -8.911   1.388   3.961  0.00  0.00    +0.255 C 
ATOM      4  O   UNL     1      -9.364   0.767   3.018  0.00  0.00    -0.269 OA
ATOM      5  N   UNL     1      -9.677   1.635   5.031  0.00  0.00    -0.280 N 
ATOM      6  C   UNL     1      -9.233   2.221   6.207  0.00  0.00    +0.048 A 
ATOM      7  C   UNL     1      -9.964   1.989   7.374  0.00  0.00    +0.024 A 
ATOM      8  C   UNL     1      -9.566   2.544   8.570  0.00  0.00    +0.002 A 
ATOM      9  C   UNL     1      -8.435   3.339   8.631  0.00  0.00    +0.001 A 
ATOM     10  C   UNL     1      -7.701   3.580   7.488  0.00  0.00    +0.017 A 
ATOM     11  C   UNL     1      -8.096   3.026   6.275  0.00  0.00    +0.034 A 
ATOM     12  S   UNL     1      -7.144   3.351   4.830  0.00  0.00    -0.082 S 
ATOM     13  H   UNL     1     -10.642   1.377   4.979  0.00  0.00    +0.155 HD
ENDROOT
BRANCH   1  15
ATOM     14  N   UNL     1      -4.255   1.036   2.547  0.00  0.00    -0.309 N 
ATOM     15  C   UNL     1      -5.212   1.696   3.229  0.00  0.00    +0.238 C 
ATOM     16  O   UNL     1      -4.933   2.714   3.837  0.00  0.00    -0.271 OA
ATOM     17  H   UNL     1      -4.476   0.225   2.063  0.00  0.00    +0.149 HD
BRANCH  14  23
ATOM     18  C   UNL     1      -0.013   1.086   0.008  0.00  0.00    +0.008 C 
ATOM     19  C   UNL     1      -0.729   1.579   1.267  0.00  0.00    -0.009 C 
ATOM     20  C   UNL     1       0.011   1.072   2.506  0.00  0.00    +0.003 C 
ATOM     21  C   UNL     1      -0.705   1.566   3.765  0.00  0.00    +0.002 C 
ATOM     22  C   UNL     1      -2.140   1.036   3.776  0.00  0.00    +0.022 C 
ATOM     23  C   UNL     1      -2.880   1.543   2.537  0.00  0.00    +0.076 C 
ATOM     24  C   UNL     1      -2.164   1.050   1.278  0.00  0.00    +0.009 C 
ATOM     25  C   UNL     1      -2.143  -0.480   1.269  0.00  0.00    +0.009 C 
ENDBRANCH  14  23
ENDBRANCH   1  15
TORSDOF 2
