REMARK  Name = ZINC09501022
REMARK  4 active torsions:
REMARK  status: ('A' for Active; 'I' for Inactive)
REMARK    1  A    between atoms: C_6  and  S_7
REMARK    2  A    between atoms: S_7  and  N_10
REMARK    3  A    between atoms: C_16  and  C_18
REMARK    4  A    between atoms: C_18  and  N_19
REMARK                            x       y       z     vdW  Elec       q    Type
REMARK                         _______ _______ _______ _____ _____    ______ ____
ROOT
ATOM      1  N   UNL     1      -0.730   1.576  -1.177  0.00  0.00    -0.174 NA
ATOM      2  C   UNL     1      -0.013   1.086   0.008  0.00  0.00    +0.128 C 
ATOM      3  C   UNL     1      -0.738   1.584   1.265  0.00  0.00    +0.125 C 
ATOM      4  N   UNL     1      -0.979   3.028   1.125  0.00  0.00    -0.298 N 
ATOM      5  C   UNL     1      -1.697   3.518  -0.060  0.00  0.00    +0.125 C 
ATOM      6  C   UNL     1      -0.968   3.020  -1.315  0.00  0.00    +0.128 C 
ATOM      7  C   UNL     1      -0.547   3.887   2.070  0.00  0.00    +0.234 C 
ATOM      8  O   UNL     1      -0.750   5.076   1.945  0.00  0.00    -0.274 OA
ENDROOT
BRANCH   1   9
ATOM      9  S   UNL     1      -1.261   0.520  -2.337  0.00  0.00    +0.061 S 
ATOM     10  O   UNL     1      -1.383   1.266  -3.541  0.00  0.00    -0.153 OA
ATOM     11  O   UNL     1      -0.443  -0.637  -2.238  0.00  0.00    -0.153 OA
BRANCH   9  17
ATOM     12  C   UNL     1      -3.081  -1.087  -1.086  0.00  0.00    +0.029 A 
ATOM     13  C   UNL     1      -4.360  -1.466  -0.734  0.00  0.00    +0.006 A 
ATOM     14  C   UNL     1      -5.459  -0.747  -1.184  0.00  0.00    -0.044 A 
ATOM     15  C   UNL     1      -5.269   0.360  -1.981  0.00  0.00    -0.042 A 
ATOM     16  C   UNL     1      -3.981   0.743  -2.331  0.00  0.00    +0.032 A 
ATOM     17  C   UNL     1      -2.890   0.025  -1.885  0.00  0.00    +0.106 A 
ATOM     18  C   UNL     1      -6.413   1.193  -2.497  0.00  0.00    +0.035 C 
ATOM     19  C   UNL     1      -7.727   0.421  -2.398  0.00  0.00    +0.005 C 
ATOM     20  C   UNL     1      -7.863  -0.121  -0.970  0.00  0.00    +0.005 C 
ATOM     21  C   UNL     1      -6.827  -1.225  -0.773  0.00  0.00    +0.035 C 
ENDBRANCH   9  17
ENDBRANCH   1   9
BRANCH   7  22
ATOM     22  C   UNL     1       0.187   3.370   3.280  0.00  0.00    +0.213 C 
BRANCH  22  23
ATOM     23  N   UNL     1       0.547   4.492   4.149  0.00  0.00    -0.215 N 
ATOM     24  C   UNL     1      -0.236   4.965   5.141  0.00  0.00    +0.247 C 
ATOM     25  O   UNL     1      -1.329   4.558   5.470  0.00  0.00    -0.273 OA
ATOM     26  C   UNL     1       0.538   6.110   5.755  0.00  0.00    +0.113 C 
ATOM     27  C   UNL     1       0.839   5.820   7.221  0.00  0.00    +0.035 C 
ATOM     28  C   UNL     1       1.647   6.977   7.817  0.00  0.00    +0.003 C 
ATOM     29  C   UNL     1       0.846   8.274   7.690  0.00  0.00    +0.000 C 
ATOM     30  C   UNL     1       0.572   8.564   6.213  0.00  0.00    +0.003 C 
ATOM     31  C   UNL     1      -0.239   7.414   5.610  0.00  0.00    +0.035 C 
ATOM     32  N   UNL     1       1.780   6.160   4.973  0.00  0.00    -0.285 N 
ATOM     33  C   UNL     1       1.697   5.173   4.061  0.00  0.00    +0.310 C 
ATOM     34  O   UNL     1       2.566   4.929   3.248  0.00  0.00    -0.252 OA
ATOM     35  H   UNL     1       2.516   6.780   5.093  0.00  0.00    +0.151 HD
ENDBRANCH  22  23
ENDBRANCH   7  22
TORSDOF 4
