REMARK  Name = ZINC35778877
REMARK  16 active torsions:
REMARK  status: ('A' for Active; 'I' for Inactive)
REMARK    1  A    between atoms: C_1  and  C_2
REMARK    2  A    between atoms: C_2  and  C_3
REMARK    3  A    between atoms: C_3  and  C_5
REMARK    4  A    between atoms: C_3  and  O_34
REMARK    5  A    between atoms: C_5  and  N_6
REMARK    6  A    between atoms: N_6  and  C_7
REMARK    7  A    between atoms: N_6  and  C_11
REMARK    8  A    between atoms: C_7  and  C_8
REMARK    9  A    between atoms: C_8  and  C_9
REMARK   10  A    between atoms: C_8  and  C_10
REMARK   11  A    between atoms: C_11  and  C_12
REMARK   12  A    between atoms: C_22  and  C_24
REMARK   13  A    between atoms: C_24  and  O_25
REMARK   14  A    between atoms: O_25  and  C_26
REMARK   15  A    between atoms: C_29  and  O_32
REMARK   16  A    between atoms: O_32  and  C_33
REMARK                            x       y       z     vdW  Elec       q    Type
REMARK                         _______ _______ _______ _____ _____    ______ ____
ROOT
ATOM      1  C   UNL     1      -3.478  -5.338   0.695  0.00  0.00    +0.200 C 
ATOM      2  O   UNL     1      -4.608  -4.904   0.625  0.00  0.00    -0.278 OA
ATOM      3  N   UNL     1      -3.268  -6.611   1.083  0.00  0.00    -0.292 N 
ATOM      4  C   UNL     1      -1.901  -7.146   1.177  0.00  0.00    +0.113 C 
ATOM      5  C   UNL     1      -1.613  -7.477   2.650  0.00  0.00    +0.061 C 
ATOM      6  C   UNL     1      -2.812  -8.154   3.232  0.00  0.00    -0.004 A 
ATOM      7  C   UNL     1      -4.077  -8.187   2.733  0.00  0.00    -0.014 A 
ATOM      8  C   UNL     1      -5.025  -8.887   3.479  0.00  0.00    +0.013 A 
ATOM      9  C   UNL     1      -4.664  -9.493   4.633  0.00  0.00    +0.046 A 
ATOM     10  S   UNL     1      -2.925  -9.098   4.728  0.00  0.00    -0.101 S 
ATOM     11  C   UNL     1      -4.401  -7.483   1.422  0.00  0.00    +0.144 C 
ENDROOT
BRANCH   1  12
ATOM     12  C   UNL     1      -2.308  -4.453   0.350  0.00  0.00    +0.019 C 
BRANCH  12  13
ATOM     13  N   UNL     1      -2.783  -3.082   0.117  0.00  0.00    +0.387 N 
ATOM     14  H   UNL     1      -3.785  -3.089  -0.000  0.00  0.00    -0.081 HD
BRANCH  13  15
ATOM     15  C   UNL     1      -2.152  -2.545  -1.096  0.00  0.00    -0.047 C 
BRANCH  15  16
ATOM     16  C   UNL     1      -2.779  -1.192  -1.441  0.00  0.00    +0.098 C 
BRANCH  16  18
ATOM     17  C   UNL     1      -2.622   0.800  -2.940  0.00  0.00    +0.006 C 
ATOM     18  C   UNL     1      -2.082  -0.605  -2.670  0.00  0.00    +0.026 C 
ENDBRANCH  16  18
BRANCH  16  19
ATOM     19  O   UNL     1      -4.169  -1.369  -1.720  0.00  0.00    -0.394 OA
ATOM     20  H   UNL     1      -4.348  -1.964  -2.461  0.00  0.00    +0.210 HD
ENDBRANCH  16  19
ENDBRANCH  15  16
ENDBRANCH  13  15
BRANCH  13  21
ATOM     21  C   UNL     1      -2.430  -2.240   1.267  0.00  0.00    -0.075 C 
BRANCH  21  22
ATOM     22  C   UNL     1      -3.232  -2.686   2.491  0.00  0.00    -0.034 C 
ATOM     23  C   UNL     1      -2.743  -1.926   3.726  0.00  0.00    +0.005 C 
ATOM     24  C   UNL     1      -4.716  -2.389   2.265  0.00  0.00    +0.005 C 
ENDBRANCH  21  22
ENDBRANCH  13  21
ENDBRANCH  12  13
ENDBRANCH   1  12
BRANCH  11  25
ATOM     25  C   UNL     1      -4.604  -8.522   0.317  0.00  0.00    +0.256 C 
BRANCH  25  26
ATOM     26  O   UNL     1      -3.468  -9.388   0.263  0.00  0.00    -0.490 OA
BRANCH  26  27
ATOM     27  C   UNL     1      -3.488 -10.375  -0.672  0.00  0.00    +0.121 A 
ATOM     28  C   UNL     1      -4.577 -10.503  -1.522  0.00  0.00    +0.049 A 
ATOM     29  C   UNL     1      -4.598 -11.506  -2.472  0.00  0.00    +0.049 A 
ATOM     30  C   UNL     1      -3.530 -12.385  -2.575  0.00  0.00    +0.120 A 
ATOM     31  C   UNL     1      -2.441 -12.257  -1.726  0.00  0.00    +0.049 A 
ATOM     32  C   UNL     1      -2.418 -11.251  -0.779  0.00  0.00    +0.049 A 
BRANCH  30  33
ATOM     33  O   UNL     1      -3.551 -13.373  -3.510  0.00  0.00    -0.495 OA
ATOM     34  C   UNL     1      -2.417 -14.242  -3.560  0.00  0.00    +0.277 C 
ENDBRANCH  30  33
ENDBRANCH  26  27
ENDBRANCH  25  26
ENDBRANCH  11  25
TORSDOF 12
