REMARK  Name = ZINC27562751
REMARK  6 active torsions:
REMARK  status: ('A' for Active; 'I' for Inactive)
REMARK    1  A    between atoms: C_1  and  O_2
REMARK    2  A    between atoms: O_2  and  C_3
REMARK    3  A    between atoms: N_5  and  C_6
REMARK    4  A    between atoms: C_9  and  C_20
REMARK    5  A    between atoms: C_11  and  S_12
REMARK    6  A    between atoms: S_12  and  C_13
REMARK                            x       y       z     vdW  Elec       q    Type
REMARK                         _______ _______ _______ _____ _____    ______ ____
ROOT
ATOM      1  C   UNL     1       0.044  -2.693  -0.007  0.00  0.00    +0.109 A 
ATOM      2  C   UNL     1       1.027  -1.973   0.677  0.00  0.00    +0.143 A 
ATOM      3  N   UNL     1       0.985  -0.645   0.659  0.00  0.00    -0.211 NA
ATOM      4  C   UNL     1       0.027  -0.004   0.004  0.00  0.00    +0.163 A 
ATOM      5  N   UNL     1      -0.926  -0.651  -0.652  0.00  0.00    -0.219 NA
ATOM      6  C   UNL     1      -0.948  -1.980  -0.685  0.00  0.00    +0.129 A 
ATOM      7  N   UNL     1       2.034  -2.636   1.366  0.00  0.00    -0.342 N 
ATOM      8  H   UNL     1       2.804  -2.062   1.902  0.00  0.00    +0.144 HD
ATOM      9  H   UNL     1       2.062  -3.736   1.376  0.00  0.00    +0.144 HD
ENDROOT
BRANCH   4  10
ATOM     10  C   UNL     1       0.017   1.479   0.010  0.00  0.00    +0.019 A 
ATOM     11  C   UNL     1      -0.900   2.176  -0.775  0.00  0.00    +0.011 A 
ATOM     12  C   UNL     1      -0.907   3.557  -0.760  0.00  0.00    +0.001 A 
ATOM     13  C   UNL     1       0.000   4.248   0.022  0.00  0.00    +0.000 A 
ATOM     14  C   UNL     1       0.916   3.561   0.798  0.00  0.00    +0.001 A 
ATOM     15  C   UNL     1       0.929   2.181   0.796  0.00  0.00    +0.011 A 
ENDBRANCH   4  10
BRANCH   1  18
ATOM     16  C   UNL     1      -1.064  -4.780   0.305  0.00  0.00    +0.404 C 
ATOM     17  O   UNL     1      -2.105  -4.184   0.500  0.00  0.00    -0.226 OA
ATOM     18  N   UNL     1       0.053  -4.097  -0.013  0.00  0.00    -0.246 N 
ATOM     19  H   UNL     1       0.973  -4.640  -0.277  0.00  0.00    +0.158 HD
BRANCH  16  21
ATOM     20  C   UNL     1      -2.268  -6.791   0.753  0.00  0.00    +0.282 C 
ATOM     21  O   UNL     1      -1.027  -6.122   0.407  0.00  0.00    -0.453 OA
ENDBRANCH  16  21
ENDBRANCH   1  18
BRANCH   6  22
ATOM     22  S   UNL     1      -2.215  -2.831  -1.566  0.00  0.00    -0.068 S 
BRANCH  22  23
ATOM     23  C   UNL     1      -3.293  -1.547  -2.108  0.00  0.00    +0.014 A 
ATOM     24  C   UNL     1      -4.299  -1.082  -1.270  0.00  0.00    +0.016 A 
ATOM     25  C   UNL     1      -5.138  -0.071  -1.695  0.00  0.00    +0.021 A 
ATOM     26  C   UNL     1      -4.986   0.470  -2.959  0.00  0.00    +0.041 A 
ATOM     27  C   UNL     1      -3.989   0.005  -3.799  0.00  0.00    +0.021 A 
ATOM     28  C   UNL     1      -3.143  -1.001  -3.377  0.00  0.00    +0.016 A 
ATOM     29 CL   UNL     1      -6.048   1.735  -3.494  0.00  0.00    -0.084 Cl
ENDBRANCH  22  23
ENDBRANCH   6  22
TORSDOF 5
