REMARK  Name = ZINC15114447
REMARK  10 active torsions:
REMARK  status: ('A' for Active; 'I' for Inactive)
REMARK    1  A    between atoms: C_1  and  C_2
REMARK    2  A    between atoms: C_2  and  C_3
REMARK    3  A    between atoms: C_5  and  N_18
REMARK    4  A    between atoms: C_15  and  C_16
REMARK    5  A    between atoms: N_18  and  C_19
REMARK    6  A    between atoms: C_19  and  C_20
REMARK    7  A    between atoms: C_20  and  C_21
REMARK    8  A    between atoms: C_21  and  C_22
REMARK    9  A    between atoms: C_23  and  C_29
REMARK   10  A    between atoms: C_24  and  N_28
REMARK                            x       y       z     vdW  Elec       q    Type
REMARK                         _______ _______ _______ _____ _____    ______ ____
ROOT
ATOM      1  C   UNL     1       0.732  -0.494   1.226  0.00  0.00    -0.024 A 
ATOM      2  C   UNL     1       2.115  -0.605   1.218  0.00  0.00    +0.047 A 
ATOM      3  C   UNL     1       2.792  -1.069   2.324  0.00  0.00    +0.105 A 
ATOM      4  N   UNL     1       2.133  -1.435   3.463  0.00  0.00    -0.279 N 
ATOM      5  C   UNL     1       2.577  -1.921   4.681  0.00  0.00    +0.075 A 
ATOM      6  C   UNL     1       3.831  -2.214   5.199  0.00  0.00    +0.028 A 
ATOM      7  C   UNL     1       3.944  -2.698   6.485  0.00  0.00    +0.002 A 
ATOM      8  C   UNL     1       2.812  -2.893   7.265  0.00  0.00    +0.002 A 
ATOM      9  C   UNL     1       1.570  -2.611   6.773  0.00  0.00    +0.030 A 
ATOM     10  C   UNL     1       1.431  -2.119   5.471  0.00  0.00    +0.090 A 
ATOM     11  N   UNL     1       0.360  -1.755   4.725  0.00  0.00    -0.226 NA
ATOM     12  C   UNL     1       0.764  -1.349   3.535  0.00  0.00    +0.158 A 
ATOM     13  C   UNL     1       0.021  -0.852   2.372  0.00  0.00    +0.098 A 
ENDROOT
BRANCH   1  15
ATOM     14  C   UNL     1      -0.017   1.544   0.029  0.00  0.00    +0.009 C 
ATOM     15  C   UNL     1       0.004   0.015   0.009  0.00  0.00    +0.033 C 
ENDBRANCH   1  15
BRANCH  13  16
ATOM     16  C   UNL     1      -1.406  -0.743   2.410  0.00  0.00    +0.103 C 
ATOM     17  N   UNL     1      -2.538  -0.656   2.440  0.00  0.00    -0.191 NA
ENDBRANCH  13  16
BRANCH   3  18
ATOM     18  N   UNL     1       4.162  -1.165   2.281  0.00  0.00    -0.330 N 
ATOM     19  H   UNL     1       4.657  -1.414   3.077  0.00  0.00    +0.147 HD
BRANCH  18  20
ATOM     20  C   UNL     1       4.877  -0.891   1.031  0.00  0.00    +0.103 C 
BRANCH  20  21
ATOM     21  C   UNL     1       6.380  -1.069   1.254  0.00  0.00    +0.025 C 
BRANCH  21  22
ATOM     22  C   UNL     1       7.126  -0.783  -0.051  0.00  0.00    +0.060 C 
BRANCH  22  23
ATOM     23  C   UNL     1       8.607  -0.958   0.168  0.00  0.00    +0.082 A 
ATOM     24  C   UNL     1       9.507   0.049   0.586  0.00  0.00    +0.113 A 
ATOM     25  C   UNL     1      10.768  -0.537   0.660  0.00  0.00    +0.129 A 
ATOM     26  N   UNL     1      10.625  -1.831   0.305  0.00  0.00    -0.263 N 
ATOM     27  H   UNL     1      11.336  -2.490   0.263  0.00  0.00    +0.190 HD
ATOM     28  N   UNL     1       9.277  -2.064   0.011  0.00  0.00    -0.176 NA
BRANCH  25  29
ATOM     29  N   UNL     1      11.944   0.088   1.029  0.00  0.00    -0.342 N 
ATOM     30  H   UNL     1      11.939   1.028   1.268  0.00  0.00    +0.144 HD
ATOM     31  H   UNL     1      12.774  -0.414   1.049  0.00  0.00    +0.144 HD
ENDBRANCH  25  29
BRANCH  24  32
ATOM     32  C   UNL     1       9.185   1.414   0.876  0.00  0.00    +0.104 C 
ATOM     33  N   UNL     1       8.929   2.497   1.106  0.00  0.00    -0.191 NA
ENDBRANCH  24  32
ENDBRANCH  22  23
ENDBRANCH  21  22
ENDBRANCH  20  21
ENDBRANCH  18  20
ENDBRANCH   3  18
TORSDOF 9
