REMARK  Name = ZINC20696057
REMARK  7 active torsions:
REMARK  status: ('A' for Active; 'I' for Inactive)
REMARK    1  A    between atoms: C_1  and  C_2
REMARK    2  A    between atoms: C_2  and  C_3
REMARK    3  A    between atoms: C_2  and  N_4
REMARK    4  A    between atoms: N_4  and  S_5
REMARK    5  A    between atoms: S_5  and  C_8
REMARK    6  A    between atoms: C_21  and  C_24
REMARK    7  A    between atoms: C_29  and  O_30
REMARK                            x       y       z     vdW  Elec       q    Type
REMARK                         _______ _______ _______ _____ _____    ______ ____
ROOT
ATOM      1  C   UNL     1      -1.026   5.320   1.300  0.00  0.00    +0.106 A 
ATOM      2  C   UNL     1      -1.021   4.097   1.946  0.00  0.00    +0.030 A 
ATOM      3  C   UNL     1      -2.201   3.584   2.448  0.00  0.00    +0.025 A 
ATOM      4  C   UNL     1      -3.387   4.292   2.298  0.00  0.00    +0.031 A 
ATOM      5  C   UNL     1      -3.395   5.522   1.658  0.00  0.00    -0.018 A 
ATOM      6  C   UNL     1      -2.203   6.027   1.157  0.00  0.00    +0.034 A 
ATOM      7  C   UNL     1      -4.645   6.324   1.482  0.00  0.00    +0.049 C 
ATOM      8  C   UNL     1      -5.143   6.249   0.046  0.00  0.00    -0.023 C 
ATOM      9  C   UNL     1      -6.453   6.229   0.022  0.00  0.00    -0.030 C 
ATOM     10  C   UNL     1      -7.011   6.289   1.431  0.00  0.00    +0.033 C 
ATOM     11  C   UNL     1      -5.827   5.788   2.309  0.00  0.00    +0.029 C 
ATOM     12  C   UNL     1      -5.847   4.257   2.272  0.00  0.00    +0.108 C 
ATOM     13  N   UNL     1      -4.575   3.753   2.801  0.00  0.00    -0.336 N 
ATOM     14  H   UNL     1      -4.573   2.970   3.574  0.00  0.00    +0.147 HD
ENDROOT
BRANCH  12  15
ATOM     15  C   UNL     1      -6.024   3.789   0.851  0.00  0.00    +0.015 A 
ATOM     16  C   UNL     1      -4.920   3.611   0.039  0.00  0.00    +0.024 A 
ATOM     17  C   UNL     1      -5.082   3.182  -1.266  0.00  0.00    +0.018 A 
ATOM     18  C   UNL     1      -6.349   2.930  -1.761  0.00  0.00    +0.019 A 
ATOM     19  C   UNL     1      -7.455   3.106  -0.953  0.00  0.00    +0.047 A 
ATOM     20  C   UNL     1      -7.294   3.531   0.358  0.00  0.00    +0.122 A 
ATOM     21 BR   UNL     1      -3.569   2.940  -2.374  0.00  0.00    -0.050 Br
BRANCH  20  22
ATOM     22  O   UNL     1      -8.381   3.700   1.156  0.00  0.00    -0.506 OA
ATOM     23  H   UNL     1      -9.389   3.495   0.765  0.00  0.00    +0.292 HD
ENDBRANCH  20  22
ENDBRANCH  12  15
BRANCH   1  24
ATOM     24  S   UNL     1       0.476   5.978   0.658  0.00  0.00    +0.059 S 
ATOM     25  O   UNL     1       0.305   7.387   0.586  0.00  0.00    -0.153 OA
ATOM     26  O   UNL     1       1.532   5.376   1.394  0.00  0.00    -0.153 OA
BRANCH  24  27
ATOM     27  N   UNL     1       0.620   5.439  -0.902  0.00  0.00    -0.187 NA
ATOM     28  H   UNL     1       1.400   4.703  -1.146  0.00  0.00    +0.148 HD
BRANCH  27  30
ATOM     29  C   UNL     1       0.185   6.681  -2.963  0.00  0.00    +0.025 C 
ATOM     30  C   UNL     1      -0.411   5.769  -1.889  0.00  0.00    +0.070 C 
ATOM     31  C   UNL     1      -0.925   4.483  -2.539  0.00  0.00    +0.025 C 
ENDBRANCH  27  30
ENDBRANCH  24  27
ENDBRANCH   1  24
TORSDOF 5
