REMARK  Name = ZINC03376286
REMARK  9 active torsions:
REMARK  status: ('A' for Active; 'I' for Inactive)
REMARK    1  A    between atoms: C_1  and  C_2
REMARK    2  A    between atoms: C_2  and  C_4
REMARK    3  A    between atoms: C_2  and  N_57
REMARK    4  A    between atoms: C_7  and  S_16
REMARK    5  A    between atoms: N_8  and  C_9
REMARK    6  A    between atoms: S_16  and  C_17
REMARK    7  A    between atoms: C_17  and  C_18
REMARK    8  A    between atoms: C_33  and  N_57
REMARK    9  A    between atoms: C_34  and  N_57
REMARK                            x       y       z     vdW  Elec       q    Type
REMARK                         _______ _______ _______ _____ _____    ______ ____
ROOT
ATOM      1  C   UNL     1       0.880   0.068   4.622  0.00  0.00    +0.125 A 
ATOM      2  N   UNL     1       1.714  -0.194   3.655  0.00  0.00    -0.135 NA
ATOM      3  N   UNL     1       1.219   0.183   2.530  0.00  0.00    -0.122 NA
ATOM      4  C   UNL     1       0.032   0.711   2.718  0.00  0.00    +0.196 A 
ATOM      5  N   UNL     1      -0.221   0.660   4.062  0.00  0.00    -0.275 N 
ENDROOT
BRANCH   5   6
ATOM      6  C   UNL     1      -1.369   1.115   4.727  0.00  0.00    +0.050 A 
ATOM      7  C   UNL     1      -1.279   2.167   5.628  0.00  0.00    +0.028 A 
ATOM      8  C   UNL     1      -2.412   2.617   6.278  0.00  0.00    +0.022 A 
ATOM      9  C   UNL     1      -3.634   2.012   6.039  0.00  0.00    +0.041 A 
ATOM     10  C   UNL     1      -3.724   0.960   5.146  0.00  0.00    +0.022 A 
ATOM     11  C   UNL     1      -2.595   0.510   4.489  0.00  0.00    +0.028 A 
ATOM     12 CL   UNL     1      -5.054   2.575   6.862  0.00  0.00    -0.084 Cl
ENDBRANCH   5   6
BRANCH   1  14
ATOM     13  C   UNL     1       0.914  -1.718   6.341  0.00  0.00    -0.005 C 
ATOM     14  C   UNL     1       1.092  -0.220   6.086  0.00  0.00    -0.003 C 
BRANCH  14  17
ATOM     15  C   UNL     1       2.689   1.599   6.155  0.00  0.00    -0.096 C 
ATOM     16  C   UNL     1       2.692  -0.083   7.897  0.00  0.00    -0.096 C 
ATOM     17  N   UNL     1       2.469   0.169   6.458  0.00  0.00    +0.382 N 
ATOM     18  H   UNL     1       3.133  -0.394   5.914  0.00  0.00    -0.082 HD
ENDBRANCH  14  17
ENDBRANCH   1  14
BRANCH   4  19
ATOM     19  S   UNL     1      -1.032   1.369   1.477  0.00  0.00    -0.081 S 
BRANCH  19  20
ATOM     20  C   UNL     1      -0.013   1.086   0.008  0.00  0.00    +0.113 C 
BRANCH  20  21
ATOM     21  C   UNL     1      -0.741   1.585  -1.212  0.00  0.00    -0.019 A 
ATOM     22  C   UNL     1      -1.661   0.752  -1.788  0.00  0.00    +0.097 A 
ATOM     23  C   UNL     1      -2.509   1.239  -2.800  0.00  0.00    +0.338 A 
ATOM     24  O   UNL     1      -3.306   0.491  -3.335  0.00  0.00    -0.245 OA
ATOM     25  O   UNL     1      -2.442   2.525  -3.177  0.00  0.00    -0.422 OA
ATOM     26  C   UNL     1      -1.470   3.335  -2.708  0.00  0.00    +0.140 A 
ATOM     27  C   UNL     1      -0.526   2.856  -1.782  0.00  0.00    +0.029 A 
ATOM     28  C   UNL     1       0.646   3.692  -1.526  0.00  0.00    -0.007 A 
ATOM     29  C   UNL     1       1.832   3.226  -0.958  0.00  0.00    +0.009 A 
ATOM     30  C   UNL     1       2.827   4.098  -0.614  0.00  0.00    +0.001 A 
ATOM     31  C   UNL     1       2.683   5.465  -0.822  0.00  0.00    +0.001 A 
ATOM     32  C   UNL     1       1.573   5.952  -1.444  0.00  0.00    +0.008 A 
ATOM     33  C   UNL     1       0.576   5.066  -1.882  0.00  0.00    -0.017 A 
ATOM     34  C   UNL     1      -0.490   5.528  -2.677  0.00  0.00    +0.012 A 
ATOM     35  C   UNL     1      -1.453   4.677  -3.102  0.00  0.00    +0.047 A 
ENDBRANCH  20  21
ENDBRANCH  19  20
ENDBRANCH   4  19
TORSDOF 6
