REMARK  Name = ZINC32599817
REMARK  12 active torsions:
REMARK  status: ('A' for Active; 'I' for Inactive)
REMARK    1  A    between atoms: C_1  and  C_2
REMARK    2  A    between atoms: C_2  and  C_3
REMARK    3  A    between atoms: C_2  and  C_4
REMARK    4  A    between atoms: C_4  and  N_6
REMARK    5  A    between atoms: C_4  and  N_29
REMARK    6  A    between atoms: C_7  and  C_9
REMARK    7  A    between atoms: C_9  and  C_11
REMARK    8  A    between atoms: C_9  and  N_18
REMARK    9  A    between atoms: C_11  and  C_12
REMARK   10  A    between atoms: C_19  and  O_21
REMARK   11  A    between atoms: O_21  and  C_22
REMARK   12  A    between atoms: C_22  and  C_23
REMARK                            x       y       z     vdW  Elec       q    Type
REMARK                         _______ _______ _______ _____ _____    ______ ____
ROOT
ATOM      1  C   UNL     1       0.760  -6.043   2.493  0.00  0.00    +0.166 C 
ENDROOT
BRANCH   1   3
ATOM      2  N   UNL     1       1.140  -4.151   0.946  0.00  0.00    -0.292 N 
ATOM      3  C   UNL     1       0.272  -5.021   1.498  0.00  0.00    +0.235 C 
ATOM      4  O   UNL     1      -0.901  -4.982   1.195  0.00  0.00    -0.274 OA
ATOM      5  H   UNL     1       2.205  -4.186   1.221  0.00  0.00    +0.151 HD
BRANCH   2   6
ATOM      6  C   UNL     1       0.666  -3.157  -0.021  0.00  0.00    +0.197 C 
BRANCH   6   7
ATOM      7  N   UNL     1       1.574  -2.007  -0.024  0.00  0.00    -0.223 N 
ATOM      8  C   UNL     1       1.218  -0.679  -0.013  0.00  0.00    +0.091 A 
ATOM      9  C   UNL     1       0.002  -0.004   0.002  0.00  0.00    +0.030 A 
ATOM     10  C   UNL     1      -0.017   1.362   0.009  0.00  0.00    +0.002 A 
ATOM     11  C   UNL     1       1.170   2.085   0.002  0.00  0.00    +0.002 A 
ATOM     12  C   UNL     1       2.375   1.447  -0.013  0.00  0.00    +0.032 A 
ATOM     13  C   UNL     1       2.422   0.047  -0.021  0.00  0.00    +0.113 A 
ATOM     14  N   UNL     1       3.435  -0.842  -0.035  0.00  0.00    -0.129 NA
ATOM     15  N   UNL     1       2.976  -2.043  -0.037  0.00  0.00    -0.063 NA
ENDBRANCH   6   7
BRANCH   6  17
ATOM     16  C   UNL     1       0.136  -2.744  -2.428  0.00  0.00    +0.011 C 
ATOM     17  C   UNL     1       0.630  -3.781  -1.418  0.00  0.00    +0.025 C 
ATOM     18  C   UNL     1       2.037  -4.242  -1.807  0.00  0.00    +0.011 C 
ENDBRANCH   6  17
ENDBRANCH   2   6
ENDBRANCH   1   3
BRANCH   1  19
ATOM     19  N   UNL     1      -0.368  -6.863   2.942  0.00  0.00    -0.269 N 
ATOM     20  C   UNL     1      -0.151  -8.110   3.407  0.00  0.00    +0.401 C 
ATOM     21  O   UNL     1       0.979  -8.553   3.453  0.00  0.00    -0.226 OA
ATOM     22  H   UNL     1      -1.391  -6.462   2.901  0.00  0.00    +0.153 HD
BRANCH  20  23
ATOM     23  O   UNL     1      -1.187  -8.863   3.820  0.00  0.00    -0.446 OA
BRANCH  23  24
ATOM     24  C   UNL     1      -0.880 -10.196   4.309  0.00  0.00    +0.269 C 
BRANCH  24  25
ATOM     25  C   UNL     1      -2.154 -10.885   4.723  0.00  0.00    -0.010 A 
ATOM     26  C   UNL     1      -2.610 -10.771   6.024  0.00  0.00    +0.007 A 
ATOM     27  C   UNL     1      -3.781 -11.400   6.403  0.00  0.00    +0.000 A 
ATOM     28  C   UNL     1      -4.491 -12.151   5.485  0.00  0.00    +0.000 A 
ATOM     29  C   UNL     1      -4.032 -12.270   4.186  0.00  0.00    +0.000 A 
ATOM     30  C   UNL     1      -2.864 -11.637   3.805  0.00  0.00    +0.007 A 
ENDBRANCH  24  25
ENDBRANCH  23  24
ENDBRANCH  20  23
ENDBRANCH   1  19
BRANCH   1  31
ATOM     31  C   UNL     1       1.382  -5.329   3.694  0.00  0.00    +0.067 C 
BRANCH  31  32
ATOM     32  C   UNL     1       1.979  -6.348   4.630  0.00  0.00    -0.045 A 
ATOM     33  C   UNL     1       1.212  -6.885   5.647  0.00  0.00    +0.004 A 
ATOM     34  C   UNL     1       1.758  -7.823   6.503  0.00  0.00    +0.000 A 
ATOM     35  C   UNL     1       3.074  -8.216   6.348  0.00  0.00    +0.000 A 
ATOM     36  C   UNL     1       3.843  -7.675   5.335  0.00  0.00    +0.000 A 
ATOM     37  C   UNL     1       3.295  -6.741   4.476  0.00  0.00    +0.004 A 
ENDBRANCH  31  32
ENDBRANCH   1  31
TORSDOF 10
