REMARK  Name = ZINC01067223
REMARK  9 active torsions:
REMARK  status: ('A' for Active; 'I' for Inactive)
REMARK    1  A    between atoms: C_1  and  O_2
REMARK    2  A    between atoms: O_2  and  C_3
REMARK    3  A    between atoms: C_6  and  C_11
REMARK    4  A    between atoms: C_8  and  O_9
REMARK    5  A    between atoms: O_9  and  C_10
REMARK    6  A    between atoms: C_16  and  C_26
REMARK    7  A    between atoms: C_28  and  O_34
REMARK    8  A    between atoms: C_29  and  O_33
REMARK    9  A    between atoms: O_34  and  C_35
REMARK                            x       y       z     vdW  Elec       q    Type
REMARK                         _______ _______ _______ _____ _____    ______ ____
ROOT
ATOM      1  C   UNL     1       5.219   3.300   3.837  0.00  0.00    +0.032 C 
ATOM      2  C   UNL     1       5.588   1.885   3.394  0.00  0.00    +0.059 C 
ATOM      3  C   UNL     1       5.232   1.694   1.929  0.00  0.00    +0.017 C 
ATOM      4  C   UNL     1       4.165   2.317   1.402  0.00  0.00    +0.036 C 
ATOM      5  C   UNL     1       3.676   2.187  -0.021  0.00  0.00    +0.136 C 
ATOM      6  N   UNL     1       4.601   1.520  -0.914  0.00  0.00    -0.331 N 
ATOM      7  C   UNL     1       4.941   0.181  -0.730  0.00  0.00    +0.049 A 
ATOM      8  C   UNL     1       4.548  -0.794  -1.633  0.00  0.00    +0.025 A 
ATOM      9  C   UNL     1       4.813  -2.124  -1.355  0.00  0.00    +0.002 A 
ATOM     10  C   UNL     1       5.466  -2.479  -0.189  0.00  0.00    +0.002 A 
ATOM     11  C   UNL     1       5.880  -1.505   0.704  0.00  0.00    +0.025 A 
ATOM     12  C   UNL     1       5.630  -0.173   0.419  0.00  0.00    +0.052 A 
ATOM     13  N   UNL     1       6.057   0.856   1.250  0.00  0.00    -0.316 N 
ATOM     14  C   UNL     1       3.386   3.191   2.196  0.00  0.00    +0.163 C 
ATOM     15  O   UNL     1       2.419   3.731   1.696  0.00  0.00    -0.292 OA
ATOM     16  C   UNL     1       3.709   3.475   3.632  0.00  0.00    +0.088 C 
ATOM     17  H   UNL     1       4.990   2.014  -1.652  0.00  0.00    +0.147 HD
ATOM     18  H   UNL     1       7.013   0.986   1.353  0.00  0.00    +0.152 HD
ENDROOT
BRANCH   5  19
ATOM     19  C   UNL     1       2.381   1.416  -0.013  0.00  0.00    -0.018 A 
ATOM     20  C   UNL     1       1.214   2.023  -0.441  0.00  0.00    +0.055 A 
ATOM     21  C   UNL     1       0.022   1.317  -0.434  0.00  0.00    +0.163 A 
ATOM     22  C   UNL     1       0.002  -0.004   0.004  0.00  0.00    +0.177 A 
ATOM     23  C   UNL     1       1.175  -0.607   0.431  0.00  0.00    +0.086 A 
ATOM     24  C   UNL     1       2.361   0.104   0.422  0.00  0.00    +0.029 A 
ATOM     25 CL   UNL     1       1.154  -2.255   0.978  0.00  0.00    -0.080 Cl
BRANCH  22  26
ATOM     26  O   UNL     1      -1.166  -0.701   0.013  0.00  0.00    -0.502 OA
ATOM     27  H   UNL     1      -1.345  -1.179  -0.809  0.00  0.00    +0.292 HD
ENDBRANCH  22  26
BRANCH  21  28
ATOM     28  O   UNL     1      -1.124   1.911  -0.860  0.00  0.00    -0.491 OA
ATOM     29  C   UNL     1      -1.028   3.269  -1.295  0.00  0.00    +0.277 C 
ENDBRANCH  21  28
ENDBRANCH   5  19
BRANCH   1  33
ATOM     30  C   UNL     1       6.184   3.818   7.971  0.00  0.00    +0.161 A 
ATOM     31  C   UNL     1       5.282   2.840   7.585  0.00  0.00    +0.049 A 
ATOM     32  C   UNL     1       4.968   2.679   6.248  0.00  0.00    +0.008 A 
ATOM     33  C   UNL     1       5.560   3.484   5.294  0.00  0.00    -0.040 A 
ATOM     34  C   UNL     1       6.462   4.461   5.672  0.00  0.00    +0.053 A 
ATOM     35  C   UNL     1       6.777   4.632   7.011  0.00  0.00    +0.162 A 
BRANCH  30  37
ATOM     36  C   UNL     1       5.844   3.110  10.216  0.00  0.00    +0.277 C 
ATOM     37  O   UNL     1       6.490   3.981   9.286  0.00  0.00    -0.491 OA
ENDBRANCH  30  37
BRANCH  35  38
ATOM     38  O   UNL     1       7.663   5.593   7.385  0.00  0.00    -0.491 OA
ATOM     39  C   UNL     1       8.231   6.392   6.345  0.00  0.00    +0.277 C 
ENDBRANCH  35  38
ENDBRANCH   1  33
TORSDOF 6
