REMARK  Name = ZINC01434536
REMARK  5 active torsions:
REMARK  status: ('A' for Active; 'I' for Inactive)
REMARK    1  A    between atoms: C_1  and  N_48
REMARK    2  A    between atoms: C_4  and  C_5
REMARK    3  A    between atoms: C_15  and  C_23
REMARK    4  A    between atoms: C_17  and  C_21
REMARK    5  A    between atoms: C_18  and  N_20
REMARK                            x       y       z     vdW  Elec       q    Type
REMARK                         _______ _______ _______ _____ _____    ______ ____
ROOT
ATOM      1  C   UNL     1       3.444   7.720  -0.681  0.00  0.00    -0.095 C 
ATOM      2  C   UNL     1       2.361   5.768   0.262  0.00  0.00    -0.039 C 
ATOM      3  C   UNL     1       2.337   4.259   0.144  0.00  0.00    -0.021 C 
ATOM      4  C   UNL     1       1.177   3.584   0.067  0.00  0.00    +0.013 C 
ATOM      5  C   UNL     1       3.636   3.555   0.111  0.00  0.00    +0.130 C 
ATOM      6  C   UNL     1       4.763   4.256  -0.026  0.00  0.00    -0.031 C 
ATOM      7  C   UNL     1       4.746   5.760  -0.129  0.00  0.00    -0.043 C 
ATOM      8  C   UNL     1       6.098   3.551  -0.073  0.00  0.00    +0.092 C 
ATOM      9  C   UNL     1       5.977   2.162   0.484  0.00  0.00    +0.098 C 
ATOM     10  C   UNL     1       4.764   1.566   0.602  0.00  0.00    +0.199 C 
ATOM     11  O   UNL     1       3.643   2.204   0.221  0.00  0.00    -0.441 OA
ATOM     12  N   UNL     1       3.446   6.242  -0.624  0.00  0.00    +0.383 N 
ATOM     13  H   UNL     1       3.291   5.871  -1.569  0.00  0.00    -0.081 HD
ENDROOT
BRANCH   4  14
ATOM     14  C   UNL     1       1.177   2.158  -0.302  0.00  0.00    -0.022 A 
ATOM     15  C   UNL     1       0.407   1.244   0.424  0.00  0.00    +0.008 A 
ATOM     16  C   UNL     1       0.411  -0.089   0.073  0.00  0.00    +0.003 A 
ATOM     17  C   UNL     1       1.175  -0.525  -0.996  0.00  0.00    +0.038 A 
ATOM     18  C   UNL     1       1.940   0.374  -1.722  0.00  0.00    +0.124 A 
ATOM     19  C   UNL     1       1.945   1.713  -1.381  0.00  0.00    +0.046 A 
ATOM     20  F   UNL     1       2.682  -0.060  -2.764  0.00  0.00    -0.205 F 
ENDBRANCH   4  14
BRANCH   8  21
ATOM     21  C   UNL     1       6.567   3.476  -1.504  0.00  0.00    -0.032 A 
ATOM     22  C   UNL     1       7.753   4.081  -1.875  0.00  0.00    +0.005 A 
ATOM     23  C   UNL     1       8.184   4.013  -3.186  0.00  0.00    +0.003 A 
ATOM     24  C   UNL     1       7.430   3.338  -4.128  0.00  0.00    +0.038 A 
ATOM     25  C   UNL     1       6.243   2.731  -3.757  0.00  0.00    +0.124 A 
ATOM     26  C   UNL     1       5.814   2.796  -2.442  0.00  0.00    +0.043 A 
ATOM     27  F   UNL     1       5.505   2.072  -4.677  0.00  0.00    -0.205 F 
ENDBRANCH   8  21
BRANCH  10  28
ATOM     28  N   UNL     1       4.679   0.296   1.115  0.00  0.00    -0.328 N 
ATOM     29  H   UNL     1       3.828  -0.169   1.121  0.00  0.00    +0.145 HD
ATOM     30  H   UNL     1       5.471  -0.137   1.471  0.00  0.00    +0.145 HD
ENDBRANCH  10  28
BRANCH   9  31
ATOM     31  C   UNL     1       7.154   1.458   0.895  0.00  0.00    +0.101 C 
ATOM     32  N   UNL     1       8.088   0.900   1.222  0.00  0.00    -0.191 NA
ENDBRANCH   9  31
TORSDOF 4
