REMARK  Name = ZINC20832223
REMARK  12 active torsions:
REMARK  status: ('A' for Active; 'I' for Inactive)
REMARK    1  A    between atoms: C_1  and  C_2
REMARK    2  A    between atoms: C_2  and  O_3
REMARK    3  A    between atoms: O_3  and  C_4
REMARK    4  A    between atoms: C_14  and  C_16
REMARK    5  A    between atoms: C_16  and  S_17
REMARK    6  A    between atoms: S_17  and  C_18
REMARK    7  A    between atoms: N_24  and  N_25
REMARK    8  A    between atoms: C_26  and  C_27
REMARK    9  A    between atoms: C_30  and  O_35
REMARK   10  A    between atoms: C_31  and  O_33
REMARK   11  A    between atoms: O_33  and  C_34
REMARK   12  A    between atoms: O_35  and  C_36
REMARK                            x       y       z     vdW  Elec       q    Type
REMARK                         _______ _______ _______ _____ _____    ______ ____
ROOT
ATOM      1  C   UNL     1       1.661 -12.851   2.449  0.00  0.00    +0.186 A 
ATOM      2  N   UNL     1       1.358 -14.039   1.883  0.00  0.00    -0.252 N 
ATOM      3  H   UNL     1       0.880 -14.182   1.052  0.00  0.00    +0.191 HD
ATOM      4  N   UNL     1       1.872 -15.028   2.738  0.00  0.00    -0.134 NA
ATOM      5  C   UNL     1       2.441 -14.408   3.743  0.00  0.00    +0.255 A 
ATOM      6  N   UNL     1       2.317 -13.087   3.565  0.00  0.00    -0.187 NA
ATOM      7  N   UNL     1       3.075 -15.024   4.821  0.00  0.00    -0.204 N 
ATOM      8  H   UNL     1       3.470 -14.485   5.524  0.00  0.00    +0.177 HD
ENDROOT
BRANCH   7   9
ATOM      9  N   UNL     1       3.142 -16.422   4.889  0.00  0.00    -0.187 NA
ATOM     10  C   UNL     1       3.733 -16.995   5.893  0.00  0.00    +0.138 C 
BRANCH  10  11
ATOM     11  C   UNL     1       3.804 -18.466   5.964  0.00  0.00    -0.002 A 
ATOM     12  C   UNL     1       3.240 -19.244   4.949  0.00  0.00    +0.013 A 
ATOM     13  C   UNL     1       3.307 -20.620   5.018  0.00  0.00    +0.050 A 
ATOM     14  C   UNL     1       3.933 -21.235   6.093  0.00  0.00    +0.162 A 
ATOM     15  C   UNL     1       4.497 -20.465   7.108  0.00  0.00    +0.162 A 
ATOM     16  C   UNL     1       4.439 -19.085   7.043  0.00  0.00    +0.059 A 
BRANCH  15  17
ATOM     17  O   UNL     1       5.109 -21.071   8.160  0.00  0.00    -0.491 OA
ATOM     18  C   UNL     1       5.665 -20.221   9.165  0.00  0.00    +0.277 C 
ENDBRANCH  15  17
BRANCH  14  19
ATOM     19  O   UNL     1       3.996 -22.591   6.155  0.00  0.00    -0.491 OA
ATOM     20  C   UNL     1       3.397 -23.319   5.081  0.00  0.00    +0.277 C 
ENDBRANCH  14  19
ENDBRANCH  10  11
ENDBRANCH   7   9
BRANCH   1  21
ATOM     21  S   UNL     1       1.256 -11.263   1.802  0.00  0.00    -0.077 S 
BRANCH  21  22
ATOM     22  C   UNL     1       1.944 -10.105   3.017  0.00  0.00    +0.173 C 
BRANCH  22  33
ATOM     23  C   UNL     1       0.802  -1.825   1.306  0.00  0.00    +0.122 A 
ATOM     24  C   UNL     1       0.261  -2.683   0.353  0.00  0.00    +0.048 A 
ATOM     25  C   UNL     1       0.358  -4.043   0.478  0.00  0.00    +0.032 A 
ATOM     26  C   UNL     1       1.015  -4.623   1.588  0.00  0.00    +0.081 A 
ATOM     27  C   UNL     1       1.553  -3.724   2.536  0.00  0.00    +0.044 A 
ATOM     28  C   UNL     1       1.459  -2.361   2.403  0.00  0.00    +0.063 A 
ATOM     29  S   UNL     1       2.271  -4.823   3.734  0.00  0.00    -0.052 S 
ATOM     30  C   UNL     1       1.827  -6.355   2.928  0.00  0.00    +0.165 A 
ATOM     31  N   UNL     1       1.195  -5.936   1.858  0.00  0.00    -0.225 NA
ATOM     32  N   UNL     1       2.086  -7.656   3.331  0.00  0.00    -0.264 N 
ATOM     33  C   UNL     1       1.664  -8.691   2.578  0.00  0.00    +0.229 C 
ATOM     34  O   UNL     1       1.059  -8.484   1.548  0.00  0.00    -0.275 OA
ATOM     35  H   UNL     1       2.570  -7.821   4.155  0.00  0.00    +0.157 HD
BRANCH  23  36
ATOM     36  O   UNL     1       0.693  -0.477   1.160  0.00  0.00    -0.492 OA
BRANCH  36  38
ATOM     37  C   UNL     1      -0.019   1.526   0.010  0.00  0.00    +0.048 C 
ATOM     38  C   UNL     1       0.002  -0.004   0.002  0.00  0.00    +0.225 C 
ENDBRANCH  36  38
ENDBRANCH  23  36
ENDBRANCH  22  33
ENDBRANCH  21  22
ENDBRANCH   1  21
TORSDOF 9
