REMARK  Name = ZINC49788047
REMARK  7 active torsions:
REMARK  status: ('A' for Active; 'I' for Inactive)
REMARK    1  A    between atoms: C_1  and  C_2
REMARK    2  A    between atoms: C_2  and  C_4
REMARK    3  A    between atoms: C_2  and  N_12
REMARK    4  A    between atoms: N_15  and  C_16
REMARK    5  A    between atoms: N_15  and  C_24
REMARK    6  A    between atoms: C_16  and  C_17
REMARK    7  A    between atoms: C_21  and  O_23
REMARK                            x       y       z     vdW  Elec       q    Type
REMARK                         _______ _______ _______ _____ _____    ______ ____
ROOT
ATOM      1  N   UNL     1       0.695  -0.365   1.324  0.00  0.00    -0.293 N 
ATOM      2  C   UNL     1       2.041  -0.426   1.314  0.00  0.00    +0.303 C 
ATOM      3  O   UNL     1       2.664   0.061   0.390  0.00  0.00    -0.253 OA
ATOM      4  N   UNL     1       2.697  -1.025   2.328  0.00  0.00    -0.278 N 
ATOM      5  H   UNL     1       0.195  -0.817   2.022  0.00  0.00    +0.151 HD
ENDROOT
BRANCH   4   6
ATOM      6  C   UNL     1       1.946  -1.707   3.385  0.00  0.00    +0.078 C 
ATOM      7  C   UNL     1       2.740  -2.273   4.563  0.00  0.00    +0.024 C 
ATOM      8  C   UNL     1       2.135  -3.219   3.523  0.00  0.00    +0.024 C 
ENDBRANCH   4   6
BRANCH   1  10
ATOM      9  C   UNL     1      -0.090   1.858   0.674  0.00  0.00    +0.033 C 
ATOM     10  C   UNL     1      -0.013   0.381   0.281  0.00  0.00    +0.102 C 
BRANCH  10  11
ATOM     11  C   UNL     1      -1.407  -0.171   0.126  0.00  0.00    -0.026 A 
ATOM     12  C   UNL     1      -2.133  -0.537   1.244  0.00  0.00    +0.007 A 
ATOM     13  C   UNL     1      -3.411  -1.044   1.104  0.00  0.00    +0.022 A 
ATOM     14  C   UNL     1      -3.964  -1.185  -0.156  0.00  0.00    +0.059 A 
ATOM     15  C   UNL     1      -3.237  -0.819  -1.276  0.00  0.00    +0.060 A 
ATOM     16  C   UNL     1      -1.960  -0.307  -1.133  0.00  0.00    +0.027 A 
ATOM     17 CL   UNL     1      -3.929  -0.996  -2.858  0.00  0.00    -0.082 Cl
ATOM     18 CL   UNL     1      -5.569  -1.823  -0.334  0.00  0.00    -0.082 Cl
ENDBRANCH  10  11
ENDBRANCH   1  10
BRANCH   4  19
ATOM     19  C   UNL     1       4.161  -0.994   2.373  0.00  0.00    +0.144 C 
BRANCH  19  20
ATOM     20  C   UNL     1       4.617   0.288   3.019  0.00  0.00    -0.027 A 
ATOM     21  C   UNL     1       4.795   1.424   2.251  0.00  0.00    +0.005 A 
ATOM     22  C   UNL     1       5.214   2.602   2.841  0.00  0.00    +0.004 A 
ATOM     23  C   UNL     1       5.455   2.648   4.200  0.00  0.00    +0.045 A 
ATOM     24  C   UNL     1       5.276   1.510   4.974  0.00  0.00    +0.117 A 
ATOM     25  C   UNL     1       4.851   0.330   4.380  0.00  0.00    +0.050 A 
BRANCH  24  26
ATOM     26  O   UNL     1       5.513   1.552   6.311  0.00  0.00    -0.507 OA
ATOM     27  H   UNL     1       4.739   1.792   6.840  0.00  0.00    +0.292 HD
ENDBRANCH  24  26
ENDBRANCH  19  20
ENDBRANCH   4  19
TORSDOF 6
