REMARK  Name = ZINC05194828
REMARK  8 active torsions:
REMARK  status: ('A' for Active; 'I' for Inactive)
REMARK    1  A    between atoms: C_1  and  C_2
REMARK    2  A    between atoms: C_7  and  C_13
REMARK    3  A    between atoms: C_13  and  O_14
REMARK    4  A    between atoms: O_14  and  C_15
REMARK    5  A    between atoms: C_15  and  C_17
REMARK    6  A    between atoms: C_17  and  C_18
REMARK    7  A    between atoms: C_25  and  O_27
REMARK    8  A    between atoms: O_27  and  C_28
REMARK                            x       y       z     vdW  Elec       q    Type
REMARK                         _______ _______ _______ _____ _____    ______ ____
ROOT
ATOM      1  O   UNL     1       6.069   2.962  -1.283  0.00  0.00    -0.458 OA
ENDROOT
BRANCH   1   2
ATOM      2  C   UNL     1       7.162   3.724  -1.450  0.00  0.00    +0.312 C 
ATOM      3  O   UNL     1       8.009   3.761  -0.589  0.00  0.00    -0.250 OA
BRANCH   2   4
ATOM      4  C   UNL     1       7.332   4.534  -2.709  0.00  0.00    +0.159 C 
BRANCH   4   5
ATOM      5  C   UNL     1       8.631   5.295  -2.647  0.00  0.00    +0.009 A 
ATOM      6  C   UNL     1       8.804   6.560  -2.243  0.00  0.00    +0.200 A 
ATOM      7  O   UNL     1      10.104   6.898  -2.320  0.00  0.00    -0.463 OA
ATOM      8  C   UNL     1      10.840   5.870  -2.788  0.00  0.00    +0.139 A 
ATOM      9  C   UNL     1       9.961   4.799  -3.022  0.00  0.00    +0.024 A 
ATOM     10  C   UNL     1      10.446   3.589  -3.514  0.00  0.00    +0.015 A 
ATOM     11  C   UNL     1      11.782   3.445  -3.770  0.00  0.00    +0.046 A 
ATOM     12  C   UNL     1      12.659   4.501  -3.540  0.00  0.00    +0.124 A 
ATOM     13  C   UNL     1      12.194   5.709  -3.051  0.00  0.00    +0.092 A 
BRANCH  12  14
ATOM     14  O   UNL     1      13.984   4.343  -3.798  0.00  0.00    -0.495 OA
ATOM     15  C   UNL     1      14.401   3.072  -4.301  0.00  0.00    +0.277 C 
ENDBRANCH  12  14
ENDBRANCH   4   5
ENDBRANCH   2   4
ENDBRANCH   1   2
BRANCH   1  16
ATOM     16  C   UNL     1       5.973   2.210  -0.045  0.00  0.00    +0.287 C 
BRANCH  16  23
ATOM     17  C   UNL     1      -1.294  -0.773   0.010  0.00  0.00    +0.045 C 
ATOM     18  C   UNL     1       0.002  -0.004   0.002  0.00  0.00    -0.034 A 
ATOM     19  C   UNL     1      -0.017   1.398   0.010  0.00  0.00    +0.008 A 
ATOM     20  C   UNL     1       1.159   2.086   0.002  0.00  0.00    +0.047 A 
ATOM     21  C   UNL     1       2.375   1.378  -0.014  0.00  0.00    +0.141 A 
ATOM     22  N   UNL     1       3.525   2.049  -0.022  0.00  0.00    -0.231 NA
ATOM     23  C   UNL     1       4.690   1.419  -0.037  0.00  0.00    +0.086 A 
ATOM     24  C   UNL     1       4.730   0.039  -0.044  0.00  0.00    +0.097 A 
ATOM     25  C   UNL     1       3.525  -0.673  -0.035  0.00  0.00    +0.259 A 
ATOM     26  O   UNL     1       3.526  -1.894  -0.041  0.00  0.00    -0.267 OA
ATOM     27  N   UNL     1       2.361   0.011  -0.020  0.00  0.00    -0.268 N 
ATOM     28  C   UNL     1       1.180  -0.667  -0.012  0.00  0.00    +0.099 A 
ENDBRANCH  16  23
ENDBRANCH   1  16
TORSDOF 6
