REMARK  Name = ZINC66606209
REMARK  7 active torsions:
REMARK  status: ('A' for Active; 'I' for Inactive)
REMARK    1  A    between atoms: C_1  and  C_2
REMARK    2  A    between atoms: C_2  and  C_4
REMARK    3  A    between atoms: C_2  and  N_20
REMARK    4  A    between atoms: C_4  and  C_5
REMARK    5  A    between atoms: N_7  and  C_8
REMARK    6  A    between atoms: C_13  and  C_16
REMARK    7  A    between atoms: C_21  and  C_23
REMARK                            x       y       z     vdW  Elec       q    Type
REMARK                         _______ _______ _______ _____ _____    ______ ____
ROOT
ATOM      1  C   UNL     1       0.870  -2.011   1.172  0.00  0.00    +0.215 C 
ATOM      2  O   UNL     1       0.414  -2.615   0.224  0.00  0.00    -0.276 OA
ATOM      3  N   UNL     1       1.491  -2.681   2.163  0.00  0.00    -0.312 N 
ATOM      4  H   UNL     1       1.855  -2.198   2.921  0.00  0.00    +0.149 HD
ENDROOT
BRANCH   3   5
ATOM      5  C   UNL     1       1.615  -4.139   2.095  0.00  0.00    +0.073 C 
ATOM      6  C   UNL     1       0.345  -4.786   2.652  0.00  0.00    +0.022 C 
ATOM      7  C   UNL     1       0.475  -6.309   2.582  0.00  0.00    +0.002 C 
ATOM      8  C   UNL     1       1.681  -6.756   3.410  0.00  0.00    +0.012 C 
ATOM      9  C   UNL     1       2.951  -6.110   2.853  0.00  0.00    +0.095 C 
ATOM     10  C   UNL     1       2.821  -4.587   2.923  0.00  0.00    +0.034 C 
BRANCH   9  11
ATOM     11  C   UNL     1       4.157  -6.558   3.681  0.00  0.00    +0.393 C 
ATOM     12  F   UNL     1       4.276  -7.950   3.616  0.00  0.00    -0.170 F 
ATOM     13  F   UNL     1       5.318  -5.967   3.171  0.00  0.00    -0.170 F 
ATOM     14  F   UNL     1       3.980  -6.166   5.012  0.00  0.00    -0.170 F 
ENDBRANCH   9  11
ENDBRANCH   3   5
BRANCH   1  15
ATOM     15  C   UNL     1       0.742  -0.511   1.242  0.00  0.00    +0.117 C 
BRANCH  15  17
ATOM     16  C   UNL     1      -0.019   1.526   0.010  0.00  0.00    +0.028 C 
ATOM     17  C   UNL     1       0.002  -0.004   0.002  0.00  0.00    +0.079 C 
BRANCH  17  18
ATOM     18  N   UNL     1      -1.372  -0.511   0.012  0.00  0.00    -0.312 N 
ATOM     19  C   UNL     1      -2.051  -0.643  -1.145  0.00  0.00    +0.216 C 
ATOM     20  O   UNL     1      -1.524  -0.341  -2.194  0.00  0.00    -0.276 OA
ATOM     21  H   UNL     1      -1.794  -0.752   0.852  0.00  0.00    +0.149 HD
BRANCH  19  22
ATOM     22  C   UNL     1      -3.465  -1.164  -1.134  0.00  0.00    +0.075 C 
ATOM     23  C   UNL     1      -3.485  -2.571  -0.532  0.00  0.00    +0.013 C 
ATOM     24  C   UNL     1      -4.920  -3.100  -0.521  0.00  0.00    +0.001 C 
ATOM     25  C   UNL     1      -5.456  -3.151  -1.953  0.00  0.00    +0.000 C 
ATOM     26  C   UNL     1      -5.436  -1.745  -2.555  0.00  0.00    +0.001 C 
ATOM     27  C   UNL     1      -4.000  -1.215  -2.566  0.00  0.00    +0.013 C 
ENDBRANCH  19  22
ENDBRANCH  17  18
ENDBRANCH  15  17
ENDBRANCH   1  15
TORSDOF 6
