REMARK  Name = ZINC39666436
REMARK  7 active torsions:
REMARK  status: ('A' for Active; 'I' for Inactive)
REMARK    1  A    between atoms: C_1  and  C_2
REMARK    2  A    between atoms: C_2  and  C_4
REMARK    3  A    between atoms: C_2  and  O_28
REMARK    4  A    between atoms: C_4  and  N_5
REMARK    5  A    between atoms: C_6  and  C_8
REMARK    6  A    between atoms: C_19  and  C_21
REMARK    7  A    between atoms: O_28  and  C_29
REMARK                            x       y       z     vdW  Elec       q    Type
REMARK                         _______ _______ _______ _____ _____    ______ ____
ROOT
ATOM      1  C   UNL     1       4.211  -6.453   2.265  0.00  0.00    +0.100 C 
ATOM      2  C   UNL     1       5.297  -5.811   1.373  0.00  0.00    +0.121 C 
ATOM      3  N   UNL     1       5.738  -4.612   2.125  0.00  0.00    -0.296 N 
ATOM      4  C   UNL     1       5.764  -5.053   3.540  0.00  0.00    +0.115 C 
ATOM      5  C   UNL     1       4.523  -5.957   3.687  0.00  0.00    -0.004 C 
ATOM      6  C   UNL     1       4.834  -7.137   4.602  0.00  0.00    -0.010 C 
ATOM      7  C   UNL     1       5.084  -6.623   6.023  0.00  0.00    -0.082 C 
ATOM      8  N   UNL     1       3.896  -5.906   6.502  0.00  0.00    +0.379 N 
ATOM      9  C   UNL     1       3.658  -4.719   5.671  0.00  0.00    -0.082 C 
ATOM     10  C   UNL     1       3.348  -5.153   4.236  0.00  0.00    -0.010 C 
ATOM     11  C   UNL     1       6.047  -3.396   1.633  0.00  0.00    +0.247 C 
ATOM     12  O   UNL     1       6.436  -2.519   2.379  0.00  0.00    -0.270 OA
ATOM     13  H   UNL     1       3.094  -6.516   6.452  0.00  0.00    -0.086 HD
ATOM     14  H   UNL     1       4.040  -5.622   7.459  0.00  0.00    -0.086 HD
ENDROOT
BRANCH  11  15
ATOM     15  C   UNL     1       5.912  -3.128   0.186  0.00  0.00    +0.037 A 
ATOM     16  C   UNL     1       4.646  -3.029  -0.394  0.00  0.00    +0.014 A 
ATOM     17  C   UNL     1       4.526  -2.779  -1.744  0.00  0.00    +0.021 A 
ATOM     18  C   UNL     1       5.659  -2.626  -2.526  0.00  0.00    +0.041 A 
ATOM     19  C   UNL     1       6.918  -2.723  -1.957  0.00  0.00    +0.021 A 
ATOM     20  C   UNL     1       7.050  -2.967  -0.606  0.00  0.00    +0.014 A 
ATOM     21 CL   UNL     1       5.501  -2.312  -4.226  0.00  0.00    -0.084 Cl
ENDBRANCH  11  15
BRANCH   1  23
ATOM     22  N   UNL     1       1.788  -6.828   1.938  0.00  0.00    -0.312 N 
ATOM     23  C   UNL     1       2.841  -5.993   1.838  0.00  0.00    +0.218 C 
ATOM     24  O   UNL     1       2.686  -4.871   1.403  0.00  0.00    -0.275 OA
ATOM     25  H   UNL     1       1.924  -7.750   2.206  0.00  0.00    +0.149 HD
BRANCH  22  26
ATOM     26  C   UNL     1       0.437  -6.342   1.645  0.00  0.00    +0.148 C 
BRANCH  26  28
ATOM     27  C   UNL     1      -1.996  -6.887   1.805  0.00  0.00    +0.053 C 
ATOM     28  C   UNL     1      -0.578  -7.447   1.942  0.00  0.00    +0.187 C 
BRANCH  28  29
ATOM     29  O   UNL     1      -0.399  -8.521   1.016  0.00  0.00    -0.486 OA
BRANCH  29  30
ATOM     30  C   UNL     1      -0.821  -9.751   1.409  0.00  0.00    +0.139 A 
ATOM     31  C   UNL     1      -1.622  -9.885   2.534  0.00  0.00    +0.047 A 
ATOM     32  C   UNL     1      -2.050 -11.137   2.931  0.00  0.00    +0.004 A 
ATOM     33  C   UNL     1      -1.680 -12.257   2.210  0.00  0.00    +0.002 A 
ATOM     34  C   UNL     1      -0.881 -12.128   1.089  0.00  0.00    +0.023 A 
ATOM     35  C   UNL     1      -0.455 -10.877   0.683  0.00  0.00    +0.083 A 
ATOM     36 CL   UNL     1       0.542 -10.714  -0.728  0.00  0.00    -0.080 Cl
ENDBRANCH  29  30
ENDBRANCH  28  29
ENDBRANCH  26  28
ENDBRANCH  22  26
ENDBRANCH   1  23
TORSDOF 6
