REMARK  Name = ZINC33516554
REMARK  8 active torsions:
REMARK  status: ('A' for Active; 'I' for Inactive)
REMARK    1  A    between atoms: C_1  and  C_2
REMARK    2  A    between atoms: C_7  and  N_28
REMARK    3  A    between atoms: C_8  and  C_13
REMARK    4  A    between atoms: N_17  and  C_21
REMARK    5  A    between atoms: C_21  and  C_22
REMARK    6  A    between atoms: N_28  and  C_29
REMARK    7  A    between atoms: C_29  and  C_30
REMARK    8  A    between atoms: C_30  and  C_31
REMARK                            x       y       z     vdW  Elec       q    Type
REMARK                         _______ _______ _______ _____ _____    ______ ____
ROOT
ATOM      1  C   UNL     1       8.511  -1.783   0.567  0.00  0.00    +0.045 C 
ATOM      2  C   UNL     1       8.109  -2.239  -0.812  0.00  0.00    -0.034 A 
ATOM      3  C   UNL     1       9.091  -2.480  -1.783  0.00  0.00    +0.008 A 
ATOM      4  C   UNL     1       8.718  -2.893  -3.028  0.00  0.00    +0.047 A 
ATOM      5  C   UNL     1       7.354  -3.073  -3.319  0.00  0.00    +0.142 A 
ATOM      6  N   UNL     1       6.999  -3.478  -4.539  0.00  0.00    -0.214 NA
ATOM      7  C   UNL     1       5.729  -3.668  -4.867  0.00  0.00    +0.134 A 
ATOM      8  C   UNL     1       4.718  -3.426  -3.907  0.00  0.00    +0.081 A 
ATOM      9  C   UNL     1       5.106  -2.997  -2.616  0.00  0.00    +0.267 A 
ATOM     10  O   UNL     1       4.268  -2.782  -1.756  0.00  0.00    -0.267 OA
ATOM     11  N   UNL     1       6.420  -2.830  -2.351  0.00  0.00    -0.267 N 
ATOM     12  C   UNL     1       6.803  -2.416  -1.110  0.00  0.00    +0.099 A 
ENDROOT
BRANCH   8  13
ATOM     13  C   UNL     1       3.353  -3.615  -4.229  0.00  0.00    +0.037 C 
ATOM     14  C   UNL     1       2.506  -2.546  -4.263  0.00  0.00    +0.077 C 
ATOM     15  C   UNL     1       2.793  -1.157  -4.129  0.00  0.00    +0.259 C 
ATOM     16  O   UNL     1       3.935  -0.768  -3.956  0.00  0.00    -0.269 OA
ATOM     17  N   UNL     1       1.787  -0.303  -4.197  0.00  0.00    -0.251 N 
ATOM     18  C   UNL     1       0.520  -0.736  -4.383  0.00  0.00    +0.121 C 
ATOM     19  S   UNL     1      -0.922   0.181  -4.495  0.00  0.00    -0.027 S 
ATOM     20  S   UNL     1       0.733  -2.507  -4.486  0.00  0.00    -0.061 S 
BRANCH  17  21
ATOM     21  C   UNL     1       2.048   1.132  -4.064  0.00  0.00    +0.150 C 
BRANCH  21  22
ATOM     22  C   UNL     1       2.317   1.722  -5.424  0.00  0.00    -0.030 A 
ATOM     23  C   UNL     1       1.271   2.218  -6.181  0.00  0.00    +0.005 A 
ATOM     24  C   UNL     1       1.518   2.760  -7.429  0.00  0.00    +0.000 A 
ATOM     25  C   UNL     1       2.809   2.807  -7.919  0.00  0.00    +0.000 A 
ATOM     26  C   UNL     1       3.854   2.311  -7.163  0.00  0.00    +0.000 A 
ATOM     27  C   UNL     1       3.608   1.769  -5.915  0.00  0.00    +0.005 A 
ENDBRANCH  21  22
ENDBRANCH  17  21
ENDBRANCH   8  13
BRANCH   7  28
ATOM     28  N   UNL     1       5.396  -4.092  -6.134  0.00  0.00    -0.328 N 
ATOM     29  H   UNL     1       4.340  -4.245  -6.403  0.00  0.00    +0.147 HD
BRANCH  28  30
ATOM     30  C   UNL     1       6.447  -4.340  -7.124  0.00  0.00    +0.107 C 
BRANCH  30  31
ATOM     31  C   UNL     1       5.812  -4.799  -8.438  0.00  0.00    +0.054 C 
BRANCH  31  32
ATOM     32  C   UNL     1       6.894  -5.054  -9.456  0.00  0.00    -0.046 A 
ATOM     33  C   UNL     1       7.314  -4.034 -10.289  0.00  0.00    +0.004 A 
ATOM     34  C   UNL     1       8.309  -4.267 -11.220  0.00  0.00    +0.000 A 
ATOM     35  C   UNL     1       8.878  -5.523 -11.324  0.00  0.00    +0.000 A 
ATOM     36  C   UNL     1       8.454  -6.544 -10.494  0.00  0.00    +0.000 A 
ATOM     37  C   UNL     1       7.462  -6.310  -9.561  0.00  0.00    +0.004 A 
ENDBRANCH  31  32
ENDBRANCH  30  31
ENDBRANCH  28  30
ENDBRANCH   7  28
TORSDOF 7
