REMARK  Name = ZINC40739844
REMARK  8 active torsions:
REMARK  status: ('A' for Active; 'I' for Inactive)
REMARK    1  A    between atoms: C_1  and  C_2
REMARK    2  A    between atoms: C_6  and  C_30
REMARK    3  A    between atoms: C_9  and  N_12
REMARK    4  A    between atoms: N_12  and  C_13
REMARK    5  A    between atoms: C_13  and  C_14
REMARK    6  A    between atoms: C_19  and  O_20
REMARK    7  A    between atoms: O_20  and  C_21
REMARK    8  A    between atoms: C_21  and  C_22
REMARK                            x       y       z     vdW  Elec       q    Type
REMARK                         _______ _______ _______ _____ _____    ______ ____
ROOT
ATOM      1  C   UNL     1      -3.501  -2.085  -1.175  0.00  0.00    -0.042 C 
ENDROOT
BRANCH   1   2
ATOM      2  C   UNL     1      -4.915  -2.607  -1.165  0.00  0.00    -0.022 A 
ATOM      3  C   UNL     1      -5.252  -3.705  -1.932  0.00  0.00    +0.020 A 
ATOM      4  C   UNL     1      -6.550  -4.184  -1.922  0.00  0.00    +0.018 A 
ATOM      5  C   UNL     1      -7.513  -3.565  -1.145  0.00  0.00    +0.019 A 
ATOM      6  C   UNL     1      -7.179  -2.467  -0.376  0.00  0.00    +0.047 A 
ATOM      7  C   UNL     1      -5.877  -1.988  -0.380  0.00  0.00    +0.122 A 
ATOM      8 BR   UNL     1      -7.009  -5.688  -2.974  0.00  0.00    -0.050 Br
BRANCH   7   9
ATOM      9  O   UNL     1      -5.546  -0.911   0.379  0.00  0.00    -0.487 OA
BRANCH   9  10
ATOM     10  C   UNL     1      -6.588  -0.324   1.162  0.00  0.00    +0.264 C 
BRANCH  10  11
ATOM     11  C   UNL     1      -6.038   0.849   1.932  0.00  0.00    -0.009 A 
ATOM     12  C   UNL     1      -5.505   0.659   3.194  0.00  0.00    +0.007 A 
ATOM     13  C   UNL     1      -5.000   1.735   3.900  0.00  0.00    +0.002 A 
ATOM     14  C   UNL     1      -5.028   3.001   3.346  0.00  0.00    +0.020 A 
ATOM     15  C   UNL     1      -5.561   3.191   2.083  0.00  0.00    +0.041 A 
ATOM     16  C   UNL     1      -6.061   2.113   1.374  0.00  0.00    +0.027 A 
ATOM     17 CL   UNL     1      -5.597   4.781   1.387  0.00  0.00    -0.084 Cl
ENDBRANCH  10  11
ENDBRANCH   9  10
ENDBRANCH   7   9
ENDBRANCH   1   2
BRANCH   1  18
ATOM     18  N   UNL     1      -2.791  -2.572   0.015  0.00  0.00    +0.386 N 
ATOM     19  H   UNL     1      -2.777  -3.581   0.009  0.00  0.00    -0.085 HD
ATOM     20  H   UNL     1      -3.263  -2.247   0.845  0.00  0.00    -0.085 HD
BRANCH  18  29
ATOM     21  C   UNL     1      -0.019   1.526   0.010  0.00  0.00    +0.011 C 
ATOM     22  C   UNL     1       0.002  -0.004   0.002  0.00  0.00    -0.033 C 
ATOM     23  C   UNL     1       0.718  -0.497  -1.257  0.00  0.00    +0.010 C 
ATOM     24  C   UNL     1       0.739  -2.027  -1.265  0.00  0.00    -0.011 C 
ATOM     25  C   UNL     1       1.479  -2.534  -0.026  0.00  0.00    +0.010 C 
ATOM     26  C   UNL     1       0.763  -2.041   1.233  0.00  0.00    -0.033 C 
ATOM     27  C   UNL     1       0.742  -0.511   1.242  0.00  0.00    +0.013 C 
ATOM     28  C   UNL     1      -0.673  -2.570   1.244  0.00  0.00    -0.006 C 
ATOM     29  C   UNL     1      -1.413  -2.063   0.004  0.00  0.00    -0.067 C 
ATOM     30  C   UNL     1      -0.696  -2.557  -1.254  0.00  0.00    -0.009 C 
ATOM     31  C   UNL     1      -1.433  -0.534   0.013  0.00  0.00    -0.006 C 
ATOM     32  C   UNL     1       1.503  -2.548   2.473  0.00  0.00    +0.011 C 
ENDBRANCH  18  29
ENDBRANCH   1  18
TORSDOF 6
