REMARK  Name = ZINC20855038
REMARK  3 active torsions:
REMARK  status: ('A' for Active; 'I' for Inactive)
REMARK    1  A    between atoms: C_1  and  C_2
REMARK    2  A    between atoms: C_4  and  C_20
REMARK    3  A    between atoms: N_6  and  C_13
REMARK                            x       y       z     vdW  Elec       q    Type
REMARK                         _______ _______ _______ _____ _____    ______ ____
ROOT
ATOM      1  C   UNL     1      -0.018   1.503   0.010  0.00  0.00    +0.067 C 
ATOM      2  C   UNL     1       0.002  -0.004   0.002  0.00  0.00    +0.064 C 
ATOM      3  C   UNL     1      -1.065  -0.759   0.003  0.00  0.00    +0.013 C 
ATOM      4  C   UNL     1      -2.515  -1.112  -0.230  0.00  0.00    +0.142 C 
ATOM      5  N   UNL     1      -2.429  -2.319  -1.089  0.00  0.00    -0.258 N 
ATOM      6  C   UNL     1      -1.228  -2.932  -0.898  0.00  0.00    +0.251 C 
ATOM      7  O   UNL     1      -0.819  -3.908  -1.490  0.00  0.00    -0.272 OA
ATOM      8  C   UNL     1      -0.503  -2.180   0.177  0.00  0.00    +0.244 C 
ATOM      9  N   UNL     1       0.925  -1.982   0.025  0.00  0.00    -0.170 NA
ATOM     10  N   UNL     1       1.131  -0.758  -0.013  0.00  0.00    -0.158 NA
ENDROOT
BRANCH   5  11
ATOM     11  C   UNL     1      -3.430  -2.761  -1.962  0.00  0.00    +0.037 A 
ATOM     12  C   UNL     1      -4.617  -2.049  -2.076  0.00  0.00    +0.024 A 
ATOM     13  C   UNL     1      -5.603  -2.486  -2.939  0.00  0.00    +0.017 A 
ATOM     14  C   UNL     1      -5.409  -3.634  -3.687  0.00  0.00    +0.018 A 
ATOM     15  C   UNL     1      -4.228  -4.345  -3.575  0.00  0.00    +0.017 A 
ATOM     16  C   UNL     1      -3.236  -3.909  -2.719  0.00  0.00    +0.024 A 
ATOM     17 BR   UNL     1      -6.762  -4.231  -4.866  0.00  0.00    -0.050 Br
ENDBRANCH   5  11
BRANCH   4  18
ATOM     18  C   UNL     1      -3.202  -1.429   1.074  0.00  0.00    -0.022 A 
ATOM     19  C   UNL     1      -3.040  -2.671   1.657  0.00  0.00    +0.007 A 
ATOM     20  C   UNL     1      -3.670  -2.962   2.852  0.00  0.00    +0.015 A 
ATOM     21  C   UNL     1      -4.463  -2.009   3.465  0.00  0.00    +0.018 A 
ATOM     22  C   UNL     1      -4.625  -0.765   2.882  0.00  0.00    +0.015 A 
ATOM     23  C   UNL     1      -3.990  -0.474   1.689  0.00  0.00    +0.007 A 
ATOM     24 BR   UNL     1      -5.325  -2.406   5.101  0.00  0.00    -0.050 Br
ENDBRANCH   4  18
TORSDOF 2
