REMARK  Name = ZINC07542461
REMARK  7 active torsions:
REMARK  status: ('A' for Active; 'I' for Inactive)
REMARK    1  A    between atoms: C_1  and  C_2
REMARK    2  A    between atoms: C_5  and  C_8
REMARK    3  A    between atoms: C_8  and  C_10
REMARK    4  A    between atoms: C_8  and  N_57
REMARK    5  A    between atoms: C_16  and  C_17
REMARK    6  A    between atoms: C_16  and  N_57
REMARK    7  A    between atoms: C_30  and  C_32
REMARK                            x       y       z     vdW  Elec       q    Type
REMARK                         _______ _______ _______ _____ _____    ______ ____
ROOT
ATOM      1  C   UNL     1       3.793   1.325  -0.369  0.00  0.00    +0.017 C 
ENDROOT
BRANCH   1   2
ATOM      2  C   UNL     1       2.384   0.791  -0.364  0.00  0.00    +0.203 C 
ATOM      3  O   UNL     1       2.170  -0.359  -0.684  0.00  0.00    -0.277 OA
ATOM      4  N   UNL     1       1.361   1.591  -0.002  0.00  0.00    -0.268 N 
ATOM      5  C   UNL     1       1.594   2.922   0.370  0.00  0.00    +0.058 A 
ATOM      6  C   UNL     1       1.945   3.870  -0.578  0.00  0.00    +0.025 A 
ATOM      7  C   UNL     1       2.147   5.183  -0.196  0.00  0.00    +0.002 A 
ATOM      8  C   UNL     1       2.000   5.554   1.129  0.00  0.00    +0.002 A 
ATOM      9  C   UNL     1       1.658   4.613   2.082  0.00  0.00    +0.025 A 
ATOM     10  C   UNL     1       1.464   3.293   1.709  0.00  0.00    +0.055 A 
ATOM     11  N   UNL     1       1.173   2.313   2.664  0.00  0.00    -0.284 N 
ATOM     12  C   UNL     1       0.159   1.442   2.465  0.00  0.00    +0.219 C 
ATOM     13  O   UNL     1      -0.030   0.546   3.259  0.00  0.00    -0.275 OA
ATOM     14  C   UNL     1      -0.737   1.577   1.262  0.00  0.00    +0.118 C 
ATOM     15  C   UNL     1      -0.013   1.086   0.008  0.00  0.00    +0.087 C 
ATOM     16  C   UNL     1      -0.750   1.591  -1.234  0.00  0.00    +0.029 C 
ATOM     17  H   UNL     1       1.702   2.258   3.475  0.00  0.00    +0.155 HD
ENDBRANCH   1   2
BRANCH   1  18
ATOM     18  N   UNL     1       4.714   0.256  -0.799  0.00  0.00    +0.392 N 
ATOM     19  H   UNL     1       4.643  -0.534  -0.148  0.00  0.00    -0.084 HD
ATOM     20  H   UNL     1       4.455  -0.055  -1.743  0.00  0.00    -0.084 HD
BRANCH  18  21
ATOM     21  C   UNL     1       6.103   0.752  -0.815  0.00  0.00    -0.009 C 
BRANCH  21  26
ATOM     22  C   UNL     1       9.716  -3.711  -0.163  0.00  0.00    +0.044 C 
ATOM     23  C   UNL     1       8.774  -2.547  -0.333  0.00  0.00    -0.050 A 
ATOM     24  C   UNL     1       9.034  -1.348   0.304  0.00  0.00    +0.003 A 
ATOM     25  C   UNL     1       8.170  -0.281   0.149  0.00  0.00    +0.002 A 
ATOM     26  C   UNL     1       7.045  -0.412  -0.645  0.00  0.00    -0.057 A 
ATOM     27  C   UNL     1       6.782  -1.613  -1.277  0.00  0.00    +0.002 A 
ATOM     28  C   UNL     1       7.649  -2.679  -1.125  0.00  0.00    +0.003 A 
ENDBRANCH  21  26
BRANCH  21  29
ATOM     29  C   UNL     1       6.379   1.434  -2.130  0.00  0.00    -0.057 A 
ATOM     30  C   UNL     1       5.883   0.899  -3.304  0.00  0.00    +0.002 A 
ATOM     31  C   UNL     1       6.133   1.527  -4.509  0.00  0.00    +0.000 A 
ATOM     32  C   UNL     1       6.887   2.685  -4.542  0.00  0.00    +0.000 A 
ATOM     33  C   UNL     1       7.388   3.218  -3.369  0.00  0.00    +0.000 A 
ATOM     34  C   UNL     1       7.133   2.592  -2.162  0.00  0.00    +0.002 A 
ENDBRANCH  21  29
ENDBRANCH  18  21
ENDBRANCH   1  18
TORSDOF 5
