REMARK  Name = ZINC63796310
REMARK  8 active torsions:
REMARK  status: ('A' for Active; 'I' for Inactive)
REMARK    1  A    between atoms: C_4  and  C_7
REMARK    2  A    between atoms: C_7  and  N_8
REMARK    3  A    between atoms: C_9  and  C_11
REMARK    4  A    between atoms: C_11  and  C_13
REMARK    5  A    between atoms: C_11  and  N_23
REMARK    6  A    between atoms: C_13  and  C_14
REMARK    7  A    between atoms: N_23  and  S_24
REMARK    8  A    between atoms: S_24  and  C_27
REMARK                            x       y       z     vdW  Elec       q    Type
REMARK                         _______ _______ _______ _____ _____    ______ ____
ROOT
ATOM      1  C   UNL     1       5.764  -1.853   2.984  0.00  0.00    +0.166 C 
ENDROOT
BRANCH   1   3
ATOM      2  N   UNL     1       4.152  -0.952   1.338  0.00  0.00    -0.310 N 
ATOM      3  C   UNL     1       5.311  -1.601   1.569  0.00  0.00    +0.232 C 
ATOM      4  O   UNL     1       5.989  -1.981   0.638  0.00  0.00    -0.274 OA
ATOM      5  H   UNL     1       3.610  -0.648   2.082  0.00  0.00    +0.149 HD
BRANCH   2   6
ATOM      6  C   UNL     1       3.711  -0.707  -0.038  0.00  0.00    +0.139 C 
BRANCH   6  10
ATOM      7  C   UNL     1      -0.017   1.378   0.010  0.00  0.00    +0.000 A 
ATOM      8  C   UNL     1       1.171   2.086   0.002  0.00  0.00    +0.000 A 
ATOM      9  C   UNL     1       2.377   1.411  -0.013  0.00  0.00    +0.005 A 
ATOM     10  C   UNL     1       2.396   0.029  -0.020  0.00  0.00    -0.030 A 
ATOM     11  C   UNL     1       1.208  -0.679  -0.012  0.00  0.00    +0.005 A 
ATOM     12  C   UNL     1       0.002  -0.004   0.002  0.00  0.00    +0.000 A 
ENDBRANCH   6  10
ENDBRANCH   2   6
ENDBRANCH   1   3
BRANCH   1  13
ATOM     13  N   UNL     1       7.043  -2.568   2.967  0.00  0.00    -0.178 NA
ATOM     14  H   UNL     1       7.694  -2.381   2.273  0.00  0.00    +0.149 HD
BRANCH  13  15
ATOM     15  S   UNL     1       7.376  -3.696   4.133  0.00  0.00    +0.059 S 
ATOM     16  O   UNL     1       8.660  -4.224   3.831  0.00  0.00    -0.153 OA
ATOM     17  O   UNL     1       7.075  -3.090   5.382  0.00  0.00    -0.153 OA
BRANCH  15  18
ATOM     18  C   UNL     1       6.227  -5.016   3.924  0.00  0.00    +0.105 A 
ATOM     19  C   UNL     1       5.013  -4.985   4.583  0.00  0.00    +0.030 A 
ATOM     20  C   UNL     1       4.111  -6.020   4.420  0.00  0.00    +0.022 A 
ATOM     21  C   UNL     1       4.425  -7.087   3.596  0.00  0.00    +0.041 A 
ATOM     22  C   UNL     1       5.641  -7.117   2.937  0.00  0.00    +0.022 A 
ATOM     23  C   UNL     1       6.539  -6.079   3.097  0.00  0.00    +0.030 A 
ATOM     24 CL   UNL     1       3.294  -8.388   3.391  0.00  0.00    -0.084 Cl
ENDBRANCH  15  18
ENDBRANCH  13  15
ENDBRANCH   1  13
BRANCH   1  25
ATOM     25  C   UNL     1       5.936  -0.517   3.710  0.00  0.00    +0.063 C 
BRANCH  25  26
ATOM     26  C   UNL     1       6.270  -0.772   5.157  0.00  0.00    -0.040 C 
ATOM     27  C   UNL     1       7.503  -0.814   5.712  0.00  0.00    -0.001 A 
ATOM     28  C   UNL     1       8.850  -0.644   5.156  0.00  0.00    +0.010 A 
ATOM     29  C   UNL     1       9.918  -0.746   5.979  0.00  0.00    +0.001 A 
ATOM     30  C   UNL     1       9.770  -1.010   7.348  0.00  0.00    +0.002 A 
ATOM     31  C   UNL     1       8.565  -1.178   7.933  0.00  0.00    +0.026 A 
ATOM     32  C   UNL     1       7.374  -1.092   7.161  0.00  0.00    +0.043 A 
ATOM     33  N   UNL     1       6.111  -1.215   7.488  0.00  0.00    -0.380 N 
ATOM     34  C   UNL     1       5.294  -1.025   6.285  0.00  0.00    +0.144 C 
ATOM     35  H   UNL     1       5.772  -1.399   8.379  0.00  0.00    +0.160 HD
ENDBRANCH  25  26
ENDBRANCH   1  25
TORSDOF 8
