REMARK  Name = ZINC07119916
REMARK  9 active torsions:
REMARK  status: ('A' for Active; 'I' for Inactive)
REMARK    1  A    between atoms: C_1  and  C_2
REMARK    2  A    between atoms: C_2  and  C_4
REMARK    3  A    between atoms: C_2  and  O_14
REMARK    4  A    between atoms: N_9  and  C_10
REMARK    5  A    between atoms: C_10  and  C_11
REMARK    6  A    between atoms: C_10  and  C_12
REMARK    7  A    between atoms: C_10  and  C_13
REMARK    8  A    between atoms: O_14  and  C_15
REMARK    9  A    between atoms: C_15  and  C_17
REMARK                            x       y       z     vdW  Elec       q    Type
REMARK                         _______ _______ _______ _____ _____    ______ ____
ROOT
ATOM      1  O   UNL     1       1.303  -2.834   1.143  0.00  0.00    -0.449 OA
ENDROOT
BRANCH   1   3
ATOM      2  C   UNL     1       2.811  -4.742   1.017  0.00  0.00    +0.062 C 
ATOM      3  C   UNL     1       1.352  -4.283   1.060  0.00  0.00    +0.259 C 
BRANCH   3   4
ATOM      4  C   UNL     1       0.674  -4.878   2.267  0.00  0.00    +0.261 C 
ATOM      5  O   UNL     1       0.196  -4.154   3.113  0.00  0.00    -0.271 OA
ATOM      6  N   UNL     1       0.598  -6.217   2.405  0.00  0.00    -0.237 N 
ATOM      7  C   UNL     1      -0.009  -6.750   3.484  0.00  0.00    +0.306 C 
ATOM      8  O   UNL     1      -0.488  -6.023   4.333  0.00  0.00    -0.252 OA
ATOM      9  N   UNL     1      -0.084  -8.088   3.623  0.00  0.00    -0.294 N 
ATOM     10  H   UNL     1       0.981  -6.797   1.728  0.00  0.00    +0.159 HD
ATOM     11  H   UNL     1       0.298  -8.668   2.946  0.00  0.00    +0.151 HD
BRANCH   9  12
ATOM     12  C   UNL     1      -0.744  -8.667   4.796  0.00  0.00    +0.028 C 
ATOM     13  C   UNL     1      -2.203  -8.208   4.839  0.00  0.00    +0.031 C 
ATOM     14  C   UNL     1      -0.692 -10.194   4.708  0.00  0.00    +0.031 C 
ATOM     15  C   UNL     1      -0.026  -8.204   6.065  0.00  0.00    +0.031 C 
ENDBRANCH   9  12
ENDBRANCH   3   4
ENDBRANCH   1   3
BRANCH   1  16
ATOM     16  C   UNL     1       1.268  -2.155  -0.020  0.00  0.00    +0.341 C 
ATOM     17  O   UNL     1       1.279  -2.758  -1.075  0.00  0.00    -0.245 OA
BRANCH  16  18
ATOM     18  C   UNL     1       1.217  -0.678  -0.013  0.00  0.00    +0.073 A 
ATOM     19  C   UNL     1       2.406   0.094  -0.022  0.00  0.00    +0.015 A 
ATOM     20  C   UNL     1       3.670  -0.509  -0.038  0.00  0.00    +0.011 A 
ATOM     21  C   UNL     1       4.788   0.270  -0.047  0.00  0.00    +0.001 A 
ATOM     22  C   UNL     1       4.690   1.660  -0.040  0.00  0.00    +0.002 A 
ATOM     23  C   UNL     1       3.478   2.278  -0.023  0.00  0.00    +0.028 A 
ATOM     24  C   UNL     1       2.300   1.506  -0.013  0.00  0.00    +0.072 A 
ATOM     25  N   UNL     1       1.099   2.086   0.003  0.00  0.00    -0.251 NA
ATOM     26  C   UNL     1      -0.017   1.390   0.010  0.00  0.00    +0.046 A 
ATOM     27  C   UNL     1       0.002  -0.004   0.002  0.00  0.00    -0.012 A 
ATOM     28  C   UNL     1      -1.414  -0.536   0.011  0.00  0.00    +0.038 C 
ATOM     29  C   UNL     1      -2.296   0.656  -0.416  0.00  0.00    +0.011 C 
ATOM     30  C   UNL     1      -1.455   1.871   0.032  0.00  0.00    +0.056 C 
ENDBRANCH  16  18
ENDBRANCH   1  16
TORSDOF 5
