REMARK  Name = ZINC15940633
REMARK  15 active torsions:
REMARK  status: ('A' for Active; 'I' for Inactive)
REMARK    1  A    between atoms: C_1  and  C_2
REMARK    2  A    between atoms: C_2  and  C_3
REMARK    3  A    between atoms: C_2  and  C_4
REMARK    4  A    between atoms: C_4  and  N_5
REMARK    5  A    between atoms: C_6  and  N_34
REMARK    6  A    between atoms: C_7  and  N_14
REMARK    7  A    between atoms: N_14  and  C_15
REMARK    8  A    between atoms: C_15  and  C_16
REMARK    9  A    between atoms: C_16  and  C_17
REMARK   10  A    between atoms: C_16  and  C_18
REMARK   11  A    between atoms: C_19  and  C_21
REMARK   12  A    between atoms: C_21  and  N_22
REMARK   13  A    between atoms: N_22  and  C_23
REMARK   14  A    between atoms: C_24  and  C_26
REMARK   15  A    between atoms: C_26  and  C_27
REMARK                            x       y       z     vdW  Elec       q    Type
REMARK                         _______ _______ _______ _____ _____    ______ ____
ROOT
ATOM      1  N   UNL     1      -0.561   2.567   5.220  0.00  0.00    -0.263 N 
ATOM      2  C   UNL     1       0.162   3.518   4.592  0.00  0.00    +0.237 C 
ATOM      3  O   UNL     1       0.930   3.209   3.705  0.00  0.00    -0.274 OA
ENDROOT
BRANCH   1   6
ATOM      4  N   UNL     1      -0.001  -1.065   5.167  0.00  0.00    -0.280 N 
ATOM      5  C   UNL     1      -0.051   0.232   5.624  0.00  0.00    +0.127 A 
ATOM      6  C   UNL     1      -0.498   1.228   4.780  0.00  0.00    +0.140 A 
ATOM      7  C   UNL     1      -0.889   0.884   3.472  0.00  0.00    +0.277 A 
ATOM      8  O   UNL     1      -1.288   1.744   2.705  0.00  0.00    -0.266 OA
ATOM      9  N   UNL     1      -0.821  -0.401   3.074  0.00  0.00    -0.273 N 
ATOM     10  H   UNL     1      -1.090  -0.639   2.173  0.00  0.00    +0.173 HD
ATOM     11  C   UNL     1      -0.378  -1.357   3.909  0.00  0.00    +0.331 A 
ATOM     12  O   UNL     1      -0.322  -2.509   3.522  0.00  0.00    -0.246 OA
BRANCH   5  13
ATOM     13  N   UNL     1       0.338   0.532   6.908  0.00  0.00    -0.343 N 
ATOM     14  H   UNL     1       0.569  -0.181   7.524  0.00  0.00    +0.144 HD
ATOM     15  H   UNL     1       0.383   1.456   7.197  0.00  0.00    +0.144 HD
ENDBRANCH   5  13
BRANCH   4  16
ATOM     16  C   UNL     1       0.470  -2.131   6.053  0.00  0.00    +0.131 C 
BRANCH  16  18
ATOM     17  C   UNL     1       2.677  -1.012   6.401  0.00  0.00    +0.009 C 
ATOM     18  C   UNL     1       1.986  -2.284   5.906  0.00  0.00    +0.003 C 
ATOM     19  C   UNL     1       2.461  -3.478   6.735  0.00  0.00    +0.009 C 
ENDBRANCH  16  18
ENDBRANCH   4  16
ENDBRANCH   1   6
BRANCH   1  20
ATOM     20  C   UNL     1      -1.412   2.925   6.357  0.00  0.00    +0.117 C 
BRANCH  20  21
ATOM     21  C   UNL     1      -2.774   3.398   5.846  0.00  0.00    +0.001 C 
ATOM     22  C   UNL     1      -3.501   2.231   5.177  0.00  0.00    +0.009 C 
ATOM     23  C   UNL     1      -3.608   3.912   7.021  0.00  0.00    +0.009 C 
ENDBRANCH  20  21
ENDBRANCH   1  20
BRANCH   2  24
ATOM     24  C   UNL     1       0.015   4.963   4.993  0.00  0.00    +0.203 C 
BRANCH  24  25
ATOM     25  N   UNL     1       0.851   5.797   4.127  0.00  0.00    -0.295 N 
ATOM     26  C   UNL     1       0.303   6.341   2.882  0.00  0.00    +0.132 C 
ATOM     27  C   UNL     1       2.126   6.065   4.475  0.00  0.00    +0.220 C 
ATOM     28  O   UNL     1       2.580   5.614   5.506  0.00  0.00    -0.275 OA
BRANCH  27  29
ATOM     29  C   UNL     1       2.986   6.923   3.584  0.00  0.00    +0.132 C 
BRANCH  29  30
ATOM     30  C   UNL     1       4.356   7.067   4.197  0.00  0.00    -0.020 A 
ATOM     31  C   UNL     1       4.647   8.163   4.987  0.00  0.00    +0.005 A 
ATOM     32  C   UNL     1       5.904   8.296   5.549  0.00  0.00    +0.000 A 
ATOM     33  C   UNL     1       6.869   7.332   5.321  0.00  0.00    +0.001 A 
ATOM     34  C   UNL     1       6.578   6.237   4.530  0.00  0.00    +0.020 A 
ATOM     35  C   UNL     1       5.319   6.101   3.972  0.00  0.00    +0.045 A 
ATOM     36 CL   UNL     1       4.951   4.721   2.985  0.00  0.00    -0.083 Cl
ENDBRANCH  29  30
ENDBRANCH  27  29
ENDBRANCH  24  25
ENDBRANCH   2  24
TORSDOF 10
