REMARK  Name = ZINC36146381
REMARK  14 active torsions:
REMARK  status: ('A' for Active; 'I' for Inactive)
REMARK    1  A    between atoms: C_1  and  C_2
REMARK    2  A    between atoms: C_2  and  C_3
REMARK    3  A    between atoms: C_3  and  C_4
REMARK    4  A    between atoms: C_4  and  O_6
REMARK    5  A    between atoms: O_6  and  C_7
REMARK    6  A    between atoms: C_7  and  C_8
REMARK    7  A    between atoms: C_8  and  C_10
REMARK    8  A    between atoms: C_8  and  O_35
REMARK    9  A    between atoms: C_10  and  N_11
REMARK   10  A    between atoms: N_11  and  C_12
REMARK   11  A    between atoms: N_11  and  C_20
REMARK   12  A    between atoms: C_12  and  C_13
REMARK   13  A    between atoms: C_20  and  C_21
REMARK   14  A    between atoms: C_24  and  C_27
REMARK                            x       y       z     vdW  Elec       q    Type
REMARK                         _______ _______ _______ _____ _____    ______ ____
ROOT
ATOM      1  N   UNL     1       2.787  -6.097  -5.174  0.00  0.00    +0.387 N 
ATOM      2  H   UNL     1       2.688  -5.344  -5.839  0.00  0.00    -0.081 HD
ENDROOT
BRANCH   1   3
ATOM      3  C   UNL     1       2.032  -5.776  -3.955  0.00  0.00    -0.043 C 
BRANCH   3   4
ATOM      4  C   UNL     1       2.369  -4.353  -3.507  0.00  0.00    +0.136 C 
BRANCH   4   5
ATOM      5  O   UNL     1       3.679  -4.330  -2.936  0.00  0.00    -0.390 OA
ATOM      6  H   UNL     1       3.721  -4.682  -2.036  0.00  0.00    +0.210 HD
ENDBRANCH   4   5
BRANCH   4   7
ATOM      7  C   UNL     1       1.349  -3.892  -2.463  0.00  0.00    +0.261 C 
BRANCH   7   8
ATOM      8  O   UNL     1       1.594  -2.524  -2.130  0.00  0.00    -0.462 OA
BRANCH   8   9
ATOM      9  C   UNL     1       0.780  -1.964  -1.221  0.00  0.00    +0.307 C 
ATOM     10  O   UNL     1      -0.110  -2.613  -0.725  0.00  0.00    -0.251 OA
BRANCH   9  11
ATOM     11  C   UNL     1       0.977  -0.524  -0.820  0.00  0.00    +0.120 C 
BRANCH  11  13
ATOM     12  C   UNL     1       0.125   1.324   0.630  0.00  0.00    +0.004 C 
ATOM     13  C   UNL     1      -0.075  -0.137   0.222  0.00  0.00    +0.008 C 
ENDBRANCH  11  13
ENDBRANCH   9  11
ENDBRANCH   8   9
ENDBRANCH   7   8
ENDBRANCH   4   7
ENDBRANCH   3   4
ENDBRANCH   1   3
BRANCH   1  14
ATOM     14  C   UNL     1       4.206  -6.272  -4.839  0.00  0.00    -0.040 C 
BRANCH  14  15
ATOM     15  C   UNL     1       4.349  -7.364  -3.811  0.00  0.00    -0.029 A 
ATOM     16  C   UNL     1       4.407  -7.045  -2.467  0.00  0.00    +0.004 A 
ATOM     17  C   UNL     1       4.538  -8.047  -1.524  0.00  0.00    +0.000 A 
ATOM     18  C   UNL     1       4.611  -9.369  -1.923  0.00  0.00    +0.003 A 
ATOM     19  C   UNL     1       4.553  -9.690  -3.266  0.00  0.00    +0.038 A 
ATOM     20  C   UNL     1       4.417  -8.688  -4.212  0.00  0.00    +0.125 A 
ATOM     21  F   UNL     1       4.355  -9.001  -5.524  0.00  0.00    -0.205 F 
ENDBRANCH  14  15
ENDBRANCH   1  14
BRANCH   1  22
ATOM     22  C   UNL     1       2.265  -7.339  -5.760  0.00  0.00    -0.030 C 
BRANCH  22  23
ATOM     23  C   UNL     1       2.697  -7.432  -7.225  0.00  0.00    +0.194 C 
ATOM     24  C   UNL     1       2.322  -8.808  -7.827  0.00  0.00    +0.104 C 
ATOM     25  C   UNL     1       3.507  -9.109  -8.725  0.00  0.00    +0.091 C 
ATOM     26  N   UNL     1       4.472  -8.314  -8.402  0.00  0.00    -0.089 NA
ATOM     27  O   UNL     1       4.135  -7.443  -7.340  0.00  0.00    -0.392 OA
BRANCH  25  28
ATOM     28  C   UNL     1       3.550 -10.135  -9.785  0.00  0.00    +0.001 A 
ATOM     29  C   UNL     1       2.429 -10.930 -10.037  0.00  0.00    +0.011 A 
ATOM     30  C   UNL     1       2.474 -11.886 -11.029  0.00  0.00    +0.022 A 
ATOM     31  C   UNL     1       3.628 -12.061 -11.775  0.00  0.00    +0.059 A 
ATOM     32  C   UNL     1       4.744 -11.276 -11.530  0.00  0.00    +0.060 A 
ATOM     33  C   UNL     1       4.708 -10.311 -10.543  0.00  0.00    +0.031 A 
ATOM     34 CL   UNL     1       6.186 -11.502 -12.470  0.00  0.00    -0.082 Cl
ATOM     35 CL   UNL     1       3.677 -13.268 -13.022  0.00  0.00    -0.082 Cl
ENDBRANCH  25  28
ENDBRANCH  22  23
ENDBRANCH   1  22
TORSDOF 13
