REMARK  Name = ZINC10960989
REMARK  7 active torsions:
REMARK  status: ('A' for Active; 'I' for Inactive)
REMARK    1  A    between atoms: C_1  and  C_2
REMARK    2  A    between atoms: C_2  and  C_4
REMARK    3  A    between atoms: C_2  and  O_16
REMARK    4  A    between atoms: N_6  and  C_7
REMARK    5  A    between atoms: O_16  and  C_17
REMARK    6  A    between atoms: C_17  and  C_19
REMARK    7  A    between atoms: C_24  and  N_25
REMARK                            x       y       z     vdW  Elec       q    Type
REMARK                         _______ _______ _______ _____ _____    ______ ____
ROOT
ATOM      1  C   UNL     1       4.448  -0.596   1.497  0.00  0.00    +0.062 C 
ATOM      2  C   UNL     1       3.748  -0.970   0.189  0.00  0.00    +0.259 C 
ENDROOT
BRANCH   2   3
ATOM      3  C   UNL     1       2.431  -0.242   0.099  0.00  0.00    +0.258 C 
ATOM      4  O   UNL     1       1.391  -0.866   0.108  0.00  0.00    -0.271 OA
ATOM      5  N   UNL     1       2.409   1.102   0.007  0.00  0.00    -0.280 N 
ATOM      6  H   UNL     1       3.239   1.596  -0.082  0.00  0.00    +0.155 HD
BRANCH   5   7
ATOM      7  C   UNL     1       1.187   1.787   0.041  0.00  0.00    +0.072 A 
ATOM      8  C   UNL     1       0.085   1.213   0.660  0.00  0.00    +0.029 A 
ATOM      9  C   UNL     1      -1.121   1.886   0.688  0.00  0.00    +0.043 A 
ATOM     10  C   UNL     1      -1.231   3.138   0.108  0.00  0.00    +0.161 A 
ATOM     11  C   UNL     1      -0.133   3.716  -0.511  0.00  0.00    +0.195 A 
ATOM     12  C   UNL     1       1.076   3.042  -0.545  0.00  0.00    +0.182 A 
ATOM     13  F   UNL     1       2.147   3.604  -1.148  0.00  0.00    -0.200 F 
ATOM     14  F   UNL     1      -0.244   4.936  -1.081  0.00  0.00    -0.199 F 
ATOM     15  F   UNL     1      -2.410   3.796   0.142  0.00  0.00    -0.202 F 
ENDBRANCH   5   7
ENDBRANCH   2   3
BRANCH   2  16
ATOM     16  O   UNL     1       3.512  -2.402   0.159  0.00  0.00    -0.449 OA
BRANCH  16  17
ATOM     17  C   UNL     1       4.480  -3.170  -0.379  0.00  0.00    +0.342 C 
ATOM     18  O   UNL     1       5.493  -2.657  -0.811  0.00  0.00    -0.245 OA
BRANCH  17  19
ATOM     19  C   UNL     1       4.310  -4.632  -0.444  0.00  0.00    +0.082 A 
ATOM     20  C   UNL     1       3.103  -5.218  -0.049  0.00  0.00    +0.037 A 
ATOM     21  C   UNL     1       2.950  -6.586  -0.111  0.00  0.00    +0.043 A 
ATOM     22  C   UNL     1       3.987  -7.387  -0.566  0.00  0.00    +0.042 A 
ATOM     23  C   UNL     1       5.185  -6.824  -0.959  0.00  0.00    +0.064 A 
ATOM     24  C   UNL     1       5.356  -5.445  -0.908  0.00  0.00    +0.057 A 
ATOM     25 CL   UNL     1       6.475  -7.837  -1.525  0.00  0.00    -0.082 Cl
ATOM     26 CL   UNL     1       1.451  -7.311   0.380  0.00  0.00    -0.083 Cl
BRANCH  24  27
ATOM     27  N   UNL     1       6.557  -4.875  -1.310  0.00  0.00    -0.356 N 
ATOM     28  H   UNL     1       6.650  -3.910  -1.340  0.00  0.00    +0.142 HD
ATOM     29  H   UNL     1       7.304  -5.442  -1.559  0.00  0.00    +0.142 HD
ENDBRANCH  24  27
ENDBRANCH  17  19
ENDBRANCH  16  17
ENDBRANCH   2  16
TORSDOF 6
