REMARK  Name = ZINC45754775
REMARK  6 active torsions:
REMARK  status: ('A' for Active; 'I' for Inactive)
REMARK    1  A    between atoms: C_1  and  C_2
REMARK    2  A    between atoms: C_5  and  C_33
REMARK    3  A    between atoms: N_8  and  C_10
REMARK    4  A    between atoms: C_10  and  C_11
REMARK    5  A    between atoms: C_17  and  C_19
REMARK    6  A    between atoms: N_24  and  C_26
REMARK                            x       y       z     vdW  Elec       q    Type
REMARK                         _______ _______ _______ _____ _____    ______ ____
ROOT
ATOM      1  C   UNL     1       2.146   0.211   3.650  0.00  0.00    +0.034 A 
ATOM      2  C   UNL     1       1.190  -0.435   4.362  0.00  0.00    +0.070 A 
ATOM      3  S   UNL     1       0.811   0.794   5.601  0.00  0.00    -0.060 S 
ATOM      4  C   UNL     1       1.891   1.980   5.091  0.00  0.00    +0.165 A 
ATOM      5  N   UNL     1       2.476   1.425   4.051  0.00  0.00    -0.231 NA
ATOM      6  N   UNL     1       2.114   3.238   5.638  0.00  0.00    -0.264 N 
ATOM      7  C   UNL     1       1.415   3.636   6.719  0.00  0.00    +0.224 C 
ATOM      8  O   UNL     1       0.591   2.897   7.214  0.00  0.00    -0.275 OA
ATOM      9  H   UNL     1       2.772   3.829   5.241  0.00  0.00    +0.157 HD
ENDROOT
BRANCH   7  10
ATOM     10  C   UNL     1       1.656   5.001   7.311  0.00  0.00    +0.102 C 
ATOM     11  C   UNL     1       3.093   5.114   7.872  0.00  0.00    +0.110 C 
ATOM     12  C   UNL     1       2.938   5.951   9.123  0.00  0.00    +0.221 C 
ATOM     13  O   UNL     1       3.846   6.505   9.704  0.00  0.00    -0.275 OA
ATOM     14  N   UNL     1       1.647   5.992   9.495  0.00  0.00    -0.268 N 
ATOM     15  C   UNL     1       0.803   5.210   8.582  0.00  0.00    +0.127 C 
BRANCH  14  16
ATOM     16  C   UNL     1       1.168   6.692  10.609  0.00  0.00    +0.072 A 
ATOM     17  C   UNL     1       0.758   8.012  10.479  0.00  0.00    +0.026 A 
ATOM     18  C   UNL     1       0.285   8.699  11.579  0.00  0.00    +0.002 A 
ATOM     19  C   UNL     1       0.220   8.075  12.812  0.00  0.00    +0.003 A 
ATOM     20  C   UNL     1       0.627   6.761  12.947  0.00  0.00    +0.040 A 
ATOM     21  C   UNL     1       1.096   6.064  11.848  0.00  0.00    +0.145 A 
ATOM     22  F   UNL     1       1.489   4.779  11.979  0.00  0.00    -0.204 F 
ENDBRANCH  14  16
ENDBRANCH   7  10
BRANCH   1  23
ATOM     23  C   UNL     1       2.808  -0.431   2.458  0.00  0.00    -0.022 C 
BRANCH  23  29
ATOM     24  C   UNL     1      -0.019   1.526   0.010  0.00  0.00    +0.005 C 
ATOM     25  C   UNL     1       0.002  -0.004   0.002  0.00  0.00    -0.031 C 
ATOM     26  C   UNL     1       0.721  -0.499  -1.257  0.00  0.00    +0.003 C 
ATOM     27  C   UNL     1       2.177  -0.027  -1.220  0.00  0.00    -0.031 C 
ATOM     28  C   UNL     1       2.839  -0.534   0.063  0.00  0.00    -0.075 C 
ATOM     29  N   UNL     1       2.123  -0.005   1.230  0.00  0.00    +0.384 N 
ATOM     30  C   UNL     1       0.744  -0.512   1.240  0.00  0.00    -0.075 C 
ATOM     31  C   UNL     1       2.924  -0.581  -2.434  0.00  0.00    +0.005 C 
ATOM     32  H   UNL     1       2.109   1.003   1.187  0.00  0.00    -0.081 HD
ENDBRANCH  23  29
ENDBRANCH   1  23
TORSDOF 4
