REMARK  Name = ZINC21897029
REMARK  4 active torsions:
REMARK  status: ('A' for Active; 'I' for Inactive)
REMARK    1  A    between atoms: C_1  and  C_2
REMARK    2  A    between atoms: C_9  and  C_26
REMARK    3  A    between atoms: C_10  and  N_11
REMARK    4  A    between atoms: C_12  and  C_14
REMARK                            x       y       z     vdW  Elec       q    Type
REMARK                         _______ _______ _______ _____ _____    ______ ____
ROOT
ATOM      1  C   UNL     1       1.194  -2.211  -0.503  0.00  0.00    +0.047 C 
ATOM      2  C   UNL     1       1.104  -0.718  -0.691  0.00  0.00    -0.008 A 
ATOM      3  C   UNL     1       2.134  -0.034  -1.257  0.00  0.00    +0.008 A 
ATOM      4  C   UNL     1       2.038   1.358  -1.426  0.00  0.00    +0.018 A 
ATOM      5  C   UNL     1       0.929   2.018  -1.031  0.00  0.00    +0.094 A 
ATOM      6  N   UNL     1      -0.115   1.344  -0.460  0.00  0.00    -0.287 N 
ATOM      7  C   UNL     1      -0.051  -0.018  -0.281  0.00  0.00    +0.143 A 
ATOM      8  N   UNL     1      -1.176  -0.423   0.285  0.00  0.00    -0.226 NA
ATOM      9  C   UNL     1      -1.980   0.637   0.483  0.00  0.00    +0.112 A 
ATOM     10  C   UNL     1      -1.325   1.761   0.025  0.00  0.00    +0.137 A 
ENDROOT
BRANCH   9  11
ATOM     11  C   UNL     1      -3.330   0.604   1.094  0.00  0.00    +0.004 A 
ATOM     12  C   UNL     1      -3.761   1.659   1.897  0.00  0.00    +0.010 A 
ATOM     13  C   UNL     1      -5.021   1.624   2.458  0.00  0.00    +0.001 A 
ATOM     14  C   UNL     1      -5.852   0.541   2.234  0.00  0.00    +0.000 A 
ATOM     15  C   UNL     1      -5.428  -0.511   1.442  0.00  0.00    +0.001 A 
ATOM     16  C   UNL     1      -4.172  -0.486   0.871  0.00  0.00    +0.010 A 
ENDBRANCH   9  11
BRANCH  10  17
ATOM     17  N   UNL     1      -1.807   3.071   0.044  0.00  0.00    -0.269 N 
ATOM     18  C   UNL     1      -1.131   4.028   0.710  0.00  0.00    +0.226 C 
ATOM     19  O   UNL     1      -0.061   3.771   1.220  0.00  0.00    -0.275 OA
ATOM     20  H   UNL     1      -2.739   3.321  -0.484  0.00  0.00    +0.156 HD
BRANCH  18  21
ATOM     21  C   UNL     1      -1.705   5.417   0.821  0.00  0.00    +0.116 C 
ATOM     22  C   UNL     1      -3.057   5.354   1.534  0.00  0.00    +0.113 C 
ATOM     23  C   UNL     1      -2.853   5.047   2.993  0.00  0.00    +0.218 C 
ATOM     24  O   UNL     1      -3.660   4.357   3.578  0.00  0.00    -0.275 OA
ATOM     25  N   UNL     1      -1.786   5.530   3.655  0.00  0.00    -0.285 N 
ATOM     26  C   UNL     1      -0.835   6.313   2.993  0.00  0.00    +0.037 A 
ATOM     27  C   UNL     1      -0.761   6.289   1.607  0.00  0.00    -0.014 A 
ATOM     28  C   UNL     1       0.177   7.062   0.952  0.00  0.00    +0.006 A 
ATOM     29  C   UNL     1       1.043   7.861   1.677  0.00  0.00    +0.000 A 
ATOM     30  C   UNL     1       0.972   7.887   3.058  0.00  0.00    +0.002 A 
ATOM     31  C   UNL     1       0.035   7.116   3.718  0.00  0.00    +0.023 A 
ATOM     32  H   UNL     1      -1.657   5.310   4.725  0.00  0.00    +0.155 HD
ENDBRANCH  18  21
ENDBRANCH  10  17
TORSDOF 3
