REMARK  Name = ZINC12203197
REMARK  11 active torsions:
REMARK  status: ('A' for Active; 'I' for Inactive)
REMARK    1  A    between atoms: C_1  and  N_68
REMARK    2  A    between atoms: C_2  and  N_68
REMARK    3  A    between atoms: C_3  and  C_4
REMARK    4  A    between atoms: C_3  and  N_68
REMARK    5  A    between atoms: C_4  and  N_5
REMARK    6  A    between atoms: C_8  and  C_12
REMARK    7  A    between atoms: C_8  and  C_20
REMARK    8  A    between atoms: C_12  and  C_13
REMARK    9  A    between atoms: C_13  and  C_14
REMARK   10  A    between atoms: C_26  and  C_28
REMARK   11  A    between atoms: C_28  and  C_29
REMARK                            x       y       z     vdW  Elec       q    Type
REMARK                         _______ _______ _______ _____ _____    ______ ____
ROOT
ATOM      1  N   UNL     1       1.245  -0.498  -0.013  0.00  0.00    -0.226 N 
ATOM      2  C   UNL     1       2.170   0.482  -0.016  0.00  0.00    +0.247 C 
ATOM      3  O   UNL     1       3.375   0.352  -0.029  0.00  0.00    -0.273 OA
ATOM      4  C   UNL     1       1.389   1.782  -0.002  0.00  0.00    +0.116 C 
ATOM      5  N   UNL     1      -0.016   1.341   0.009  0.00  0.00    -0.285 N 
ATOM      6  C   UNL     1       0.002  -0.004   0.002  0.00  0.00    +0.309 C 
ATOM      7  O   UNL     1      -0.999  -0.693   0.008  0.00  0.00    -0.252 OA
ATOM      8  H   UNL     1      -0.802   1.910   0.016  0.00  0.00    +0.151 HD
ENDROOT
BRANCH   4   9
ATOM      9  C   UNL     1       1.711   2.588   1.258  0.00  0.00    +0.024 C 
ATOM     10  C   UNL     1       3.142   3.123   1.170  0.00  0.00    +0.025 C 
ATOM     11  C   UNL     1       3.448   3.959   2.416  0.00  0.00    +0.108 C 
ATOM     12  N   UNL     1       3.181   3.145   3.609  0.00  0.00    -0.301 N 
ATOM     13  C   UNL     1       1.864   2.508   3.750  0.00  0.00    +0.108 C 
ATOM     14  C   UNL     1       1.576   1.688   2.488  0.00  0.00    +0.025 C 
ATOM     15  C   UNL     1       4.126   2.984   4.557  0.00  0.00    +0.220 C 
ATOM     16  O   UNL     1       3.894   2.308   5.537  0.00  0.00    -0.275 OA
BRANCH  15  17
ATOM     17  C   UNL     1       5.472   3.644   4.398  0.00  0.00    +0.138 C 
BRANCH  17  18
ATOM     18  C   UNL     1       6.338   3.309   5.585  0.00  0.00    -0.001 A 
ATOM     19  C   UNL     1       7.188   2.266   5.754  0.00  0.00    +0.011 A 
ATOM     20  C   UNL     1       7.889   2.159   6.940  0.00  0.00    +0.008 A 
ATOM     21  C   UNL     1       7.707   3.100   7.899  0.00  0.00    +0.045 A 
ATOM     22  S   UNL     1       6.518   4.186   7.129  0.00  0.00    -0.101 S 
ENDBRANCH  17  18
ENDBRANCH  15  17
ENDBRANCH   4   9
BRANCH   1  23
ATOM     23  C   UNL     1       1.562  -1.929  -0.024  0.00  0.00    +0.099 C 
BRANCH  23  24
ATOM     24  C   UNL     1       1.659  -2.418  -1.470  0.00  0.00    -0.060 C 
BRANCH  24  27
ATOM     25  C   UNL     1       0.872  -4.641  -0.919  0.00  0.00    -0.097 C 
ATOM     26  C   UNL     1       2.310  -4.307  -2.838  0.00  0.00    -0.097 C 
ATOM     27  N   UNL     1       2.000  -3.856  -1.465  0.00  0.00    +0.377 N 
ATOM     28  H   UNL     1       2.825  -4.001  -0.872  0.00  0.00    -0.083 HD
ENDBRANCH  24  27
ENDBRANCH  23  24
ENDBRANCH   1  23
BRANCH   4  29
ATOM     29  C   UNL     1       1.687   2.602  -1.258  0.00  0.00    +0.040 C 
BRANCH  29  30
ATOM     30  C   UNL     1       1.291   1.797  -2.498  0.00  0.00    +0.038 C 
BRANCH  30  31
ATOM     31  C   UNL     1       1.584   2.605  -3.736  0.00  0.00    -0.047 A 
ATOM     32  C   UNL     1       0.616   3.441  -4.261  0.00  0.00    +0.003 A 
ATOM     33  C   UNL     1       0.886   4.186  -5.394  0.00  0.00    +0.000 A 
ATOM     34  C   UNL     1       2.121   4.087  -6.008  0.00  0.00    +0.000 A 
ATOM     35  C   UNL     1       3.087   3.247  -5.486  0.00  0.00    +0.000 A 
ATOM     36  C   UNL     1       2.819   2.506  -4.350  0.00  0.00    +0.003 A 
ENDBRANCH  30  31
ENDBRANCH  29  30
ENDBRANCH   4  29
TORSDOF 9
