REMARK  Name = ZINC17112340
REMARK  5 active torsions:
REMARK  status: ('A' for Active; 'I' for Inactive)
REMARK    1  A    between atoms: C_1  and  O_2
REMARK    2  A    between atoms: O_2  and  C_3
REMARK    3  A    between atoms: C_3  and  C_5
REMARK    4  A    between atoms: C_10  and  C_11
REMARK    5  A    between atoms: C_14  and  C_16
REMARK                            x       y       z     vdW  Elec       q    Type
REMARK                         _______ _______ _______ _____ _____    ______ ____
ROOT
ATOM      1  C   UNL     1      -3.745  -1.992   0.027  0.00  0.00    +0.137 A 
ATOM      2  C   UNL     1      -4.808  -2.179  -0.810  0.00  0.00    +0.050 A 
ATOM      3  C   UNL     1      -5.781  -1.237  -0.455  0.00  0.00    +0.053 A 
ATOM      4  C   UNL     1      -5.265  -0.509   0.594  0.00  0.00    +0.171 A 
ATOM      5  O   UNL     1      -4.035  -0.987   0.873  0.00  0.00    -0.452 OA
ENDROOT
BRANCH   4   6
ATOM      6  C   UNL     1      -5.939   0.592   1.291  0.00  0.00    +0.178 A 
ATOM      7  N   UNL     1      -5.300   1.234   2.321  0.00  0.00    -0.304 N 
ATOM      8  H   UNL     1      -4.407   0.953   2.576  0.00  0.00    +0.170 HD
ATOM      9  C   UNL     1      -5.889   2.247   2.982  0.00  0.00    +0.260 A 
ATOM     10  O   UNL     1      -5.309   2.809   3.895  0.00  0.00    -0.267 OA
ATOM     11  C   UNL     1      -7.208   2.656   2.598  0.00  0.00    +0.075 A 
ATOM     12  C   UNL     1      -8.028   3.721   3.173  0.00  0.00    -0.023 A 
ATOM     13  C   UNL     1      -9.250   3.915   2.630  0.00  0.00    -0.004 A 
ATOM     14  S   UNL     1      -9.376   2.707   1.339  0.00  0.00    -0.073 S 
ATOM     15  C   UNL     1      -7.786   1.943   1.532  0.00  0.00    +0.116 A 
ATOM     16  N   UNL     1      -7.152   0.956   0.916  0.00  0.00    -0.219 NA
ATOM     17  C   UNL     1     -10.272   4.931   3.037  0.00  0.00    +0.043 C 
ATOM     18  C   UNL     1      -9.881   5.487   4.414  0.00  0.00    +0.005 C 
ATOM     19  C   UNL     1      -8.395   5.856   4.390  0.00  0.00    +0.005 C 
ATOM     20  C   UNL     1      -7.545   4.586   4.334  0.00  0.00    +0.037 C 
ENDBRANCH   4   6
BRANCH   1  26
ATOM     21  C   UNL     1      -1.247  -2.105   0.003  0.00  0.00    +0.070 A 
ATOM     22  C   UNL     1      -0.070  -2.854  -0.007  0.00  0.00    +0.016 A 
ATOM     23  C   UNL     1      -0.129  -4.232  -0.013  0.00  0.00    +0.001 A 
ATOM     24  C   UNL     1      -1.353  -4.883  -0.011  0.00  0.00    +0.001 A 
ATOM     25  C   UNL     1      -2.529  -4.163  -0.002  0.00  0.00    +0.012 A 
ATOM     26  C   UNL     1      -2.492  -2.767   0.011  0.00  0.00    +0.031 A 
BRANCH  21  27
ATOM     27  C   UNL     1      -1.190  -0.632   0.010  0.00  0.00    +0.340 C 
ATOM     28  O   UNL     1      -2.218   0.016   0.023  0.00  0.00    -0.245 OA
BRANCH  27  30
ATOM     29  C   UNL     1      -0.017   1.425   0.010  0.00  0.00    +0.280 C 
ATOM     30  O   UNL     1       0.002  -0.004   0.002  0.00  0.00    -0.464 OA
ENDBRANCH  27  30
ENDBRANCH  21  27
ENDBRANCH   1  26
TORSDOF 4
