REMARK  Name = ZINC63490816
REMARK  11 active torsions:
REMARK  status: ('A' for Active; 'I' for Inactive)
REMARK    1  A    between atoms: C_1  and  C_2
REMARK    2  A    between atoms: N_8  and  C_9
REMARK    3  A    between atoms: C_9  and  C_10
REMARK    4  A    between atoms: C_10  and  N_11
REMARK    5  A    between atoms: C_12  and  C_14
REMARK    6  A    between atoms: C_14  and  C_15
REMARK    7  A    between atoms: C_15  and  C_16
REMARK    8  A    between atoms: C_16  and  C_17
REMARK    9  A    between atoms: C_17  and  N_18
REMARK   10  A    between atoms: C_26  and  O_33
REMARK   11  A    between atoms: O_33  and  C_34
REMARK                            x       y       z     vdW  Elec       q    Type
REMARK                         _______ _______ _______ _____ _____    ______ ____
ROOT
ATOM      1  C   UNL     1       1.067   0.265  11.007  0.00  0.00    +0.116 C 
ENDROOT
BRANCH   1   2
ATOM      2  N   UNL     1       0.425   0.803  12.209  0.00  0.00    -0.247 N 
ATOM      3  C   UNL     1       0.772   2.034  12.650  0.00  0.00    +0.272 C 
ATOM      4  O   UNL     1       1.605   2.703  12.069  0.00  0.00    -0.268 OA
ATOM      5  C   UNL     1       0.098   2.533  13.864  0.00  0.00    +0.150 C 
ATOM      6  N   UNL     1       0.158   3.627  14.570  0.00  0.00    -0.240 NA
ATOM      7  C   UNL     1      -0.678   3.619  15.627  0.00  0.00    +0.074 A 
ATOM      8  C   UNL     1      -0.926   4.574  16.625  0.00  0.00    +0.032 A 
ATOM      9  C   UNL     1      -1.851   4.316  17.616  0.00  0.00    +0.048 A 
ATOM     10  C   UNL     1      -2.546   3.115  17.641  0.00  0.00    +0.121 A 
ATOM     11  C   UNL     1      -2.314   2.151  16.655  0.00  0.00    +0.057 A 
ATOM     12  C   UNL     1      -1.391   2.396  15.659  0.00  0.00    +0.029 A 
ATOM     13  C   UNL     1      -0.903   1.633  14.492  0.00  0.00    +0.095 C 
ATOM     14  N   UNL     1      -1.136   0.469  13.954  0.00  0.00    -0.190 NA
ATOM     15  C   UNL     1      -0.498   0.067  12.845  0.00  0.00    +0.164 C 
ATOM     16  S   UNL     1      -0.877  -1.477  12.210  0.00  0.00    -0.016 S 
BRANCH  10  17
ATOM     17  O   UNL     1      -3.452   2.877  18.622  0.00  0.00    -0.495 OA
ATOM     18  C   UNL     1      -3.639   3.905  19.596  0.00  0.00    +0.277 C 
ENDBRANCH  10  17
ENDBRANCH   1   2
BRANCH   1  19
ATOM     19  C   UNL     1       0.257   0.668   9.773  0.00  0.00    +0.020 C 
BRANCH  19  20
ATOM     20  C   UNL     1       0.927   0.106   8.517  0.00  0.00    +0.011 C 
BRANCH  20  21
ATOM     21  C   UNL     1       0.117   0.509   7.283  0.00  0.00    +0.096 C 
BRANCH  21  23
ATOM     22  N   UNL     1       0.236   0.185   4.834  0.00  0.00    -0.317 N 
ATOM     23  C   UNL     1       0.777  -0.045   6.046  0.00  0.00    +0.213 C 
ATOM     24  O   UNL     1       1.795  -0.697   6.143  0.00  0.00    -0.276 OA
ATOM     25  H   UNL     1      -0.578   0.707   4.757  0.00  0.00    +0.149 HD
BRANCH  22  26
ATOM     26  C   UNL     1       0.877  -0.353   3.631  0.00  0.00    +0.085 C 
BRANCH  26  27
ATOM     27  C   UNL     1       0.067   0.050   2.397  0.00  0.00    -0.059 C 
BRANCH  27  34
ATOM     28  C   UNL     1      -0.019   1.526   0.010  0.00  0.00    -0.013 C 
ATOM     29  C   UNL     1       0.002  -0.004   0.002  0.00  0.00    -0.072 C 
ATOM     30  C   UNL     1       0.717  -0.497  -1.258  0.00  0.00    -0.016 C 
ATOM     31  C   UNL     1       0.735  -2.028  -1.262  0.00  0.00    -0.003 C 
ATOM     32  C   UNL     1       1.410  -2.524   0.020  0.00  0.00    -0.019 C 
ATOM     33  C   UNL     1       0.669  -1.956   1.232  0.00  0.00    -0.078 C 
ATOM     34  N   UNL     1       0.711  -0.490   1.192  0.00  0.00    +0.382 N 
ATOM     35  H   UNL     1       1.671  -0.182   1.159  0.00  0.00    -0.081 HD
ENDBRANCH  27  34
ENDBRANCH  26  27
ENDBRANCH  22  26
ENDBRANCH  21  23
ENDBRANCH  20  21
ENDBRANCH  19  20
ENDBRANCH   1  19
TORSDOF 9
