REMARK  Name = ZINC15072087
REMARK  7 active torsions:
REMARK  status: ('A' for Active; 'I' for Inactive)
REMARK    1  A    between atoms: C_4  and  C_19
REMARK    2  A    between atoms: C_19  and  N_20
REMARK    3  A    between atoms: N_20  and  C_21
REMARK    4  A    between atoms: C_21  and  C_22
REMARK    5  A    between atoms: C_22  and  C_23
REMARK    6  A    between atoms: C_23  and  N_24
REMARK    7  A    between atoms: C_30  and  C_32
REMARK                            x       y       z     vdW  Elec       q    Type
REMARK                         _______ _______ _______ _____ _____    ______ ____
ROOT
ATOM      1  C   UNL     1       0.517  -0.460   3.947  0.00  0.00    +0.014 A 
ATOM      2  C   UNL     1       0.220  -0.665   2.592  0.00  0.00    -0.001 A 
ATOM      3  C   UNL     1      -0.751  -1.605   2.189  0.00  0.00    +0.018 A 
ATOM      4  C   UNL     1      -0.991  -1.753   0.856  0.00  0.00    +0.008 A 
ATOM      5  C   UNL     1      -0.277  -0.981  -0.072  0.00  0.00    +0.104 A 
ATOM      6  C   UNL     1       0.908   0.083   1.606  0.00  0.00    +0.048 A 
ATOM      7  C   UNL     1       1.876   1.015   2.011  0.00  0.00    +0.030 A 
ATOM      8  C   UNL     1       2.144   1.192   3.337  0.00  0.00    -0.042 A 
ATOM      9  C   UNL     1       1.465   0.455   4.306  0.00  0.00    -0.043 A 
ATOM     10  C   UNL     1       1.956   0.853   5.683  0.00  0.00    +0.036 C 
ATOM     11  C   UNL     1       3.299   1.573   5.441  0.00  0.00    +0.009 C 
ATOM     12  C   UNL     1       3.131   2.125   4.010  0.00  0.00    +0.036 C 
ATOM     13  N   UNL     1      -0.532  -1.143  -1.426  0.00  0.00    -0.312 N 
ATOM     14  C   UNL     1       0.617  -1.754  -2.110  0.00  0.00    +0.134 C 
ATOM     15  C   UNL     1       0.271  -1.969  -3.585  0.00  0.00    +0.178 C 
ATOM     16  O   UNL     1      -0.103  -0.718  -4.169  0.00  0.00    -0.377 OA
ATOM     17  C   UNL     1      -1.220  -0.095  -3.528  0.00  0.00    +0.178 C 
ATOM     18  C   UNL     1      -0.889   0.139  -2.052  0.00  0.00    +0.134 C 
ATOM     19  N   UNL     1       0.667  -0.066   0.258  0.00  0.00    -0.343 N 
ATOM     20  H   UNL     1       1.170   0.482  -0.451  0.00  0.00    +0.167 HD
ENDROOT
BRANCH   4  21
ATOM     21  C   UNL     1      -2.020  -2.745   0.380  0.00  0.00    +0.146 C 
BRANCH  21  22
ATOM     22  N   UNL     1      -2.529  -3.508   1.523  0.00  0.00    -0.297 N 
ATOM     23  C   UNL     1      -3.656  -3.114   2.148  0.00  0.00    +0.219 C 
ATOM     24  O   UNL     1      -4.313  -2.200   1.696  0.00  0.00    -0.275 OA
BRANCH  23  25
ATOM     25  C   UNL     1      -4.101  -3.810   3.408  0.00  0.00    +0.075 C 
ATOM     26  C   UNL     1      -4.412  -5.276   3.099  0.00  0.00    +0.013 C 
ATOM     27  C   UNL     1      -4.864  -5.982   4.379  0.00  0.00    +0.001 C 
ATOM     28  C   UNL     1      -6.120  -5.298   4.923  0.00  0.00    +0.000 C 
ATOM     29  C   UNL     1      -5.809  -3.832   5.232  0.00  0.00    +0.001 C 
ATOM     30  C   UNL     1      -5.357  -3.126   3.952  0.00  0.00    +0.013 C 
ENDBRANCH  23  25
BRANCH  22  31
ATOM     31  C   UNL     1      -1.811  -4.698   1.987  0.00  0.00    +0.109 C 
BRANCH  31  32
ATOM     32  C   UNL     1      -2.189  -5.894   1.111  0.00  0.00    +0.038 C 
BRANCH  32  33
ATOM     33  C   UNL     1      -1.552  -7.164   1.681  0.00  0.00    +0.109 C 
BRANCH  33  34
ATOM     34  N   UNL     1      -1.814  -8.288   0.779  0.00  0.00    -0.301 N 
ATOM     35  C   UNL     1      -3.032  -9.107   0.808  0.00  0.00    +0.108 C 
ATOM     36  C   UNL     1      -3.064  -9.843  -0.551  0.00  0.00    +0.028 C 
ATOM     37  C   UNL     1      -1.563  -9.881  -0.922  0.00  0.00    +0.097 C 
ATOM     38  C   UNL     1      -0.967  -8.707  -0.177  0.00  0.00    +0.216 C 
ATOM     39  O   UNL     1       0.117  -8.215  -0.409  0.00  0.00    -0.276 OA
ENDBRANCH  33  34
ENDBRANCH  32  33
ENDBRANCH  31  32
ENDBRANCH  22  31
ENDBRANCH  21  22
ENDBRANCH   4  21
TORSDOF 7
