REMARK  Name = ZINC27102815
REMARK  8 active torsions:
REMARK  status: ('A' for Active; 'I' for Inactive)
REMARK    1  A    between atoms: C_1  and  C_2
REMARK    2  A    between atoms: C_3  and  C_28
REMARK    3  A    between atoms: C_9  and  O_13
REMARK    4  A    between atoms: O_13  and  C_14
REMARK    5  A    between atoms: C_14  and  C_15
REMARK    6  A    between atoms: N_17  and  C_18
REMARK    7  A    between atoms: C_18  and  C_20
REMARK    8  A    between atoms: C_18  and  C_21
REMARK                            x       y       z     vdW  Elec       q    Type
REMARK                         _______ _______ _______ _____ _____    ______ ____
ROOT
ATOM      1  C   UNL     1      -3.723  -4.804   0.011  0.00  0.00    +0.087 C 
ATOM      2  C   UNL     1      -2.376  -4.128   0.002  0.00  0.00    +0.114 A 
ATOM      3  C   UNL     1      -1.258  -4.900  -0.013  0.00  0.00    +0.067 A 
ATOM      4  C   UNL     1       0.058  -4.239  -0.023  0.00  0.00    +0.200 A 
ATOM      5  O   UNL     1       1.095  -4.880  -0.037  0.00  0.00    -0.286 OA
ATOM      6  C   UNL     1       0.060  -2.765  -0.014  0.00  0.00    +0.065 A 
ATOM      7  C   UNL     1       1.255  -2.043  -0.021  0.00  0.00    +0.019 A 
ATOM      8  C   UNL     1       1.222  -0.678  -0.019  0.00  0.00    +0.046 A 
ATOM      9  C   UNL     1       0.002  -0.004   0.002  0.00  0.00    +0.125 A 
ATOM     10  C   UNL     1      -1.191  -0.706   0.010  0.00  0.00    +0.092 A 
ATOM     11  C   UNL     1      -1.175  -2.095   0.002  0.00  0.00    +0.142 A 
ATOM     12  O   UNL     1      -2.328  -2.794   0.009  0.00  0.00    -0.459 OA
ENDROOT
BRANCH   3  13
ATOM     13  C   UNL     1      -1.362  -6.379  -0.021  0.00  0.00    -0.011 A 
ATOM     14  C   UNL     1      -1.935  -7.035  -1.110  0.00  0.00    +0.009 A 
ATOM     15  C   UNL     1      -2.023  -8.412  -1.114  0.00  0.00    +0.001 A 
ATOM     16  C   UNL     1      -1.554  -9.141  -0.036  0.00  0.00    +0.000 A 
ATOM     17  C   UNL     1      -0.990  -8.496   1.049  0.00  0.00    +0.001 A 
ATOM     18  C   UNL     1      -0.891  -7.119   1.062  0.00  0.00    +0.009 A 
ENDBRANCH   3  13
BRANCH   9  19
ATOM     19  O   UNL     1      -0.016   1.353   0.009  0.00  0.00    -0.483 OA
BRANCH  19  20
ATOM     20  C   UNL     1       1.248   2.019   0.001  0.00  0.00    +0.324 C 
BRANCH  20  21
ATOM     21  C   UNL     1       1.030   3.510   0.011  0.00  0.00    +0.251 C 
ATOM     22  O   UNL     1      -0.097   3.959   0.024  0.00  0.00    -0.272 OA
ATOM     23  N   UNL     1       2.088   4.346   0.005  0.00  0.00    -0.306 N 
ATOM     24  H   UNL     1       3.110   3.939  -0.006  0.00  0.00    +0.149 HD
BRANCH  23  25
ATOM     25  C   UNL     1       1.876   5.795   0.015  0.00  0.00    +0.100 C 
ATOM     26  C   UNL     1       1.664   6.290  -1.417  0.00  0.00    +0.033 C 
BRANCH  25  27
ATOM     27  C   UNL     1       3.083   6.475   0.608  0.00  0.00    -0.027 A 
ATOM     28  C   UNL     1       4.352   6.018   0.305  0.00  0.00    +0.006 A 
ATOM     29  C   UNL     1       5.460   6.644   0.844  0.00  0.00    +0.015 A 
ATOM     30  C   UNL     1       5.299   7.722   1.696  0.00  0.00    +0.018 A 
ATOM     31  C   UNL     1       4.029   8.176   2.003  0.00  0.00    +0.015 A 
ATOM     32  C   UNL     1       2.922   7.553   1.459  0.00  0.00    +0.006 A 
ATOM     33 BR   UNL     1       6.814   8.575   2.441  0.00  0.00    -0.050 Br
ENDBRANCH  25  27
ENDBRANCH  23  25
ENDBRANCH  20  21
ENDBRANCH  19  20
ENDBRANCH   9  19
TORSDOF 6
