REMARK  Name = ZINC01293851
REMARK  4 active torsions:
REMARK  status: ('A' for Active; 'I' for Inactive)
REMARK    1  A    between atoms: C_5  and  C_7
REMARK    2  A    between atoms: C_9  and  O_21
REMARK    3  A    between atoms: O_21  and  C_22
REMARK    4  A    between atoms: C_22  and  C_24
REMARK                            x       y       z     vdW  Elec       q    Type
REMARK                         _______ _______ _______ _____ _____    ______ ____
ROOT
ATOM      1  C   UNL     1       1.248  -2.163  -0.022  0.00  0.00    +0.080 C 
ATOM      2  N   UNL     1       2.394  -2.737  -0.131  0.00  0.00    -0.232 NA
ATOM      3  C   UNL     1       2.531  -4.193  -0.143  0.00  0.00    +0.381 C 
ATOM      4  C   UNL     1       2.072  -4.736   1.183  0.00  0.00    +0.281 C 
ATOM      5  O   UNL     1       2.869  -5.311   1.893  0.00  0.00    -0.269 OA
ATOM      6  N   UNL     1       0.814  -4.601   1.597  0.00  0.00    -0.280 N 
ATOM      7  C   UNL     1      -0.208  -4.018   0.865  0.00  0.00    +0.043 A 
ATOM      8  C   UNL     1      -0.038  -2.868   0.101  0.00  0.00    +0.023 A 
ATOM      9  C   UNL     1      -1.136  -2.345  -0.598  0.00  0.00    +0.027 A 
ATOM     10  C   UNL     1      -2.366  -2.958  -0.528  0.00  0.00    +0.019 A 
ATOM     11  C   UNL     1      -2.528  -4.102   0.237  0.00  0.00    +0.017 A 
ATOM     12  C   UNL     1      -1.463  -4.627   0.917  0.00  0.00    +0.025 A 
ATOM     13 BR   UNL     1      -3.836  -2.239  -1.476  0.00  0.00    -0.050 Br
ATOM     14  H   UNL     1       0.596  -4.939   2.479  0.00  0.00    +0.155 HD
ENDROOT
BRANCH   1  19
ATOM     15  C   UNL     1       1.576   1.411  -1.135  0.00  0.00    +0.001 A 
ATOM     16  C   UNL     1       1.171   2.087   0.003  0.00  0.00    +0.001 A 
ATOM     17  C   UNL     1       0.792   1.386   1.133  0.00  0.00    +0.020 A 
ATOM     18  C   UNL     1       0.814   0.004   1.132  0.00  0.00    +0.050 A 
ATOM     19  C   UNL     1       1.221  -0.682  -0.013  0.00  0.00    +0.019 A 
ATOM     20  C   UNL     1       1.603   0.032  -1.149  0.00  0.00    +0.011 A 
ATOM     21 CL   UNL     1       0.338  -0.875   2.551  0.00  0.00    -0.083 Cl
ENDBRANCH   1  19
BRANCH   3  22
ATOM     22  O   UNL     1       1.728  -4.740  -1.191  0.00  0.00    -0.426 OA
BRANCH  22  23
ATOM     23  C   UNL     1       2.185  -4.598  -2.450  0.00  0.00    +0.343 C 
ATOM     24  O   UNL     1       3.237  -4.026  -2.653  0.00  0.00    -0.245 OA
BRANCH  23  25
ATOM     25  C   UNL     1       1.408  -5.139  -3.584  0.00  0.00    +0.077 A 
ATOM     26  C   UNL     1       1.876  -5.004  -4.897  0.00  0.00    +0.018 A 
ATOM     27  C   UNL     1       1.110  -5.528  -5.923  0.00  0.00    +0.020 A 
ATOM     28  C   UNL     1      -0.082  -6.163  -5.622  0.00  0.00    +0.111 A 
ATOM     29  N   UNL     1      -0.498  -6.276  -4.375  0.00  0.00    -0.262 NA
ATOM     30  C   UNL     1       0.198  -5.799  -3.364  0.00  0.00    +0.125 A 
ENDBRANCH  23  25
ENDBRANCH  22  23
ENDBRANCH   3  22
TORSDOF 4
