REMARK  Name = ZINC40174606
REMARK  15 active torsions:
REMARK  status: ('A' for Active; 'I' for Inactive)
REMARK    1  A    between atoms: C_1  and  C_2
REMARK    2  A    between atoms: C_2  and  C_3
REMARK    3  A    between atoms: C_3  and  C_5
REMARK    4  A    between atoms: C_3  and  N_23
REMARK    5  A    between atoms: N_7  and  C_8
REMARK    6  A    between atoms: C_9  and  C_21
REMARK    7  A    between atoms: C_10  and  C_13
REMARK    8  A    between atoms: C_16  and  O_19
REMARK    9  A    between atoms: O_19  and  C_20
REMARK   10  A    between atoms: C_27  and  S_28
REMARK   11  A    between atoms: S_28  and  C_29
REMARK   12  A    between atoms: C_29  and  C_30
REMARK   13  A    between atoms: C_30  and  O_32
REMARK   14  A    between atoms: O_32  and  C_33
REMARK   15  A    between atoms: C_33  and  C_34
REMARK                            x       y       z     vdW  Elec       q    Type
REMARK                         _______ _______ _______ _____ _____    ______ ____
ROOT
ATOM      1  C   UNL     1       2.208  -0.296  -1.092  0.00  0.00    +0.241 C 
ATOM      2  O   UNL     1       3.021  -1.196  -1.123  0.00  0.00    -0.273 OA
ATOM      3  N   UNL     1       2.620   0.980  -0.963  0.00  0.00    -0.277 N 
ATOM      4  H   UNL     1       1.977   1.704  -1.010  0.00  0.00    +0.155 HD
ENDROOT
BRANCH   3   5
ATOM      5  C   UNL     1       3.965   1.258  -0.762  0.00  0.00    +0.090 A 
ATOM      6  C   UNL     1       4.582   2.493  -0.601  0.00  0.00    +0.088 A 
ATOM      7  C   UNL     1       6.017   2.488  -0.405  0.00  0.00    +0.008 A 
ATOM      8  C   UNL     1       6.655   1.290  -0.393  0.00  0.00    +0.056 A 
ATOM      9  S   UNL     1       5.332   0.121  -0.639  0.00  0.00    -0.080 S 
BRANCH   7  10
ATOM     10  C   UNL     1       6.767   3.754  -0.224  0.00  0.00    -0.016 A 
ATOM     11  C   UNL     1       6.580   4.810  -1.115  0.00  0.00    +0.012 A 
ATOM     12  C   UNL     1       7.279   5.987  -0.944  0.00  0.00    +0.046 A 
ATOM     13  C   UNL     1       8.168   6.120   0.114  0.00  0.00    +0.120 A 
ATOM     14  C   UNL     1       8.356   5.071   1.003  0.00  0.00    +0.046 A 
ATOM     15  C   UNL     1       7.656   3.893   0.841  0.00  0.00    +0.012 A 
BRANCH  13  16
ATOM     16  O   UNL     1       8.856   7.281   0.280  0.00  0.00    -0.495 OA
ATOM     17  C   UNL     1       9.754   7.350   1.389  0.00  0.00    +0.277 C 
ENDBRANCH  13  16
ENDBRANCH   7  10
BRANCH   6  18
ATOM     18  C   UNL     1       3.834   3.713  -0.627  0.00  0.00    +0.102 C 
ATOM     19  N   UNL     1       3.240   4.682  -0.648  0.00  0.00    -0.191 NA
ENDBRANCH   6  18
ENDBRANCH   3   5
BRANCH   1  20
ATOM     20  C   UNL     1       0.737  -0.607  -1.199  0.00  0.00    +0.178 C 
BRANCH  20  21
ATOM     21  N   UNL     1       0.545  -2.058  -1.236  0.00  0.00    -0.279 N 
ATOM     22  C   UNL     1       0.916  -2.942  -0.262  0.00  0.00    +0.216 A 
ATOM     23  N   UNL     1       0.578  -4.145  -0.657  0.00  0.00    -0.113 NA
ATOM     24  N   UNL     1      -0.025  -4.034  -1.917  0.00  0.00    -0.121 NA
ATOM     25  C   UNL     1      -0.041  -2.766  -2.248  0.00  0.00    +0.194 A 
ATOM     26  N   UNL     1       1.541  -2.622   0.936  0.00  0.00    -0.328 N 
ATOM     27  H   UNL     1       1.753  -1.698   1.141  0.00  0.00    +0.145 HD
ATOM     28  H   UNL     1       1.766  -3.323   1.568  0.00  0.00    +0.145 HD
BRANCH  25  29
ATOM     29  S   UNL     1      -0.698  -2.092  -3.737  0.00  0.00    -0.075 S 
BRANCH  29  30
ATOM     30  C   UNL     1      -1.318  -3.540  -4.638  0.00  0.00    +0.197 C 
BRANCH  30  31
ATOM     31  C   UNL     1      -1.915  -3.098  -5.949  0.00  0.00    +0.317 C 
ATOM     32  O   UNL     1      -1.921  -1.927  -6.246  0.00  0.00    -0.250 OA
BRANCH  31  33
ATOM     33  O   UNL     1      -2.439  -4.005  -6.788  0.00  0.00    -0.464 OA
BRANCH  33  34
ATOM     34  C   UNL     1      -2.987  -3.516  -8.013  0.00  0.00    +0.229 C 
ATOM     35  C   UNL     1      -3.533  -4.688  -8.832  0.00  0.00    +0.048 C 
ENDBRANCH  33  34
ENDBRANCH  31  33
ENDBRANCH  30  31
ENDBRANCH  29  30
ENDBRANCH  25  29
ENDBRANCH  20  21
BRANCH  20  37
ATOM     36  C   UNL     1      -1.503  -0.218  -0.163  0.00  0.00    +0.006 C 
ATOM     37  C   UNL     1       0.005  -0.026   0.013  0.00  0.00    +0.031 C 
ENDBRANCH  20  37
ENDBRANCH   1  20
TORSDOF 12
