REMARK  Name = ZINC55063789
REMARK  8 active torsions:
REMARK  status: ('A' for Active; 'I' for Inactive)
REMARK    1  A    between atoms: C_1  and  C_2
REMARK    2  A    between atoms: C_2  and  C_3
REMARK    3  A    between atoms: C_3  and  C_5
REMARK    4  A    between atoms: C_3  and  N_6
REMARK    5  A    between atoms: N_9  and  C_12
REMARK    6  A    between atoms: C_12  and  C_14
REMARK    7  A    between atoms: C_12  and  C_16
REMARK    8  A    between atoms: C_14  and  N_15
REMARK                            x       y       z     vdW  Elec       q    Type
REMARK                         _______ _______ _______ _____ _____    ______ ____
ROOT
ATOM      1  C   UNL     1      -1.312   1.120  -6.366  0.00  0.00    +0.070 C 
ENDROOT
BRANCH   1   5
ATOM      2  N   UNL     1       0.076  -0.121  -2.571  0.00  0.00    +0.383 N 
ATOM      3  C   UNL     1       0.536  -0.865  -3.752  0.00  0.00    -0.063 C 
ATOM      4  C   UNL     1      -0.417  -0.605  -4.921  0.00  0.00    +0.066 C 
ATOM      5  N   UNL     1      -0.451   0.836  -5.211  0.00  0.00    -0.301 NA
ATOM      6  C   UNL     1      -0.885   1.595  -4.030  0.00  0.00    +0.066 C 
ATOM      7  C   UNL     1       0.071   1.317  -2.868  0.00  0.00    -0.063 C 
ATOM      8  H   UNL     1      -0.857  -0.418  -2.330  0.00  0.00    -0.081 HD
BRANCH   2   9
ATOM      9  C   UNL     1       0.981  -0.385  -1.444  0.00  0.00    -0.072 C 
ATOM     10  C   UNL     1       2.418  -0.057  -1.856  0.00  0.00    -0.013 C 
BRANCH   9  12
ATOM     11  C   UNL     1      -0.511  -2.155  -0.504  0.00  0.00    +0.002 C 
ATOM     12  C   UNL     1       0.887  -1.860  -1.050  0.00  0.00    -0.019 C 
ENDBRANCH   9  12
ENDBRANCH   2   9
ENDBRANCH   1   5
BRANCH   1  13
ATOM     13  C   UNL     1      -0.689   0.544  -7.612  0.00  0.00    -0.018 A 
ATOM     14  C   UNL     1       0.660   0.244  -7.634  0.00  0.00    +0.006 A 
ATOM     15  C   UNL     1       1.232  -0.284  -8.776  0.00  0.00    +0.000 A 
ATOM     16  C   UNL     1       0.455  -0.512  -9.897  0.00  0.00    +0.001 A 
ATOM     17  C   UNL     1      -0.894  -0.212  -9.875  0.00  0.00    +0.015 A 
ATOM     18  C   UNL     1      -1.468   0.311  -8.730  0.00  0.00    +0.022 A 
ATOM     19 BR   UNL     1      -3.315   0.716  -8.698  0.00  0.00    -0.050 Br
ENDBRANCH   1  13
BRANCH   1  20
ATOM     20  C   UNL     1      -1.468   2.634  -6.526  0.00  0.00    -0.063 C 
BRANCH  20  21
ATOM     21  N   UNL     1      -0.141   3.252  -6.649  0.00  0.00    +0.379 N 
ATOM     22  H   UNL     1      -0.237   4.256  -6.660  0.00  0.00    -0.090 HD
ATOM     23  H   UNL     1       0.432   2.977  -5.865  0.00  0.00    -0.090 HD
ATOM     24  H   UNL     1       0.294   2.947  -7.506  0.00  0.00    -0.090 HD
ENDBRANCH  20  21
ENDBRANCH   1  20
TORSDOF 6
