REMARK  Name = ZINC24789026
REMARK  9 active torsions:
REMARK  status: ('A' for Active; 'I' for Inactive)
REMARK    1  A    between atoms: C_6  and  C_7
REMARK    2  A    between atoms: C_7  and  C_8
REMARK    3  A    between atoms: C_7  and  N_15
REMARK    4  A    between atoms: N_18  and  C_21
REMARK    5  A    between atoms: C_21  and  C_22
REMARK    6  A    between atoms: C_22  and  S_23
REMARK    7  A    between atoms: S_23  and  C_26
REMARK    8  A    between atoms: C_26  and  C_27
REMARK    9  A    between atoms: C_27  and  C_28
REMARK                            x       y       z     vdW  Elec       q    Type
REMARK                         _______ _______ _______ _____ _____    ______ ____
ROOT
ATOM      1  N   UNL     1      -0.701   1.560   1.216  0.00  0.00    +0.389 N 
ATOM      2  C   UNL     1      -0.013   1.086   0.008  0.00  0.00    -0.062 C 
ATOM      3  C   UNL     1      -0.754   1.593  -1.231  0.00  0.00    +0.066 C 
ATOM      4  N   UNL     1      -0.806   3.062  -1.200  0.00  0.00    -0.304 NA
ATOM      5  C   UNL     1      -1.495   3.536   0.008  0.00  0.00    +0.066 C 
ATOM      6  C   UNL     1      -0.754   3.029   1.247  0.00  0.00    -0.062 C 
ATOM      7  H   UNL     1      -1.735   1.184   1.189  0.00  0.00    -0.080 HD
ENDROOT
BRANCH   1   8
ATOM      8  C   UNL     1      -0.062   1.031   2.429  0.00  0.00    -0.007 C 
BRANCH   8  14
ATOM      9  C   UNL     1      -2.086   1.817   3.674  0.00  0.00    +0.005 A 
ATOM     10  C   UNL     1      -2.687   2.365   4.791  0.00  0.00    +0.038 A 
ATOM     11  C   UNL     1      -1.916   2.741   5.878  0.00  0.00    +0.123 A 
ATOM     12  C   UNL     1      -0.543   2.562   5.846  0.00  0.00    +0.038 A 
ATOM     13  C   UNL     1       0.055   2.008   4.730  0.00  0.00    +0.005 A 
ATOM     14  C   UNL     1      -0.716   1.633   3.645  0.00  0.00    -0.057 A 
ATOM     15  F   UNL     1      -2.502   3.281   6.968  0.00  0.00    -0.205 F 
ENDBRANCH   8  14
BRANCH   8  16
ATOM     16  C   UNL     1      -0.219  -0.468   2.465  0.00  0.00    -0.057 A 
ATOM     17  C   UNL     1      -1.412  -1.048   2.076  0.00  0.00    +0.005 A 
ATOM     18  C   UNL     1      -1.554  -2.422   2.104  0.00  0.00    +0.038 A 
ATOM     19  C   UNL     1      -0.505  -3.218   2.533  0.00  0.00    +0.123 A 
ATOM     20  C   UNL     1       0.687  -2.635   2.928  0.00  0.00    +0.038 A 
ATOM     21  C   UNL     1       0.830  -1.261   2.893  0.00  0.00    +0.005 A 
ATOM     22  F   UNL     1      -0.645  -4.561   2.566  0.00  0.00    -0.205 F 
ENDBRANCH   8  16
ENDBRANCH   1   8
BRANCH   4  23
ATOM     23  C   UNL     1      -1.445   3.591  -2.413  0.00  0.00    +0.107 C 
BRANCH  23  24
ATOM     24  C   UNL     1      -1.707   5.088  -2.239  0.00  0.00    +0.181 C 
BRANCH  24  25
ATOM     25  S   UNL     1      -2.495   5.742  -3.736  0.00  0.00    -0.029 S 
ATOM     26  O   UNL     1      -1.572   5.640  -4.811  0.00  0.00    -0.174 OA
ATOM     27  O   UNL     1      -3.777   5.144  -3.867  0.00  0.00    -0.174 OA
BRANCH  25  28
ATOM     28  C   UNL     1      -2.719   7.498  -3.337  0.00  0.00    +0.175 C 
BRANCH  28  29
ATOM     29  C   UNL     1      -3.384   8.208  -4.517  0.00  0.00    +0.118 C 
BRANCH  29  30
ATOM     30  C   UNL     1      -3.570   9.666  -4.186  0.00  0.00    +0.212 C 
ATOM     31  O   UNL     1      -3.207  10.095  -3.111  0.00  0.00    -0.276 OA
ATOM     32  N   UNL     1      -4.141  10.494  -5.084  0.00  0.00    -0.329 N 
ATOM     33  H   UNL     1      -4.277  11.558  -4.842  0.00  0.00    +0.145 HD
ATOM     34  H   UNL     1      -4.471  10.105  -6.058  0.00  0.00    +0.145 HD
ENDBRANCH  29  30
ENDBRANCH  28  29
ENDBRANCH  25  28
ENDBRANCH  24  25
ENDBRANCH  23  24
ENDBRANCH   4  23
TORSDOF 9
