REMARK  Name = ZINC03872976
REMARK  10 active torsions:
REMARK  status: ('A' for Active; 'I' for Inactive)
REMARK    1  A    between atoms: C_1  and  C_2
REMARK    2  A    between atoms: C_2  and  N_3
REMARK    3  A    between atoms: N_10  and  C_30
REMARK    4  A    between atoms: C_11  and  C_12
REMARK    5  A    between atoms: C_13  and  C_14
REMARK    6  A    between atoms: N_16  and  C_28
REMARK    7  A    between atoms: N_23  and  C_24
REMARK    8  A    between atoms: C_24  and  C_25
REMARK    9  A    between atoms: C_28  and  C_29
REMARK   10  A    between atoms: C_30  and  C_31
REMARK                            x       y       z     vdW  Elec       q    Type
REMARK                         _______ _______ _______ _____ _____    ______ ____
ROOT
ATOM      1  C   UNL     1       1.860   3.221  -0.861  0.00  0.00    +0.045 C 
ATOM      2  C   UNL     1       3.147   3.490  -1.228  0.00  0.00    +0.007 C 
ENDROOT
BRANCH   2   3
ATOM      3  C   UNL     1       3.681   4.765  -1.017  0.00  0.00    +0.040 C 
ATOM      4  C   UNL     1       5.018   5.003  -1.266  0.00  0.00    +0.098 C 
ATOM      5  N   UNL     1       5.975   4.043  -1.460  0.00  0.00    -0.287 N 
ATOM      6  C   UNL     1       7.192   4.681  -1.684  0.00  0.00    +0.058 A 
ATOM      7  C   UNL     1       8.473   4.208  -1.935  0.00  0.00    +0.046 A 
ATOM      8  C   UNL     1       9.513   5.099  -2.116  0.00  0.00    +0.061 A 
ATOM      9  C   UNL     1       9.284   6.464  -2.046  0.00  0.00    +0.061 A 
ATOM     10  C   UNL     1       8.012   6.944  -1.796  0.00  0.00    +0.046 A 
ATOM     11  C   UNL     1       6.961   6.056  -1.614  0.00  0.00    +0.058 A 
ATOM     12  N   UNL     1       5.605   6.237  -1.354  0.00  0.00    -0.287 N 
ATOM     13 CL   UNL     1      10.598   7.575  -2.274  0.00  0.00    -0.082 Cl
ATOM     14 CL   UNL     1      11.114   4.506  -2.431  0.00  0.00    -0.082 Cl
BRANCH  12  15
ATOM     15  C   UNL     1       4.924   7.525  -1.201  0.00  0.00    +0.109 C 
ATOM     16  C   UNL     1       4.956   7.947   0.270  0.00  0.00    +0.025 C 
ENDBRANCH  12  15
BRANCH   5  17
ATOM     17  C   UNL     1       5.757   2.594  -1.438  0.00  0.00    +0.109 C 
ATOM     18  C   UNL     1       5.518   2.093  -2.864  0.00  0.00    +0.025 C 
ENDBRANCH   5  17
ENDBRANCH   2   3
BRANCH   1  27
ATOM     19  N   UNL     1       0.546   1.269  -0.203  0.00  0.00    -0.326 N 
ATOM     20  C   UNL     1       0.217   0.061  -0.756  0.00  0.00    +0.069 A 
ATOM     21  C   UNL     1      -0.547  -1.018  -0.317  0.00  0.00    +0.049 A 
ATOM     22  C   UNL     1      -0.697  -2.126  -1.125  0.00  0.00    +0.061 A 
ATOM     23  C   UNL     1      -0.090  -2.174  -2.373  0.00  0.00    +0.061 A 
ATOM     24  C   UNL     1       0.670  -1.114  -2.822  0.00  0.00    +0.049 A 
ATOM     25  C   UNL     1       0.831   0.012  -2.019  0.00  0.00    +0.069 A 
ATOM     26  N   UNL     1       1.505   1.193  -2.176  0.00  0.00    -0.326 N 
ATOM     27  C   UNL     1       1.321   1.935  -1.073  0.00  0.00    +0.115 A 
ATOM     28 CL   UNL     1      -0.290  -3.578  -3.375  0.00  0.00    -0.082 Cl
ATOM     29 CL   UNL     1      -1.650  -3.469  -0.577  0.00  0.00    -0.082 Cl
BRANCH  19  31
ATOM     30  C   UNL     1       1.143   1.333   2.167  0.00  0.00    +0.027 C 
ATOM     31  C   UNL     1       0.120   1.756   1.111  0.00  0.00    +0.120 C 
ENDBRANCH  19  31
BRANCH  26  32
ATOM     32  C   UNL     1       2.293   1.581  -3.349  0.00  0.00    +0.120 C 
ATOM     33  C   UNL     1       1.366   2.174  -4.412  0.00  0.00    +0.027 C 
ENDBRANCH  26  32
ENDBRANCH   1  27
TORSDOF 6
