REMARK  Name = ZINC06135720
REMARK  11 active torsions:
REMARK  status: ('A' for Active; 'I' for Inactive)
REMARK    1  A    between atoms: C_1  and  N_2
REMARK    2  A    between atoms: N_2  and  C_3
REMARK    3  A    between atoms: N_2  and  C_4
REMARK    4  A    between atoms: C_4  and  C_5
REMARK    5  A    between atoms: C_5  and  C_6
REMARK    6  A    between atoms: C_6  and  N_7
REMARK    7  A    between atoms: N_7  and  C_8
REMARK    8  A    between atoms: N_7  and  C_25
REMARK    9  A    between atoms: C_8  and  C_9
REMARK   10  A    between atoms: C_25  and  N_27
REMARK   11  A    between atoms: N_27  and  C_28
REMARK                            x       y       z     vdW  Elec       q    Type
REMARK                         _______ _______ _______ _____ _____    ______ ____
ROOT
ATOM      1  N   UNL     1      -2.508  -3.952  -0.260  0.00  0.00    -0.308 N 
ENDROOT
BRANCH   1   2
ATOM      2  C   UNL     1      -2.553  -4.545  -1.470  0.00  0.00    +0.137 C 
ATOM      3  S   UNL     1      -2.209  -6.215  -1.618  0.00  0.00    -0.018 S 
BRANCH   2   4
ATOM      4  N   UNL     1      -2.869  -3.822  -2.563  0.00  0.00    -0.297 N 
ATOM      5  H   UNL     1      -3.143  -2.896  -2.470  0.00  0.00    +0.154 HD
BRANCH   4   6
ATOM      6  C   UNL     1      -2.804  -4.408  -3.832  0.00  0.00    +0.033 A 
ATOM      7  C   UNL     1      -3.800  -4.157  -4.766  0.00  0.00    +0.023 A 
ATOM      8  C   UNL     1      -3.732  -4.736  -6.018  0.00  0.00    +0.002 A 
ATOM      9  C   UNL     1      -2.674  -5.566  -6.341  0.00  0.00    +0.000 A 
ATOM     10  C   UNL     1      -1.681  -5.819  -5.412  0.00  0.00    +0.002 A 
ATOM     11  C   UNL     1      -1.740  -5.237  -4.161  0.00  0.00    +0.023 A 
ENDBRANCH   4   6
ENDBRANCH   2   4
ENDBRANCH   1   2
BRANCH   1  12
ATOM     12  C   UNL     1      -2.803  -2.522  -0.133  0.00  0.00    +0.105 C 
BRANCH  12  13
ATOM     13  C   UNL     1      -1.510  -1.719  -0.291  0.00  0.00    +0.000 C 
BRANCH  13  14
ATOM     14  C   UNL     1      -1.818  -0.226  -0.159  0.00  0.00    -0.078 C 
BRANCH  14  16
ATOM     15  C   UNL     1      -0.888   1.980  -0.302  0.00  0.00    -0.097 C 
ATOM     16  N   UNL     1      -0.577   0.545  -0.310  0.00  0.00    +0.376 N 
ATOM     17  C   UNL     1       0.331   0.235   0.803  0.00  0.00    -0.097 C 
ATOM     18  H   UNL     1      -0.134   0.301  -1.183  0.00  0.00    -0.083 HD
ENDBRANCH  14  16
ENDBRANCH  13  14
ENDBRANCH  12  13
ENDBRANCH   1  12
BRANCH   1  19
ATOM     19  C   UNL     1      -2.165  -4.737   0.928  0.00  0.00    +0.147 C 
BRANCH  19  20
ATOM     20  C   UNL     1      -3.421  -5.307   1.534  0.00  0.00    +0.035 A 
ATOM     21  C   UNL     1      -3.813  -6.568   1.218  0.00  0.00    +0.020 A 
ATOM     22  C   UNL     1      -5.036  -7.093   1.822  0.00  0.00    +0.003 A 
ATOM     23  C   UNL     1      -5.489  -8.386   1.532  0.00  0.00    +0.059 A 
ATOM     24  C   UNL     1      -6.646  -8.854   2.119  0.00  0.00    +0.163 A 
ATOM     25  C   UNL     1      -7.365  -8.044   3.001  0.00  0.00    +0.164 A 
ATOM     26  C   UNL     1      -6.926  -6.763   3.292  0.00  0.00    +0.075 A 
ATOM     27  C   UNL     1      -5.764  -6.276   2.710  0.00  0.00    +0.053 A 
ATOM     28  N   UNL     1      -5.311  -5.003   2.989  0.00  0.00    -0.322 N 
ATOM     29  H   UNL     1      -5.813  -4.441   3.600  0.00  0.00    +0.169 HD
ATOM     30  C   UNL     1      -4.183  -4.532   2.431  0.00  0.00    +0.254 A 
ATOM     31  O   UNL     1      -3.810  -3.404   2.705  0.00  0.00    -0.268 OA
ATOM     32  O   UNL     1      -8.503  -8.502   3.590  0.00  0.00    -0.485 OA
ATOM     33  C   UNL     1      -9.121  -9.647   2.995  0.00  0.00    +0.270 C 
ATOM     34  C   UNL     1      -8.032 -10.692   2.716  0.00  0.00    +0.270 C 
ATOM     35  O   UNL     1      -7.074 -10.113   1.823  0.00  0.00    -0.485 OA
ENDBRANCH  19  20
ENDBRANCH   1  19
TORSDOF 9
