REMARK  Name = ZINC17307243
REMARK  9 active torsions:
REMARK  status: ('A' for Active; 'I' for Inactive)
REMARK    1  A    between atoms: C_1  and  N_58
REMARK    2  A    between atoms: C_2  and  C_3
REMARK    3  A    between atoms: C_2  and  N_58
REMARK    4  A    between atoms: C_8  and  O_13
REMARK    5  A    between atoms: O_13  and  C_14
REMARK    6  A    between atoms: C_15  and  C_16
REMARK    7  A    between atoms: C_15  and  N_58
REMARK    8  A    between atoms: N_18  and  C_19
REMARK    9  A    between atoms: C_20  and  C_28
REMARK                            x       y       z     vdW  Elec       q    Type
REMARK                         _______ _______ _______ _____ _____    ______ ____
ROOT
ATOM      1  C   UNL     1       1.141   2.072   0.002  0.00  0.00    +0.201 C 
ATOM      2  O   UNL     1       2.200   1.480  -0.011  0.00  0.00    -0.278 OA
ATOM      3  N   UNL     1      -0.017   1.382   0.010  0.00  0.00    -0.281 N 
ATOM      4  H   UNL     1      -0.863   1.856   0.016  0.00  0.00    +0.155 HD
ENDROOT
BRANCH   3   5
ATOM      5  C   UNL     1       0.002  -0.004   0.002  0.00  0.00    +0.084 A 
ATOM      6  C   UNL     1      -1.073  -0.881   0.013  0.00  0.00    +0.068 A 
ATOM      7  C   UNL     1      -0.780  -2.304  -0.003  0.00  0.00    -0.023 A 
ATOM      8  C   UNL     1       0.533  -2.620  -0.016  0.00  0.00    -0.004 A 
ATOM      9  S   UNL     1       1.374  -1.062  -0.016  0.00  0.00    -0.077 S 
ATOM     10  C   UNL     1       1.132  -3.993  -0.028  0.00  0.00    +0.043 C 
ATOM     11  C   UNL     1       0.038  -5.000   0.356  0.00  0.00    +0.005 C 
ATOM     12  C   UNL     1      -1.218  -4.703  -0.467  0.00  0.00    +0.005 C 
ATOM     13  C   UNL     1      -1.848  -3.390   0.002  0.00  0.00    +0.037 C 
BRANCH   6  14
ATOM     14  C   UNL     1      -2.455  -0.390   0.036  0.00  0.00    +0.244 C 
ATOM     15  O   UNL     1      -3.044  -0.181  -1.008  0.00  0.00    -0.270 OA
ATOM     16  N   UNL     1      -3.072  -0.170   1.214  0.00  0.00    -0.325 N 
ATOM     17  H   UNL     1      -2.603  -0.337   2.046  0.00  0.00    +0.145 HD
ATOM     18  H   UNL     1      -3.986   0.155   1.229  0.00  0.00    +0.145 HD
ENDBRANCH   6  14
ENDBRANCH   3   5
BRANCH   1  19
ATOM     19  C   UNL     1       1.121   3.579   0.011  0.00  0.00    +0.019 C 
BRANCH  19  21
ATOM     20  C   UNL     1       3.174   3.754  -1.262  0.00  0.00    -0.095 C 
ATOM     21  N   UNL     1       2.513   4.075   0.021  0.00  0.00    +0.386 N 
ATOM     22  H   UNL     1       3.025   3.615   0.784  0.00  0.00    -0.081 HD
BRANCH  21  23
ATOM     23  C   UNL     1       2.528   5.535   0.246  0.00  0.00    -0.043 C 
BRANCH  23  24
ATOM     24  C   UNL     1       3.950   5.978   0.472  0.00  0.00    -0.063 A 
ATOM     25  C   UNL     1       4.469   5.986   1.765  0.00  0.00    +0.002 A 
ATOM     26  C   UNL     1       5.751   6.376   2.003  0.00  0.00    +0.009 A 
ATOM     27  C   UNL     1       6.563   6.787   0.932  0.00  0.00    -0.014 A 
ATOM     28  C   UNL     1       7.889   7.202   1.141  0.00  0.00    +0.054 A 
ATOM     29  C   UNL     1       8.649   7.595   0.076  0.00  0.00    +0.121 A 
ATOM     30  C   UNL     1       8.124   7.591  -1.220  0.00  0.00    +0.046 A 
ATOM     31  C   UNL     1       6.844   7.196  -1.455  0.00  0.00    +0.012 A 
ATOM     32  C   UNL     1       6.034   6.784  -0.383  0.00  0.00    -0.017 A 
ATOM     33  C   UNL     1       4.707   6.370  -0.589  0.00  0.00    +0.010 A 
BRANCH  29  34
ATOM     34  O   UNL     1       9.931   7.995   0.279  0.00  0.00    -0.495 OA
ATOM     35  C   UNL     1      10.676   8.395  -0.873  0.00  0.00    +0.277 C 
ENDBRANCH  29  34
ENDBRANCH  23  24
ENDBRANCH  21  23
ENDBRANCH  19  21
ENDBRANCH   1  19
TORSDOF 7
