REMARK  Name = ZINC63547090
REMARK  5 active torsions:
REMARK  status: ('A' for Active; 'I' for Inactive)
REMARK    1  A    between atoms: C_1  and  C_2
REMARK    2  A    between atoms: C_8  and  C_11
REMARK    3  A    between atoms: C_11  and  C_12
REMARK    4  A    between atoms: C_12  and  N_13
REMARK    5  A    between atoms: C_14  and  C_16
REMARK                            x       y       z     vdW  Elec       q    Type
REMARK                         _______ _______ _______ _____ _____    ______ ____
ROOT
ATOM      1  N   UNL     1      -1.371  -2.715   5.633  0.00  0.00    -0.314 N 
ATOM      2  C   UNL     1      -2.537  -2.599   6.299  0.00  0.00    +0.228 C 
ATOM      3  O   UNL     1      -3.588  -2.705   5.704  0.00  0.00    -0.275 OA
ATOM      4  H   UNL     1      -0.530  -2.630   6.109  0.00  0.00    +0.149 HD
ENDROOT
BRANCH   2   5
ATOM      5  C   UNL     1      -2.534  -2.338   7.783  0.00  0.00    +0.159 C 
ATOM      6  C   UNL     1      -2.434  -0.827   8.090  0.00  0.00    +0.133 C 
ATOM      7  C   UNL     1      -1.602  -0.559   9.320  0.00  0.00    -0.015 A 
ATOM      8  C   UNL     1      -1.622   0.599  10.102  0.00  0.00    +0.007 A 
ATOM      9  C   UNL     1      -0.800   0.732  11.198  0.00  0.00    +0.020 A 
ATOM     10  C   UNL     1       0.073  -0.281  11.557  0.00  0.00    +0.042 A 
ATOM     11  C   UNL     1       0.105  -1.440  10.802  0.00  0.00    +0.035 A 
ATOM     12  C   UNL     1      -0.729  -1.572   9.707  0.00  0.00    +0.015 A 
ATOM     13  S   UNL     1      -0.970  -2.915   8.563  0.00  0.00    -0.110 S 
ATOM     14 CL   UNL     1       1.113  -0.100  12.935  0.00  0.00    -0.084 Cl
ATOM     15 CL   UNL     1      -1.681   0.009   6.681  0.00  0.00    -0.115 Cl
ENDBRANCH   2   5
BRANCH   1  16
ATOM     16  C   UNL     1      -1.373  -2.968   4.191  0.00  0.00    +0.108 C 
BRANCH  16  17
ATOM     17  C   UNL     1       0.068  -3.056   3.686  0.00  0.00    +0.052 C 
BRANCH  17  25
ATOM     18  C   UNL     1       0.480   1.229   0.058  0.00  0.00    +0.044 C 
ATOM     19  C   UNL     1       0.353  -0.272   0.049  0.00  0.00    -0.050 A 
ATOM     20  C   UNL     1       0.311  -0.946  -1.180  0.00  0.00    +0.005 A 
ATOM     21  C   UNL     1       0.198  -2.288  -1.272  0.00  0.00    +0.026 A 
ATOM     22  C   UNL     1       0.115  -3.085  -0.096  0.00  0.00    +0.043 A 
ATOM     23  N   UNL     1       0.002  -4.380   0.075  0.00  0.00    -0.380 N 
ATOM     24  C   UNL     1      -0.040  -4.660   1.514  0.00  0.00    +0.144 C 
ATOM     25  C   UNL     1       0.066  -3.317   2.201  0.00  0.00    -0.040 C 
ATOM     26  C   UNL     1       0.157  -2.397   1.214  0.00  0.00    -0.001 A 
ATOM     27  C   UNL     1       0.287  -0.935   1.226  0.00  0.00    +0.013 A 
ATOM     28  H   UNL     1      -0.046  -5.042  -0.632  0.00  0.00    +0.160 HD
ENDBRANCH  17  25
ENDBRANCH  16  17
ENDBRANCH   1  16
TORSDOF 4
