REMARK  Name = ZINC25011361
REMARK  9 active torsions:
REMARK  status: ('A' for Active; 'I' for Inactive)
REMARK    1  A    between atoms: C_1  and  C_2
REMARK    2  A    between atoms: N_5  and  C_8
REMARK    3  A    between atoms: C_8  and  C_9
REMARK    4  A    between atoms: C_15  and  C_17
REMARK    5  A    between atoms: C_17  and  C_19
REMARK    6  A    between atoms: C_17  and  N_22
REMARK    7  A    between atoms: C_19  and  C_20
REMARK    8  A    between atoms: C_19  and  C_21
REMARK    9  A    between atoms: C_23  and  C_25
REMARK                            x       y       z     vdW  Elec       q    Type
REMARK                         _______ _______ _______ _____ _____    ______ ____
ROOT
ATOM      1  C   UNL     1       2.504   2.859   1.035  0.00  0.00    +0.034 A 
ATOM      2  C   UNL     1       3.082   3.240  -0.131  0.00  0.00    +0.070 A 
ATOM      3  S   UNL     1       4.500   4.139   0.480  0.00  0.00    -0.060 S 
ATOM      4  C   UNL     1       4.190   3.925   2.175  0.00  0.00    +0.165 A 
ATOM      5  N   UNL     1       3.076   3.220   2.167  0.00  0.00    -0.231 NA
ATOM      6  N   UNL     1       4.926   4.383   3.262  0.00  0.00    -0.263 N 
ATOM      7  C   UNL     1       6.048   5.102   3.061  0.00  0.00    +0.239 C 
ATOM      8  O   UNL     1       6.457   5.286   1.934  0.00  0.00    -0.273 OA
ATOM      9  H   UNL     1       4.592   4.159   4.286  0.00  0.00    +0.157 HD
ENDROOT
BRANCH   1  10
ATOM     10  C   UNL     1       1.234   2.048   1.037  0.00  0.00    -0.022 C 
BRANCH  10  15
ATOM     11  C   UNL     1       2.181  -3.433   2.353  0.00  0.00    +0.007 C 
ATOM     12  C   UNL     1       1.773  -1.960   2.425  0.00  0.00    -0.018 C 
ATOM     13  C   UNL     1       0.719  -1.669   1.353  0.00  0.00    -0.016 C 
ATOM     14  C   UNL     1       0.359  -0.182   1.389  0.00  0.00    -0.078 C 
ATOM     15  N   UNL     1       1.565   0.621   1.147  0.00  0.00    +0.383 N 
ATOM     16  C   UNL     1       2.573   0.393   2.189  0.00  0.00    -0.078 C 
ATOM     17  C   UNL     1       2.999  -1.077   2.177  0.00  0.00    -0.016 C 
ATOM     18  H   UNL     1       1.995   0.297   0.187  0.00  0.00    -0.081 HD
ENDBRANCH  10  15
ENDBRANCH   1  10
BRANCH   7  19
ATOM     19  C   UNL     1       6.795   5.677   4.237  0.00  0.00    +0.162 C 
BRANCH  19  20
ATOM     20  N   UNL     1       8.159   6.020   3.829  0.00  0.00    -0.300 N 
ATOM     21  C   UNL     1       9.146   6.066   4.746  0.00  0.00    +0.246 C 
ATOM     22  O   UNL     1       8.903   5.822   5.912  0.00  0.00    -0.270 OA
ATOM     23  H   UNL     1       8.379   6.240   2.773  0.00  0.00    +0.150 HD
BRANCH  21  24
ATOM     24  C   UNL     1      10.522   6.411   4.334  0.00  0.00    +0.055 A 
ATOM     25  C   UNL     1      10.803   6.691   2.995  0.00  0.00    +0.016 A 
ATOM     26  C   UNL     1      12.089   7.013   2.617  0.00  0.00    +0.021 A 
ATOM     27  C   UNL     1      13.102   7.059   3.561  0.00  0.00    +0.042 A 
ATOM     28  C   UNL     1      12.831   6.783   4.890  0.00  0.00    +0.040 A 
ATOM     29  C   UNL     1      11.546   6.465   5.283  0.00  0.00    +0.054 A 
ATOM     30 CL   UNL     1      11.204   6.126   6.951  0.00  0.00    -0.083 Cl
ATOM     31 CL   UNL     1      14.719   7.466   3.076  0.00  0.00    -0.083 Cl
ENDBRANCH  21  24
ENDBRANCH  19  20
BRANCH  19  32
ATOM     32  C   UNL     1       6.079   6.936   4.730  0.00  0.00    +0.012 C 
ATOM     33  C   UNL     1       6.780   7.464   5.983  0.00  0.00    +0.009 C 
ATOM     34  C   UNL     1       6.115   8.005   3.636  0.00  0.00    +0.009 C 
ENDBRANCH  19  32
ENDBRANCH   7  19
TORSDOF 6
