REMARK  Name = ZINC43262306
REMARK  12 active torsions:
REMARK  status: ('A' for Active; 'I' for Inactive)
REMARK    1  A    between atoms: C_1  and  C_2
REMARK    2  A    between atoms: C_2  and  N_3
REMARK    3  A    between atoms: N_3  and  C_4
REMARK    4  A    between atoms: N_3  and  C_11
REMARK    5  A    between atoms: C_4  and  C_5
REMARK    6  A    between atoms: N_7  and  C_8
REMARK    7  A    between atoms: C_8  and  C_9
REMARK    8  A    between atoms: C_8  and  C_10
REMARK    9  A    between atoms: C_11  and  C_13
REMARK   10  A    between atoms: C_11  and  C_19
REMARK   11  A    between atoms: C_19  and  C_21
REMARK   12  A    between atoms: C_19  and  N_22
REMARK                            x       y       z     vdW  Elec       q    Type
REMARK                         _______ _______ _______ _____ _____    ______ ____
ROOT
ATOM      1  C   UNL     1       2.046  -0.206  -1.439  0.00  0.00    +0.079 C 
ENDROOT
BRANCH   1   2
ATOM      2  C   UNL     1       2.581  -0.908  -0.218  0.00  0.00    +0.006 A 
ATOM      3  C   UNL     1       3.556  -0.511   0.636  0.00  0.00    +0.014 A 
ATOM      4  C   UNL     1       3.886  -1.327   1.703  0.00  0.00    +0.023 A 
ATOM      5  C   UNL     1       3.224  -2.500   1.862  0.00  0.00    +0.055 A 
ATOM      6  S   UNL     1       2.090  -2.474   0.484  0.00  0.00    -0.085 S 
ATOM      7 BR   UNL     1       3.440  -3.817   3.201  0.00  0.00    -0.043 Br
ENDBRANCH   1   2
BRANCH   1   8
ATOM      8  C   UNL     1       2.427  -0.999  -2.691  0.00  0.00    -0.056 C 
ATOM      9  C   UNL     1       1.775  -0.358  -3.918  0.00  0.00    -0.012 C 
BRANCH   8  10
ATOM     10  N   UNL     1       3.887  -0.989  -2.852  0.00  0.00    +0.381 N 
ATOM     11  H   UNL     1       4.317  -1.411  -2.042  0.00  0.00    -0.090 HD
ATOM     12  H   UNL     1       4.138  -1.512  -3.677  0.00  0.00    -0.090 HD
ATOM     13  H   UNL     1       4.209  -0.037  -2.946  0.00  0.00    -0.090 HD
ENDBRANCH   8  10
ENDBRANCH   1   8
BRANCH   1  14
ATOM     14  N   UNL     1       0.584  -0.108  -1.347  0.00  0.00    -0.288 NA
BRANCH  14  16
ATOM     15  C   UNL     1       0.510   2.220  -0.592  0.00  0.00    +0.020 C 
ATOM     16  C   UNL     1       0.183   0.767  -0.238  0.00  0.00    +0.082 C 
ENDBRANCH  14  16
BRANCH  14  17
ATOM     17  C   UNL     1      -0.025  -1.439  -1.214  0.00  0.00    +0.181 C 
BRANCH  17  18
ATOM     18  C   UNL     1      -1.474  -1.372  -1.622  0.00  0.00    +0.227 C 
ATOM     19  O   UNL     1      -1.953  -0.319  -1.987  0.00  0.00    -0.274 OA
ATOM     20  N   UNL     1      -2.238  -2.481  -1.580  0.00  0.00    -0.312 N 
ATOM     21  H   UNL     1      -1.855  -3.323  -1.287  0.00  0.00    +0.149 HD
BRANCH  20  22
ATOM     22  C   UNL     1      -3.647  -2.416  -1.976  0.00  0.00    +0.067 C 
ATOM     23  C   UNL     1      -4.112  -3.798  -2.438  0.00  0.00    +0.027 C 
ATOM     24  C   UNL     1      -4.492  -1.966  -0.783  0.00  0.00    +0.027 C 
ENDBRANCH  20  22
ENDBRANCH  17  18
ENDBRANCH  14  17
ENDBRANCH   1  14
TORSDOF 8
