REMARK  Name = ZINC21258939
REMARK  2 active torsions:
REMARK  status: ('A' for Active; 'I' for Inactive)
REMARK    1  A    between atoms: C_5  and  C_7
REMARK    2  A    between atoms: C_12  and  C_22
REMARK                            x       y       z     vdW  Elec       q    Type
REMARK                         _______ _______ _______ _____ _____    ______ ____
ROOT
ATOM      1  C   UNL     1       7.279  -2.579  -3.656  0.00  0.00    +0.033 C 
ATOM      2  C   UNL     1       7.523  -1.073  -3.722  0.00  0.00    +0.059 C 
ATOM      3  C   UNL     1       7.381  -0.465  -2.335  0.00  0.00    +0.017 C 
ATOM      4  C   UNL     1       6.505  -0.977  -1.455  0.00  0.00    +0.037 C 
ATOM      5  C   UNL     1       6.236  -0.453  -0.065  0.00  0.00    +0.143 C 
ATOM      6  N   UNL     1       7.194   0.528   0.401  0.00  0.00    -0.331 N 
ATOM      7  C   UNL     1       7.318   1.767  -0.225  0.00  0.00    +0.049 A 
ATOM      8  C   UNL     1       7.000   2.945   0.432  0.00  0.00    +0.025 A 
ATOM      9  C   UNL     1       7.096   4.149  -0.244  0.00  0.00    +0.002 A 
ATOM     10  C   UNL     1       7.504   4.178  -1.565  0.00  0.00    +0.002 A 
ATOM     11  C   UNL     1       7.839   3.005  -2.219  0.00  0.00    +0.025 A 
ATOM     12  C   UNL     1       7.762   1.803  -1.538  0.00  0.00    +0.052 A 
ATOM     13  N   UNL     1       8.184   0.603  -2.100  0.00  0.00    -0.316 N 
ATOM     14  C   UNL     1       5.732  -2.112  -1.798  0.00  0.00    +0.163 C 
ATOM     15  O   UNL     1       4.938  -2.546  -0.986  0.00  0.00    -0.292 OA
ATOM     16  C   UNL     1       5.859  -2.800  -3.124  0.00  0.00    +0.088 C 
ATOM     17  H   UNL     1       7.839   0.300   1.262  0.00  0.00    +0.147 HD
ATOM     18  H   UNL     1       9.252   0.556  -2.360  0.00  0.00    +0.152 HD
ENDROOT
BRANCH   5  19
ATOM     19  C   UNL     1       4.865   0.173  -0.047  0.00  0.00    +0.059 A 
ATOM     20  C   UNL     1       4.296   0.590  -1.193  0.00  0.00    +0.205 A 
ATOM     21  O   UNL     1       3.083   1.151  -1.238  0.00  0.00    -0.462 OA
ATOM     22  C   UNL     1       2.334   1.344  -0.133  0.00  0.00    +0.138 A 
ATOM     23  C   UNL     1       1.076   1.930  -0.215  0.00  0.00    +0.048 A 
ATOM     24  C   UNL     1       0.329   2.115   0.928  0.00  0.00    +0.023 A 
ATOM     25  C   UNL     1       0.818   1.723   2.167  0.00  0.00    +0.042 A 
ATOM     26  C   UNL     1       2.063   1.140   2.269  0.00  0.00    +0.035 A 
ATOM     27  C   UNL     1       2.828   0.947   1.120  0.00  0.00    +0.066 A 
ATOM     28  C   UNL     1       4.166   0.327   1.180  0.00  0.00    +0.198 A 
ATOM     29  O   UNL     1       4.650  -0.039   2.237  0.00  0.00    -0.287 OA
ATOM     30 CL   UNL     1      -0.142   1.967   3.592  0.00  0.00    -0.084 Cl
ENDBRANCH   5  19
BRANCH   1  35
ATOM     31  C   UNL     1       6.694  -3.303  -7.315  0.00  0.00    +0.000 A 
ATOM     32  C   UNL     1       7.646  -4.275  -7.561  0.00  0.00    +0.001 A 
ATOM     33  C   UNL     1       8.479  -4.700  -6.543  0.00  0.00    +0.020 A 
ATOM     34  C   UNL     1       8.364  -4.147  -5.279  0.00  0.00    +0.044 A 
ATOM     35  C   UNL     1       7.409  -3.178  -5.033  0.00  0.00    -0.025 A 
ATOM     36  C   UNL     1       6.576  -2.754  -6.052  0.00  0.00    +0.005 A 
ATOM     37 CL   UNL     1       9.415  -4.674  -4.002  0.00  0.00    -0.083 Cl
ENDBRANCH   1  35
TORSDOF 2
