REMARK  Name = ZINC36552208
REMARK  11 active torsions:
REMARK  status: ('A' for Active; 'I' for Inactive)
REMARK    1  A    between atoms: C_1  and  C_2
REMARK    2  A    between atoms: C_5  and  S_8
REMARK    3  A    between atoms: S_8  and  C_11
REMARK    4  A    between atoms: C_11  and  N_12
REMARK    5  A    between atoms: C_13  and  C_15
REMARK    6  A    between atoms: C_15  and  C_17
REMARK    7  A    between atoms: C_15  and  N_24
REMARK    8  A    between atoms: C_22  and  C_23
REMARK    9  A    between atoms: N_24  and  C_25
REMARK   10  A    between atoms: C_32  and  C_34
REMARK   11  A    between atoms: C_34  and  O_35
REMARK                            x       y       z     vdW  Elec       q    Type
REMARK                         _______ _______ _______ _____ _____    ______ ____
ROOT
ATOM      1  C   UNL     1       3.228  -5.282   3.400  0.00  0.00    +0.197 C 
ENDROOT
BRANCH   1   2
ATOM      2  C   UNL     1       4.441  -4.790   2.654  0.00  0.00    -0.015 A 
ATOM      3  C   UNL     1       4.559  -5.023   1.296  0.00  0.00    +0.006 A 
ATOM      4  C   UNL     1       5.672  -4.571   0.612  0.00  0.00    +0.000 A 
ATOM      5  C   UNL     1       6.666  -3.886   1.285  0.00  0.00    +0.000 A 
ATOM      6  C   UNL     1       6.548  -3.652   2.642  0.00  0.00    +0.004 A 
ATOM      7  C   UNL     1       5.433  -4.100   3.326  0.00  0.00    -0.045 A 
ATOM      8  C   UNL     1       5.301  -3.841   4.805  0.00  0.00    +0.044 C 
ENDBRANCH   1   2
BRANCH   1  10
ATOM      9  N   UNL     1       1.722  -4.844   1.487  0.00  0.00    -0.294 N 
ATOM     10  C   UNL     1       2.172  -5.712   2.414  0.00  0.00    +0.240 C 
ATOM     11  O   UNL     1       1.727  -6.840   2.456  0.00  0.00    -0.273 OA
ATOM     12  H   UNL     1       2.023  -3.922   1.500  0.00  0.00    +0.150 HD
BRANCH   9  13
ATOM     13  C   UNL     1       0.778  -5.292   0.461  0.00  0.00    +0.278 C 
BRANCH  13  14
ATOM     14  S   UNL     1      -0.916  -4.928   0.996  0.00  0.00    +0.013 S 
ATOM     15  O   UNL     1      -1.106  -5.350   2.340  0.00  0.00    -0.168 OA
ATOM     16  O   UNL     1      -1.840  -5.300  -0.017  0.00  0.00    -0.168 OA
BRANCH  14  21
ATOM     17  C   UNL     1      -1.215   1.094   1.218  0.00  0.00    +0.044 C 
ATOM     18  C   UNL     1      -1.140  -0.410   1.162  0.00  0.00    -0.050 A 
ATOM     19  C   UNL     1      -1.461  -1.075  -0.006  0.00  0.00    +0.005 A 
ATOM     20  C   UNL     1      -1.393  -2.455  -0.057  0.00  0.00    +0.027 A 
ATOM     21  C   UNL     1      -1.002  -3.169   1.061  0.00  0.00    +0.090 A 
ATOM     22  C   UNL     1      -0.681  -2.504   2.229  0.00  0.00    +0.027 A 
ATOM     23  C   UNL     1      -0.745  -1.124   2.278  0.00  0.00    +0.005 A 
ENDBRANCH  14  21
ENDBRANCH  13  14
ENDBRANCH   9  13
ENDBRANCH   1  10
BRANCH   1  24
ATOM     24  N   UNL     1       3.602  -6.421   4.243  0.00  0.00    -0.253 N 
ATOM     25  C   UNL     1       4.146  -7.521   3.686  0.00  0.00    +0.246 C 
ATOM     26  O   UNL     1       4.354  -8.505   4.365  0.00  0.00    -0.273 OA
BRANCH  24  27
ATOM     27  C   UNL     1       3.394  -6.366   5.625  0.00  0.00    +0.039 A 
ATOM     28  C   UNL     1       2.687  -5.308   6.181  0.00  0.00    +0.023 A 
ATOM     29  C   UNL     1       2.483  -5.256   7.546  0.00  0.00    +0.003 A 
ATOM     30  C   UNL     1       2.982  -6.256   8.360  0.00  0.00    +0.020 A 
ATOM     31  C   UNL     1       3.688  -7.312   7.810  0.00  0.00    +0.043 A 
ATOM     32  C   UNL     1       3.889  -7.373   6.444  0.00  0.00    +0.043 A 
ATOM     33 CL   UNL     1       4.314  -8.565   8.835  0.00  0.00    -0.083 Cl
ENDBRANCH  24  27
BRANCH  25  34
ATOM     34  C   UNL     1       4.495  -7.530   2.220  0.00  0.00    +0.252 C 
BRANCH  34  35
ATOM     35  O   UNL     1       4.907  -8.843   1.837  0.00  0.00    -0.386 OA
ATOM     36  H   UNL     1       5.148  -8.923   0.903  0.00  0.00    +0.210 HD
ENDBRANCH  34  35
ENDBRANCH  25  34
ENDBRANCH   1  24
TORSDOF 9
