REMARK  Name = ZINC39596660
REMARK  9 active torsions:
REMARK  status: ('A' for Active; 'I' for Inactive)
REMARK    1  A    between atoms: C_1  and  C_2
REMARK    2  A    between atoms: C_2  and  C_3
REMARK    3  A    between atoms: C_3  and  C_4
REMARK    4  A    between atoms: C_4  and  C_6
REMARK    5  A    between atoms: C_4  and  C_7
REMARK    6  A    between atoms: C_11  and  C_20
REMARK    7  A    between atoms: N_22  and  C_23
REMARK    8  A    between atoms: C_23  and  C_25
REMARK    9  A    between atoms: C_23  and  C_26
REMARK                            x       y       z     vdW  Elec       q    Type
REMARK                         _______ _______ _______ _____ _____    ______ ____
ROOT
ATOM      1  C   UNL     1       1.432  -2.532  -2.692  0.00  0.00    +0.218 C 
ATOM      2  O   UNL     1       1.761  -1.758  -3.567  0.00  0.00    -0.275 OA
ATOM      3  N   UNL     1       1.505  -3.861  -2.905  0.00  0.00    -0.300 N 
ATOM      4  C   UNL     1       1.145  -4.952  -1.970  0.00  0.00    +0.121 C 
ATOM      5  C   UNL     1       0.462  -6.017  -2.857  0.00  0.00    +0.100 C 
ATOM      6  C   UNL     1       1.005  -5.756  -4.272  0.00  0.00    -0.004 C 
ATOM      7  C   UNL     1       1.958  -4.561  -4.131  0.00  0.00    +0.115 C 
ATOM      8  C   UNL     1      -0.137  -5.404  -5.220  0.00  0.00    -0.010 C 
ATOM      9  C   UNL     1       0.421  -5.205  -6.632  0.00  0.00    -0.082 C 
ATOM     10  N   UNL     1       1.088  -6.436  -7.074  0.00  0.00    +0.379 N 
ATOM     11  C   UNL     1       2.242  -6.717  -6.211  0.00  0.00    -0.082 C 
ATOM     12  C   UNL     1       1.761  -6.979  -4.781  0.00  0.00    -0.010 C 
ATOM     13  H   UNL     1       0.438  -7.205  -7.025  0.00  0.00    -0.086 HD
ATOM     14  H   UNL     1       1.401  -6.323  -8.026  0.00  0.00    -0.086 HD
ENDROOT
BRANCH   5  15
ATOM     15  C   UNL     1       0.836  -7.402  -2.395  0.00  0.00    +0.219 C 
ATOM     16  O   UNL     1       1.917  -7.599  -1.883  0.00  0.00    -0.275 OA
ATOM     17  N   UNL     1      -0.032  -8.421  -2.552  0.00  0.00    -0.308 N 
ATOM     18  H   UNL     1      -0.896  -8.264  -2.962  0.00  0.00    +0.149 HD
BRANCH  17  19
ATOM     19  C   UNL     1       0.332  -9.768  -2.104  0.00  0.00    +0.100 C 
ATOM     20  C   UNL     1       0.008  -9.915  -0.616  0.00  0.00    +0.033 C 
BRANCH  19  21
ATOM     21  C   UNL     1      -0.450 -10.788  -2.891  0.00  0.00    -0.027 A 
ATOM     22  C   UNL     1      -1.778 -10.555  -3.198  0.00  0.00    +0.005 A 
ATOM     23  C   UNL     1      -2.495 -11.490  -3.920  0.00  0.00    +0.000 A 
ATOM     24  C   UNL     1      -1.884 -12.659  -4.336  0.00  0.00    +0.000 A 
ATOM     25  C   UNL     1      -0.556 -12.891  -4.030  0.00  0.00    +0.000 A 
ATOM     26  C   UNL     1       0.162 -11.954  -3.311  0.00  0.00    +0.005 A 
ENDBRANCH  19  21
ENDBRANCH  17  19
ENDBRANCH   5  15
BRANCH   1  27
ATOM     27  C   UNL     1       0.941  -2.007  -1.368  0.00  0.00    +0.072 C 
ATOM     28  C   UNL     1       1.855  -2.511  -0.249  0.00  0.00    +0.017 C 
BRANCH  27  29
ATOM     29  C   UNL     1       0.956  -0.477  -1.388  0.00  0.00    +0.012 C 
BRANCH  29  31
ATOM     30  C   UNL     1       0.356   1.586  -0.113  0.00  0.00    +0.004 C 
ATOM     31  C   UNL     1       0.341   0.056  -0.092  0.00  0.00    -0.003 C 
ENDBRANCH  29  31
ENDBRANCH  27  29
ENDBRANCH   1  27
TORSDOF 6
