REMARK  Name = ZINC21085318
REMARK  6 active torsions:
REMARK  status: ('A' for Active; 'I' for Inactive)
REMARK    1  A    between atoms: C_5  and  C_7
REMARK    2  A    between atoms: C_7  and  C_8
REMARK    3  A    between atoms: C_11  and  N_14
REMARK    4  A    between atoms: N_14  and  S_15
REMARK    5  A    between atoms: S_15  and  C_18
REMARK    6  A    between atoms: C_27  and  N_31
REMARK                            x       y       z     vdW  Elec       q    Type
REMARK                         _______ _______ _______ _____ _____    ______ ____
ROOT
ATOM      1  S   UNL     1      -6.443   2.996  -5.232  0.00  0.00    +0.072 S 
ATOM      2  O   UNL     1      -7.150   2.302  -6.251  0.00  0.00    -0.150 OA
ATOM      3  O   UNL     1      -7.087   3.884  -4.329  0.00  0.00    -0.150 OA
ENDROOT
BRANCH   1   4
ATOM      4  C   UNL     1      -5.182   3.925  -6.039  0.00  0.00    +0.109 A 
ATOM      5  C   UNL     1      -4.585   4.993  -5.386  0.00  0.00    +0.032 A 
ATOM      6  C   UNL     1      -3.592   5.725  -6.002  0.00  0.00    +0.049 A 
ATOM      7  C   UNL     1      -3.189   5.405  -7.293  0.00  0.00    +0.136 A 
ATOM      8  C   UNL     1      -3.798   4.328  -7.952  0.00  0.00    +0.030 A 
ATOM      9  C   UNL     1      -4.794   3.592  -7.319  0.00  0.00    +0.041 A 
ATOM     10  C   UNL     1      -3.155   4.256  -9.278  0.00  0.00    +0.028 A 
ATOM     11  C   UNL     1      -3.307   3.425 -10.383  0.00  0.00    +0.014 A 
ATOM     12  C   UNL     1      -2.528   3.626 -11.503  0.00  0.00    +0.033 A 
ATOM     13  C   UNL     1      -1.598   4.654 -11.529  0.00  0.00    +0.130 A 
ATOM     14  C   UNL     1      -1.439   5.483 -10.439  0.00  0.00    +0.079 A 
ATOM     15  C   UNL     1      -2.215   5.295  -9.301  0.00  0.00    +0.138 A 
ATOM     16  O   UNL     1      -2.265   5.946  -8.118  0.00  0.00    -0.455 OA
BRANCH  13  17
ATOM     17  N   UNL     1      -0.768   4.862 -12.736  0.00  0.00    +0.057 N 
ATOM     18  O   UNL     1      -0.904   4.132 -13.702  0.00  0.00    -0.126 OA
ATOM     19  O   UNL     1       0.051   5.763 -12.765  0.00  0.00    -0.126 OA
ENDBRANCH  13  17
ENDBRANCH   1   4
BRANCH   1  20
ATOM     20  N   UNL     1      -5.691   1.846  -4.310  0.00  0.00    -0.216 N 
ATOM     21  H   UNL     1      -5.822   1.844  -3.217  0.00  0.00    +0.174 HD
BRANCH  20  25
ATOM     22  C   UNL     1      -3.301  -1.042  -6.124  0.00  0.00    -0.041 A 
ATOM     23  C   UNL     1      -4.544  -0.743  -6.653  0.00  0.00    +0.006 A 
ATOM     24  C   UNL     1      -5.341   0.210  -6.050  0.00  0.00    +0.025 A 
ATOM     25  C   UNL     1      -4.889   0.877  -4.918  0.00  0.00    +0.048 A 
ATOM     26  C   UNL     1      -3.638   0.579  -4.393  0.00  0.00    +0.025 A 
ATOM     27  C   UNL     1      -2.848  -0.380  -4.998  0.00  0.00    +0.006 A 
BRANCH  22  28
ATOM     28  C   UNL     1      -2.437  -2.086  -6.781  0.00  0.00    +0.090 C 
BRANCH  28  33
ATOM     29  C   UNL     1      -3.365  -5.723  -6.433  0.00  0.00    +0.003 A 
ATOM     30  C   UNL     1      -3.258  -5.857  -5.057  0.00  0.00    +0.020 A 
ATOM     31  C   UNL     1      -2.889  -4.761  -4.300  0.00  0.00    +0.111 A 
ATOM     32  N   UNL     1      -2.645  -3.598  -4.872  0.00  0.00    -0.260 NA
ATOM     33  C   UNL     1      -2.732  -3.435  -6.177  0.00  0.00    +0.046 A 
ATOM     34  C   UNL     1      -3.096  -4.486  -6.998  0.00  0.00    +0.023 A 
ENDBRANCH  28  33
ENDBRANCH  22  28
ENDBRANCH  20  25
ENDBRANCH   1  20
TORSDOF 6
