REMARK  Name = ZINC32077955
REMARK  5 active torsions:
REMARK  status: ('A' for Active; 'I' for Inactive)
REMARK    1  A    between atoms: C_12  and  C_16
REMARK    2  A    between atoms: C_19  and  C_21
REMARK    3  A    between atoms: C_21  and  C_32
REMARK    4  A    between atoms: C_22  and  N_23
REMARK    5  A    between atoms: N_23  and  C_24
REMARK                            x       y       z     vdW  Elec       q    Type
REMARK                         _______ _______ _______ _____ _____    ______ ____
ROOT
ATOM      1  C   UNL     1       7.423  -0.026  -0.319  0.00  0.00    +0.086 A 
ATOM      2  C   UNL     1       8.553  -0.764  -0.556  0.00  0.00    +0.075 A 
ATOM      3  S   UNL     1       9.807   0.507  -0.456  0.00  0.00    -0.074 S 
ATOM      4  C   UNL     1       8.710   1.877  -0.114  0.00  0.00    +0.120 A 
ATOM      5  N   UNL     1       7.530   1.275  -0.109  0.00  0.00    -0.238 NA
ENDROOT
BRANCH   1  17
ATOM      6  C   UNL     1      -0.016   1.358   0.009  0.00  0.00    +0.001 A 
ATOM      7  C   UNL     1       1.167   2.090   0.002  0.00  0.00    +0.001 A 
ATOM      8  C   UNL     1       2.378   1.462  -0.014  0.00  0.00    +0.009 A 
ATOM      9  C   UNL     1       2.433   0.065  -0.022  0.00  0.00    -0.007 A 
ATOM     10  C   UNL     1       1.231  -0.683  -0.012  0.00  0.00    -0.017 A 
ATOM     11  C   UNL     1       0.002  -0.004   0.002  0.00  0.00    +0.008 A 
ATOM     12  C   UNL     1       1.289  -2.090  -0.017  0.00  0.00    +0.012 A 
ATOM     13  C   UNL     1       2.479  -2.742  -0.019  0.00  0.00    +0.047 A 
ATOM     14  C   UNL     1       3.695  -2.054  -0.028  0.00  0.00    +0.140 A 
ATOM     15  C   UNL     1       3.708  -0.653  -0.043  0.00  0.00    +0.026 A 
ATOM     16  C   UNL     1       4.935   0.046  -0.073  0.00  0.00    +0.029 A 
ATOM     17  C   UNL     1       6.093  -0.679  -0.305  0.00  0.00    +0.086 A 
ATOM     18  C   UNL     1       5.946  -2.125  -0.537  0.00  0.00    +0.347 A 
ATOM     19  O   UNL     1       6.770  -2.747  -1.183  0.00  0.00    -0.244 OA
ATOM     20  O   UNL     1       4.864  -2.739  -0.006  0.00  0.00    -0.422 OA
ENDBRANCH   1  17
BRANCH   4  21
ATOM     21  C   UNL     1       9.033   3.300   0.102  0.00  0.00    +0.098 C 
ATOM     22  C   UNL     1      10.329   3.720   0.050  0.00  0.00    +0.093 C 
BRANCH  22  23
ATOM     23  N   UNL     1      10.628   5.038   0.249  0.00  0.00    -0.318 N 
ATOM     24  H   UNL     1       9.919   5.675   0.428  0.00  0.00    +0.152 HD
BRANCH  23  25
ATOM     25  C   UNL     1      11.957   5.469   0.196  0.00  0.00    +0.051 A 
ATOM     26  C   UNL     1      12.974   4.559  -0.066  0.00  0.00    +0.025 A 
ATOM     27  C   UNL     1      14.286   4.988  -0.119  0.00  0.00    +0.003 A 
ATOM     28  C   UNL     1      14.589   6.321   0.089  0.00  0.00    +0.021 A 
ATOM     29  C   UNL     1      13.580   7.231   0.350  0.00  0.00    +0.061 A 
ATOM     30  C   UNL     1      12.263   6.809   0.399  0.00  0.00    +0.080 A 
ATOM     31 CL   UNL     1      10.996   7.952   0.720  0.00  0.00    -0.080 Cl
ATOM     32 CL   UNL     1      13.966   8.903   0.612  0.00  0.00    -0.082 Cl
ENDBRANCH  23  25
ENDBRANCH  22  23
BRANCH  21  33
ATOM     33  C   UNL     1       7.986   4.240   0.366  0.00  0.00    +0.103 C 
ATOM     34  N   UNL     1       7.155   4.986   0.576  0.00  0.00    -0.191 NA
ENDBRANCH  21  33
ENDBRANCH   4  21
TORSDOF 5
