REMARK  Name = ZINC09317083
REMARK  5 active torsions:
REMARK  status: ('A' for Active; 'I' for Inactive)
REMARK    1  A    between atoms: C_1  and  O_2
REMARK    2  A    between atoms: O_2  and  C_3
REMARK    3  A    between atoms: C_6  and  S_9
REMARK    4  A    between atoms: S_9  and  N_12
REMARK    5  A    between atoms: C_22  and  C_24
REMARK                            x       y       z     vdW  Elec       q    Type
REMARK                         _______ _______ _______ _____ _____    ______ ____
ROOT
ATOM      1  N   UNL     1       1.290   1.666   2.184  0.00  0.00    -0.144 NA
ATOM      2  C   UNL     1       2.175   2.551   2.975  0.00  0.00    +0.140 C 
ATOM      3  C   UNL     1       3.253   2.967   1.943  0.00  0.00    +0.179 C 
ATOM      4  O   UNL     1       3.410   1.764   1.157  0.00  0.00    -0.356 OA
ATOM      5  C   UNL     1       2.092   1.204   1.041  0.00  0.00    +0.145 C 
ATOM      6  C   UNL     1       1.449   1.676  -0.263  0.00  0.00    +0.072 C 
ATOM      7  C   UNL     1       0.032   1.102  -0.366  0.00  0.00    +0.112 C 
ATOM      8  N   UNL     1       0.100  -0.357  -0.214  0.00  0.00    -0.295 N 
ATOM      9  C   UNL     1       0.771  -0.914   0.968  0.00  0.00    +0.112 C 
ATOM     10  C   UNL     1       2.182  -0.323   1.059  0.00  0.00    +0.072 C 
ATOM     11  C   UNL     1      -0.443  -1.170  -1.142  0.00  0.00    +0.282 C 
ATOM     12  O   UNL     1      -1.101  -0.701  -2.052  0.00  0.00    -0.267 OA
ENDROOT
BRANCH  11  13
ATOM     13  C   UNL     1      -0.241  -2.619  -1.055  0.00  0.00    +0.191 A 
ATOM     14  C   UNL     1      -0.834  -3.561  -1.847  0.00  0.00    +0.056 A 
ATOM     15  C   UNL     1      -0.355  -4.808  -1.419  0.00  0.00    +0.058 A 
ATOM     16  C   UNL     1       0.493  -4.577  -0.390  0.00  0.00    +0.171 A 
ATOM     17  O   UNL     1       0.559  -3.257  -0.174  0.00  0.00    -0.444 OA
ATOM     18 BR   UNL     1       1.432  -5.900   0.582  0.00  0.00    -0.008 Br
ENDBRANCH  11  13
BRANCH   1  19
ATOM     19  S   UNL     1      -0.284   1.275   2.518  0.00  0.00    +0.063 S 
ATOM     20  O   UNL     1      -0.732   0.447   1.454  0.00  0.00    -0.153 OA
ATOM     21  O   UNL     1      -0.319   0.857   3.876  0.00  0.00    -0.153 OA
BRANCH  19  25
ATOM     22  C   UNL     1      -2.694   5.102   2.281  0.00  0.00    +0.120 A 
ATOM     23  C   UNL     1      -2.632   4.251   1.187  0.00  0.00    +0.047 A 
ATOM     24  C   UNL     1      -1.896   3.084   1.262  0.00  0.00    +0.032 A 
ATOM     25  C   UNL     1      -1.222   2.764   2.426  0.00  0.00    +0.106 A 
ATOM     26  C   UNL     1      -1.286   3.608   3.519  0.00  0.00    +0.032 A 
ATOM     27  C   UNL     1      -2.016   4.779   3.447  0.00  0.00    +0.047 A 
BRANCH  22  29
ATOM     28  C   UNL     1      -3.435   7.079   3.374  0.00  0.00    +0.277 C 
ATOM     29  O   UNL     1      -3.416   6.251   2.209  0.00  0.00    -0.495 OA
ENDBRANCH  22  29
ENDBRANCH  19  25
ENDBRANCH   1  19
TORSDOF 4
