REMARK  Name = ZINC36631342
REMARK  9 active torsions:
REMARK  status: ('A' for Active; 'I' for Inactive)
REMARK    1  A    between atoms: C_1  and  C_2
REMARK    2  A    between atoms: C_2  and  O_3
REMARK    3  A    between atoms: O_3  and  C_4
REMARK    4  A    between atoms: C_7  and  C_10
REMARK    5  A    between atoms: C_10  and  C_12
REMARK    6  A    between atoms: C_10  and  N_28
REMARK    7  A    between atoms: C_12  and  N_13
REMARK    8  A    between atoms: C_14  and  C_16
REMARK    9  A    between atoms: C_18  and  C_21
REMARK                            x       y       z     vdW  Elec       q    Type
REMARK                         _______ _______ _______ _____ _____    ______ ____
ROOT
ATOM      1  C   UNL     1       0.029  -6.329  -2.872  0.00  0.00    +0.094 C 
ENDROOT
BRANCH   1   2
ATOM      2  N   UNL     1      -1.290  -6.220  -2.242  0.00  0.00    -0.311 N 
ATOM      3  C   UNL     1      -2.398  -6.533  -2.941  0.00  0.00    +0.266 C 
ATOM      4  O   UNL     1      -2.305  -6.906  -4.094  0.00  0.00    -0.268 OA
ATOM      5  H   UNL     1      -1.364  -5.923  -1.322  0.00  0.00    +0.149 HD
BRANCH   3   6
ATOM      6  C   UNL     1      -3.733  -6.423  -2.304  0.00  0.00    +0.168 A 
ATOM      7  C   UNL     1      -4.971  -6.723  -2.913  0.00  0.00    +0.086 A 
ATOM      8  C   UNL     1      -5.952  -6.494  -2.000  0.00  0.00    +0.168 A 
ATOM      9  O   UNL     1      -5.370  -6.069  -0.863  0.00  0.00    -0.354 OA
ATOM     10  N   UNL     1      -3.970  -6.037  -1.073  0.00  0.00    -0.073 NA
BRANCH   8  11
ATOM     11  C   UNL     1      -7.403  -6.678  -2.218  0.00  0.00    +0.020 A 
ATOM     12  C   UNL     1      -7.874  -7.131  -3.451  0.00  0.00    +0.013 A 
ATOM     13  C   UNL     1      -9.229  -7.301  -3.648  0.00  0.00    +0.016 A 
ATOM     14  C   UNL     1     -10.120  -7.022  -2.626  0.00  0.00    +0.018 A 
ATOM     15  C   UNL     1      -9.659  -6.572  -1.401  0.00  0.00    +0.016 A 
ATOM     16  C   UNL     1      -8.306  -6.404  -1.189  0.00  0.00    +0.013 A 
ATOM     17 BR   UNL     1     -11.976  -7.256  -2.905  0.00  0.00    -0.050 Br
ENDBRANCH   8  11
ENDBRANCH   3   6
ENDBRANCH   1   2
BRANCH   1  18
ATOM     18  C   UNL     1       1.097  -5.794  -1.915  0.00  0.00    -0.020 C 
BRANCH  18  22
ATOM     19  C   UNL     1       0.502  -1.606  -1.311  0.00  0.00    +0.121 A 
ATOM     20  C   UNL     1       0.056  -2.515  -0.362  0.00  0.00    +0.046 A 
ATOM     21  C   UNL     1       0.249  -3.869  -0.560  0.00  0.00    +0.005 A 
ATOM     22  C   UNL     1       0.887  -4.317  -1.702  0.00  0.00    -0.059 A 
ATOM     23  C   UNL     1       1.332  -3.413  -2.649  0.00  0.00    +0.005 A 
ATOM     24  C   UNL     1       1.135  -2.059  -2.459  0.00  0.00    +0.046 A 
BRANCH  19  25
ATOM     25  O   UNL     1       0.312  -0.274  -1.119  0.00  0.00    -0.492 OA
BRANCH  25  27
ATOM     26  C   UNL     1      -0.469   1.645   0.125  0.00  0.00    +0.048 C 
ATOM     27  C   UNL     1      -0.347   0.120   0.086  0.00  0.00    +0.225 C 
ENDBRANCH  25  27
ENDBRANCH  19  25
ENDBRANCH  18  22
BRANCH  18  28
ATOM     28  N   UNL     1       2.428  -6.022  -2.492  0.00  0.00    +0.385 N 
ATOM     29  C   UNL     1       3.478  -5.521  -1.569  0.00  0.00    -0.078 C 
ATOM     30  C   UNL     1       4.740  -6.306  -2.007  0.00  0.00    -0.020 C 
ATOM     31  C   UNL     1       4.175  -7.702  -2.354  0.00  0.00    -0.020 C 
ATOM     32  C   UNL     1       2.680  -7.472  -2.640  0.00  0.00    -0.078 C 
ATOM     33  H   UNL     1       2.503  -5.563  -3.387  0.00  0.00    -0.081 HD
ENDBRANCH  18  28
ENDBRANCH   1  18
TORSDOF 8
