REMARK  Name = ZINC16338322
REMARK  5 active torsions:
REMARK  status: ('A' for Active; 'I' for Inactive)
REMARK    1  A    between atoms: C_1  and  C_2
REMARK    2  A    between atoms: C_2  and  C_4
REMARK    3  A    between atoms: C_2  and  N_52
REMARK    4  A    between atoms: N_6  and  C_7
REMARK    5  A    between atoms: C_19  and  O_22
REMARK                            x       y       z     vdW  Elec       q    Type
REMARK                         _______ _______ _______ _____ _____    ______ ____
ROOT
ATOM      1  C   UNL     1      -2.112   5.752  -0.958  0.00  0.00    +0.200 C 
ATOM      2  O   UNL     1      -2.637   5.143  -1.866  0.00  0.00    -0.278 OA
ATOM      3  N   UNL     1      -1.510   5.081   0.044  0.00  0.00    -0.311 N 
ATOM      4  H   UNL     1      -1.089   5.567   0.770  0.00  0.00    +0.149 HD
ENDROOT
BRANCH   3   5
ATOM      5  C   UNL     1      -1.490   3.616   0.036  0.00  0.00    +0.035 C 
ATOM      6  C   UNL     1      -0.773   3.123  -1.223  0.00  0.00    +0.029 C 
ATOM      7  C   UNL     1      -0.753   1.593  -1.232  0.00  0.00    -0.008 C 
ATOM      8  C   UNL     1      -0.013   1.086   0.008  0.00  0.00    +0.007 C 
ATOM      9  C   UNL     1      -0.729   1.579   1.267  0.00  0.00    -0.008 C 
ATOM     10  C   UNL     1      -0.750   3.109   1.275  0.00  0.00    +0.029 C 
ATOM     11  C   UNL     1      -2.164   1.050   1.278  0.00  0.00    +0.007 C 
ATOM     12  C   UNL     1      -2.904   1.556   0.038  0.00  0.00    -0.008 C 
ATOM     13  C   UNL     1      -2.188   1.063  -1.221  0.00  0.00    +0.007 C 
ATOM     14  C   UNL     1      -2.925   3.086   0.047  0.00  0.00    +0.029 C 
ENDBRANCH   3   5
BRANCH   1  16
ATOM     15  C   UNL     1      -0.697   7.788  -0.960  0.00  0.00    -0.004 C 
ATOM     16  C   UNL     1      -2.132   7.259  -0.950  0.00  0.00    +0.016 C 
BRANCH  16  22
ATOM     17  C   UNL     1      -2.172   7.306  -3.369  0.00  0.00    -0.075 C 
ATOM     18  C   UNL     1      -3.015   7.705  -4.583  0.00  0.00    +0.013 C 
ATOM     19  C   UNL     1      -3.197   9.225  -4.594  0.00  0.00    +0.111 C 
ATOM     20  C   UNL     1      -3.854   9.662  -3.282  0.00  0.00    +0.013 C 
ATOM     21  C   UNL     1      -2.986   9.207  -2.106  0.00  0.00    -0.075 C 
ATOM     22  N   UNL     1      -2.870   7.733  -2.138  0.00  0.00    +0.387 N 
ATOM     23  H   UNL     1      -3.812   7.325  -2.131  0.00  0.00    -0.081 HD
BRANCH  19  24
ATOM     24  O   UNL     1      -4.031   9.598  -5.693  0.00  0.00    -0.392 OA
ATOM     25  H   UNL     1      -3.675   9.352  -6.558  0.00  0.00    +0.210 HD
ENDBRANCH  19  24
ENDBRANCH  16  22
ENDBRANCH   1  16
TORSDOF 4
