REMARK  Name = ZINC08727635
REMARK  6 active torsions:
REMARK  status: ('A' for Active; 'I' for Inactive)
REMARK    1  A    between atoms: C_1  and  N_2
REMARK    2  A    between atoms: N_2  and  C_3
REMARK    3  A    between atoms: C_3  and  C_4
REMARK    4  A    between atoms: C_7  and  C_9
REMARK    5  A    between atoms: C_16  and  C_18
REMARK    6  A    between atoms: C_18  and  N_19
REMARK                            x       y       z     vdW  Elec       q    Type
REMARK                         _______ _______ _______ _____ _____    ______ ____
ROOT
ATOM      1  C   UNL     1      -1.801   7.208   4.290  0.00  0.00    +0.132 C 
ATOM      2  N   UNL     1      -2.224   5.893   3.802  0.00  0.00    -0.296 N 
ATOM      3  C   UNL     1      -1.542   5.291   2.807  0.00  0.00    +0.234 C 
ATOM      4  O   UNL     1      -1.893   4.203   2.404  0.00  0.00    -0.274 OA
ENDROOT
BRANCH   2   5
ATOM      5  C   UNL     1      -3.389   5.231   4.396  0.00  0.00    +0.181 C 
BRANCH   5   6
ATOM      6  C   UNL     1      -2.945   4.379   5.556  0.00  0.00    +0.123 A 
ATOM      7  C   UNL     1      -2.845   4.785   6.837  0.00  0.00    +0.047 A 
ATOM      8  C   UNL     1      -2.400   3.678   7.588  0.00  0.00    +0.050 A 
ATOM      9  C   UNL     1      -2.242   2.650   6.713  0.00  0.00    +0.135 A 
ATOM     10  O   UNL     1      -2.577   3.089   5.484  0.00  0.00    -0.458 OA
BRANCH   9  11
ATOM     11  C   UNL     1      -1.784   1.286   7.051  0.00  0.00    +0.017 A 
ATOM     12  C   UNL     1      -1.462   0.962   8.370  0.00  0.00    +0.013 A 
ATOM     13  C   UNL     1      -1.038  -0.313   8.681  0.00  0.00    +0.021 A 
ATOM     14  C   UNL     1      -0.922  -1.269   7.685  0.00  0.00    +0.041 A 
ATOM     15  C   UNL     1      -1.236  -0.952   6.374  0.00  0.00    +0.021 A 
ATOM     16  C   UNL     1      -1.665   0.318   6.052  0.00  0.00    +0.013 A 
ATOM     17 CL   UNL     1      -0.382  -2.870   8.082  0.00  0.00    -0.084 Cl
ENDBRANCH   9  11
ENDBRANCH   5   6
ENDBRANCH   2   5
BRANCH   3  18
ATOM     18  C   UNL     1      -0.344   5.972   2.196  0.00  0.00    +0.213 C 
BRANCH  18  19
ATOM     19  N   UNL     1       0.217   5.120   1.144  0.00  0.00    -0.215 N 
ATOM     20  C   UNL     1       1.171   4.187   1.351  0.00  0.00    +0.251 C 
ATOM     21  O   UNL     1       1.708   3.903   2.401  0.00  0.00    -0.272 OA
ATOM     22  C   UNL     1       1.427   3.575  -0.001  0.00  0.00    +0.138 C 
ATOM     23  C   UNL     1       2.889   3.756  -0.427  0.00  0.00    +0.045 C 
ATOM     24  C   UNL     1       3.521   2.410  -0.005  0.00  0.00    +0.038 C 
ATOM     25  C   UNL     1       2.378   1.416  -0.009  0.00  0.00    -0.042 A 
ATOM     26  C   UNL     1       1.169   2.092   0.002  0.00  0.00    -0.012 A 
ATOM     27  C   UNL     1      -0.017   1.377   0.010  0.00  0.00    +0.006 A 
ATOM     28  C   UNL     1       0.002  -0.004   0.002  0.00  0.00    +0.000 A 
ATOM     29  C   UNL     1       1.209  -0.678  -0.013  0.00  0.00    +0.000 A 
ATOM     30  C   UNL     1       2.393   0.032  -0.018  0.00  0.00    +0.004 A 
ATOM     31  N   UNL     1       0.517   4.282  -0.904  0.00  0.00    -0.281 N 
ATOM     32  C   UNL     1      -0.152   5.171  -0.142  0.00  0.00    +0.310 C 
ATOM     33  O   UNL     1      -0.995   5.932  -0.575  0.00  0.00    -0.252 OA
ATOM     34  H   UNL     1       0.416   4.139  -1.858  0.00  0.00    +0.152 HD
ENDBRANCH  18  19
ENDBRANCH   3  18
TORSDOF 5
