REMARK  Name = ZINC08384870
REMARK  2 active torsions:
REMARK  status: ('A' for Active; 'I' for Inactive)
REMARK    1  A    between atoms: N_15  and  N_16
REMARK    2  A    between atoms: C_17  and  C_18
REMARK                            x       y       z     vdW  Elec       q    Type
REMARK                         _______ _______ _______ _____ _____    ______ ____
ROOT
ATOM      1  C   UNL     1       1.465  14.667   0.064  0.00  0.00    +0.001 A 
ATOM      2  C   UNL     1       0.257  15.348   0.077  0.00  0.00    +0.002 A 
ATOM      3  C   UNL     1      -0.936  14.658   0.086  0.00  0.00    +0.026 A 
ATOM      4  C   UNL     1      -0.937  13.267   0.080  0.00  0.00    +0.050 A 
ATOM      5  C   UNL     1       0.286  12.579   0.065  0.00  0.00    +0.029 A 
ATOM      6  C   UNL     1       1.485  13.289   0.057  0.00  0.00    +0.012 A 
ATOM      7  C   UNL     1      -0.044  11.144   0.061  0.00  0.00    +0.137 A 
ATOM      8  C   UNL     1      -1.452  11.062   0.073  0.00  0.00    +0.163 A 
ATOM      9  N   UNL     1      -1.963  12.336   0.085  0.00  0.00    -0.338 N 
ATOM     10  H   UNL     1      -2.908  12.554   0.094  0.00  0.00    +0.167 HD
ATOM     11  N   UNL     1      -2.014   9.857   0.068  0.00  0.00    -0.192 NA
ATOM     12  C   UNL     1      -1.240   8.780   0.060  0.00  0.00    +0.256 A 
ATOM     13  N   UNL     1       0.085   8.883   0.049  0.00  0.00    -0.111 NA
ATOM     14  N   UNL     1       0.673  10.030   0.049  0.00  0.00    -0.142 NA
ATOM     15  N   UNL     1      -1.823   7.525   0.059  0.00  0.00    -0.204 N 
ATOM     16  H   UNL     1      -2.789   7.439   0.068  0.00  0.00    +0.177 HD
ENDROOT
BRANCH  15  17
ATOM     17  N   UNL     1      -1.018   6.378   0.046  0.00  0.00    -0.184 NA
ATOM     18  C   UNL     1      -1.566   5.198   0.044  0.00  0.00    +0.176 C 
BRANCH  18  19
ATOM     19  C   UNL     1      -0.724   3.998   0.030  0.00  0.00    +0.150 A 
ATOM     20  C   UNL     1      -1.167   2.708   0.022  0.00  0.00    +0.067 A 
ATOM     21  C   UNL     1      -0.024   1.887   0.012  0.00  0.00    +0.070 A 
ATOM     22  C   UNL     1       1.051   2.704   0.006  0.00  0.00    +0.179 A 
ATOM     23  O   UNL     1       0.624   3.978   0.018  0.00  0.00    -0.447 OA
ATOM     24  I   UNL     1       3.053   2.087  -0.016  0.00  0.00    +0.000 I 
ATOM     25 BR   UNL     1       0.002  -0.004   0.002  0.00  0.00    -0.046 Br
ENDBRANCH  18  19
ENDBRANCH  15  17
TORSDOF 2
