REMARK  Name = ZINC63881766
REMARK  8 active torsions:
REMARK  status: ('A' for Active; 'I' for Inactive)
REMARK    1  A    between atoms: C_1  and  C_2
REMARK    2  A    between atoms: C_10  and  C_12
REMARK    3  A    between atoms: C_12  and  N_13
REMARK    4  A    between atoms: N_13  and  C_14
REMARK    5  A    between atoms: C_15  and  C_17
REMARK    6  A    between atoms: C_17  and  C_18
REMARK    7  A    between atoms: N_25  and  C_26
REMARK    8  A    between atoms: C_26  and  C_27
REMARK                            x       y       z     vdW  Elec       q    Type
REMARK                         _______ _______ _______ _____ _____    ______ ____
ROOT
ATOM      1  C   UNL     1       1.234  -2.388   5.229  0.00  0.00    +0.124 C 
ENDROOT
BRANCH   1   2
ATOM      2  C   UNL     1       0.405  -1.767   6.355  0.00  0.00    +0.152 C 
ATOM      3  C   UNL     1      -0.999  -1.537   5.872  0.00  0.00    +0.231 C 
ATOM      4  O   UNL     1      -1.536  -2.402   5.214  0.00  0.00    -0.274 OA
ATOM      5  N   UNL     1      -1.682  -0.419   6.139  0.00  0.00    -0.313 N 
ATOM      6  C   UNL     1      -1.115   0.696   6.893  0.00  0.00    +0.119 C 
ATOM      7  C   UNL     1       0.114   0.230   7.676  0.00  0.00    +0.104 C 
ATOM      8  N   UNL     1       1.011  -0.490   6.758  0.00  0.00    -0.285 NA
ATOM      9  H   UNL     1      -2.594  -0.345   5.818  0.00  0.00    +0.149 HD
BRANCH   8  10
ATOM     10  C   UNL     1       2.328  -0.703   7.372  0.00  0.00    +0.123 C 
BRANCH  10  11
ATOM     11  C   UNL     1       3.018   0.625   7.554  0.00  0.00    +0.005 A 
ATOM     12  C   UNL     1       3.883   1.093   6.583  0.00  0.00    +0.008 A 
ATOM     13  C   UNL     1       4.516   2.310   6.749  0.00  0.00    +0.003 A 
ATOM     14  C   UNL     1       4.285   3.062   7.885  0.00  0.00    +0.041 A 
ATOM     15  C   UNL     1       3.419   2.596   8.859  0.00  0.00    +0.159 A 
ATOM     16  C   UNL     1       2.780   1.377   8.691  0.00  0.00    +0.163 A 
ATOM     17  F   UNL     1       1.930   0.923   9.637  0.00  0.00    -0.202 F 
ATOM     18  F   UNL     1       3.193   3.331   9.970  0.00  0.00    -0.202 F 
ENDBRANCH  10  11
ENDBRANCH   8  10
ENDBRANCH   1   2
BRANCH   1  21
ATOM     19  N   UNL     1       2.100  -1.708   3.014  0.00  0.00    -0.302 N 
ATOM     20  C   UNL     1       2.839  -2.973   2.967  0.00  0.00    +0.132 C 
ATOM     21  C   UNL     1       1.333  -1.415   4.082  0.00  0.00    +0.217 C 
ATOM     22  O   UNL     1       0.721  -0.369   4.120  0.00  0.00    -0.276 OA
BRANCH  19  23
ATOM     23  C   UNL     1       2.196  -0.763   1.899  0.00  0.00    +0.136 C 
BRANCH  23  33
ATOM     24  C   UNL     1       1.206   1.323  -0.376  0.00  0.00    +0.042 C 
ATOM     25  C   UNL     1       1.262  -0.182  -0.340  0.00  0.00    -0.040 C 
ATOM     26  C   UNL     1       1.470  -1.014  -1.387  0.00  0.00    -0.001 A 
ATOM     27  C   UNL     1       1.698  -0.774  -2.817  0.00  0.00    +0.010 A 
ATOM     28  C   UNL     1       1.877  -1.833  -3.639  0.00  0.00    +0.001 A 
ATOM     29  C   UNL     1       1.851  -3.151  -3.160  0.00  0.00    +0.002 A 
ATOM     30  C   UNL     1       1.647  -3.450  -1.860  0.00  0.00    +0.026 A 
ATOM     31  C   UNL     1       1.447  -2.414  -0.906  0.00  0.00    +0.043 A 
ATOM     32  N   UNL     1       1.234  -2.447   0.387  0.00  0.00    -0.376 N 
ATOM     33  C   UNL     1       1.102  -1.069   0.874  0.00  0.00    +0.123 C 
ATOM     34  H   UNL     1       1.176  -3.248   0.931  0.00  0.00    +0.160 HD
ENDBRANCH  23  33
ENDBRANCH  19  23
ENDBRANCH   1  21
TORSDOF 6
