REMARK  Name = ZINC35374547
REMARK  5 active torsions:
REMARK  status: ('A' for Active; 'I' for Inactive)
REMARK    1  A    between atoms: C_1  and  C_2
REMARK    2  A    between atoms: C_2  and  C_3
REMARK    3  A    between atoms: C_10  and  C_27
REMARK    4  A    between atoms: C_12  and  C_20
REMARK    5  A    between atoms: C_27  and  C_29
REMARK                            x       y       z     vdW  Elec       q    Type
REMARK                         _______ _______ _______ _____ _____    ______ ____
ROOT
ATOM      1  C   UNL     1      -1.601  -0.260  -0.091  0.00  0.00    -0.047 A 
ATOM      2  C   UNL     1      -2.266  -0.506   1.097  0.00  0.00    +0.005 A 
ATOM      3  C   UNL     1      -3.536  -1.044   1.087  0.00  0.00    +0.024 A 
ATOM      4  C   UNL     1      -4.160  -1.344  -0.122  0.00  0.00    +0.039 A 
ATOM      5  C   UNL     1      -3.482  -1.091  -1.310  0.00  0.00    +0.004 A 
ATOM      6  C   UNL     1      -2.217  -0.550  -1.296  0.00  0.00    +0.011 A 
ATOM      7  C   UNL     1      -4.412  -1.514  -2.417  0.00  0.00    +0.137 C 
ATOM      8  C   UNL     1      -3.781  -2.619  -3.269  0.00  0.00    +0.103 C 
ATOM      9  C   UNL     1      -4.112  -2.218  -4.726  0.00  0.00    +0.050 C 
ATOM     10  C   UNL     1      -4.258  -0.692  -4.643  0.00  0.00    +0.077 C 
ATOM     11  N   UNL     1      -4.736  -0.375  -3.292  0.00  0.00    -0.271 NA
ATOM     12  C   UNL     1      -6.216  -0.167  -3.242  0.00  0.00    +0.155 C 
ATOM     13  S   UNL     1      -6.493   0.671  -4.863  0.00  0.00    -0.144 S 
ATOM     14  C   UNL     1      -5.141  -0.160  -5.781  0.00  0.00    +0.090 C 
ATOM     15  C   UNL     1      -5.645  -2.016  -1.710  0.00  0.00    +0.243 C 
ATOM     16  O   UNL     1      -6.648  -2.455  -2.232  0.00  0.00    -0.273 OA
ATOM     17  N   UNL     1      -5.419  -1.885  -0.390  0.00  0.00    -0.283 N 
ATOM     18  H   UNL     1      -6.057  -2.136   0.296  0.00  0.00    +0.155 HD
ENDROOT
BRANCH   9  19
ATOM     19  C   UNL     1      -5.401  -2.856  -5.175  0.00  0.00    -0.042 A 
ATOM     20  C   UNL     1      -6.590  -2.159  -5.070  0.00  0.00    +0.005 A 
ATOM     21  C   UNL     1      -7.773  -2.744  -5.481  0.00  0.00    +0.020 A 
ATOM     22  C   UNL     1      -7.767  -4.027  -5.998  0.00  0.00    +0.041 A 
ATOM     23  C   UNL     1      -6.576  -4.725  -6.103  0.00  0.00    +0.020 A 
ATOM     24  C   UNL     1      -5.393  -4.136  -5.696  0.00  0.00    +0.005 A 
ATOM     25 CL   UNL     1      -9.252  -4.763  -6.514  0.00  0.00    -0.084 Cl
ENDBRANCH   9  19
BRANCH   1  27
ATOM     26  C   UNL     1      -0.305   1.853  -0.099  0.00  0.00    +0.009 C 
ATOM     27  C   UNL     1      -0.214   0.327  -0.072  0.00  0.00    +0.032 C 
ENDBRANCH   1  27
BRANCH   8  28
ATOM     28  C   UNL     1      -2.290  -2.661  -3.058  0.00  0.00    +0.171 C 
ATOM     29  O   UNL     1      -1.553  -2.063  -3.812  0.00  0.00    -0.292 OA
BRANCH  28  30
ATOM     30  C   UNL     1      -1.727  -3.429  -1.935  0.00  0.00    +0.036 A 
ATOM     31  C   UNL     1      -0.341  -3.471  -1.723  0.00  0.00    +0.014 A 
ATOM     32  C   UNL     1       0.136  -4.207  -0.653  0.00  0.00    +0.020 A 
ATOM     33  C   UNL     1      -0.761  -4.870   0.166  0.00  0.00    +0.111 A 
ATOM     34  N   UNL     1      -2.060  -4.813  -0.056  0.00  0.00    -0.263 NA
ATOM     35  C   UNL     1      -2.565  -4.123  -1.057  0.00  0.00    +0.122 A 
ENDBRANCH  28  30
ENDBRANCH   8  28
TORSDOF 4
