REMARK  Name = ZINC07049184
REMARK  6 active torsions:
REMARK  status: ('A' for Active; 'I' for Inactive)
REMARK    1  A    between atoms: C_1  and  C_2
REMARK    2  A    between atoms: C_4  and  N_25
REMARK    3  A    between atoms: C_6  and  S_8
REMARK    4  A    between atoms: S_8  and  C_9
REMARK    5  A    between atoms: C_9  and  C_10
REMARK    6  A    between atoms: C_15  and  C_24
REMARK                            x       y       z     vdW  Elec       q    Type
REMARK                         _______ _______ _______ _____ _____    ______ ____
ROOT
ATOM      1  C   UNL     1      -0.324  -0.777  -2.301  0.00  0.00    +0.230 C 
ATOM      2  O   UNL     1      -1.513  -0.569  -2.180  0.00  0.00    -0.274 OA
ATOM      3  N   UNL     1       0.512  -0.528  -1.274  0.00  0.00    -0.270 N 
ATOM      4  C   UNL     1       0.002  -0.004   0.002  0.00  0.00    +0.115 C 
ATOM      5  C   UNL     1      -0.018   1.502   0.010  0.00  0.00    +0.033 C 
ATOM      6  C   UNL     1       1.346   2.173   0.001  0.00  0.00    +0.050 C 
ATOM      7  S   UNL     1       2.145   1.938  -1.614  0.00  0.00    -0.120 S 
ATOM      8  C   UNL     1       2.792   0.287  -1.494  0.00  0.00    +0.030 A 
ATOM      9  C   UNL     1       1.889  -0.762  -1.396  0.00  0.00    +0.050 A 
ATOM     10  C   UNL     1       2.366  -2.067  -1.409  0.00  0.00    +0.024 A 
ATOM     11  C   UNL     1       3.728  -2.298  -1.482  0.00  0.00    +0.002 A 
ATOM     12  C   UNL     1       4.621  -1.244  -1.537  0.00  0.00    +0.001 A 
ATOM     13  C   UNL     1       4.153   0.060  -1.542  0.00  0.00    +0.016 A 
ATOM     14  C   UNL     1       1.178   3.669   0.271  0.00  0.00    +0.019 C 
ENDROOT
BRANCH   1  15
ATOM     15  C   UNL     1       0.218  -1.314  -3.601  0.00  0.00    +0.173 C 
BRANCH  15  16
ATOM     16  S   UNL     1      -1.142  -1.542  -4.774  0.00  0.00    -0.077 S 
BRANCH  16  22
ATOM     17  C   UNL     1      -1.033  -3.269  -9.590  0.00  0.00    +0.066 C 
ATOM     18  C   UNL     1      -0.271  -2.928  -8.335  0.00  0.00    +0.044 A 
ATOM     19  C   UNL     1       1.099  -3.099  -8.282  0.00  0.00    +0.066 A 
ATOM     20  C   UNL     1       1.766  -2.772  -7.100  0.00  0.00    +0.121 A 
ATOM     21  N   UNL     1       1.065  -2.304  -6.072  0.00  0.00    -0.207 NA
ATOM     22  C   UNL     1      -0.249  -2.159  -6.162  0.00  0.00    +0.191 A 
ATOM     23  N   UNL     1      -0.908  -2.462  -7.271  0.00  0.00    -0.227 NA
BRANCH  20  24
ATOM     24  N   UNL     1       3.139  -2.926  -7.002  0.00  0.00    -0.343 N 
ATOM     25  H   UNL     1       3.644  -3.264  -7.758  0.00  0.00    +0.144 HD
ATOM     26  H   UNL     1       3.595  -2.697  -6.177  0.00  0.00    +0.144 HD
ENDBRANCH  20  24
ENDBRANCH  16  22
ENDBRANCH  15  16
ENDBRANCH   1  15
TORSDOF 4
