REMARK  Name = ZINC49234505
REMARK  6 active torsions:
REMARK  status: ('A' for Active; 'I' for Inactive)
REMARK    1  A    between atoms: C_1  and  C_2
REMARK    2  A    between atoms: C_2  and  C_3
REMARK    3  A    between atoms: C_2  and  C_4
REMARK    4  A    between atoms: N_9  and  S_10
REMARK    5  A    between atoms: S_10  and  C_13
REMARK    6  A    between atoms: C_14  and  N_21
REMARK                            x       y       z     vdW  Elec       q    Type
REMARK                         _______ _______ _______ _____ _____    ______ ____
ROOT
ATOM      1  S   UNL     1       2.159  -1.482  -6.496  0.00  0.00    +0.104 S 
ATOM      2  O   UNL     1       3.458  -0.922  -6.634  0.00  0.00    -0.146 OA
ATOM      3  O   UNL     1       1.930  -2.885  -6.506  0.00  0.00    -0.146 OA
ENDROOT
BRANCH   1   4
ATOM      4  C   UNL     1       1.177  -0.802  -7.791  0.00  0.00    +0.147 A 
ATOM      5  C   UNL     1       0.054  -1.484  -8.243  0.00  0.00    +0.054 A 
ATOM      6  C   UNL     1      -0.718  -0.945  -9.264  0.00  0.00    +0.040 A 
ATOM      7  C   UNL     1      -0.368   0.268  -9.826  0.00  0.00    +0.021 A 
ATOM      8  C   UNL     1       0.751   0.945  -9.374  0.00  0.00    +0.032 A 
ATOM      9  C   UNL     1       1.519   0.412  -8.354  0.00  0.00    +0.048 A 
ATOM     10 BR   UNL     1       3.043   1.345  -7.734  0.00  0.00    -0.048 Br
ATOM     11 BR   UNL     1      -1.419   1.003 -11.216  0.00  0.00    -0.050 Br
BRANCH   5  12
ATOM     12  N   UNL     1      -0.297  -2.710  -7.673  0.00  0.00    -0.356 N 
ATOM     13  H   UNL     1       0.011  -2.936  -6.781  0.00  0.00    +0.142 HD
ATOM     14  H   UNL     1      -0.848  -3.335  -8.169  0.00  0.00    +0.142 HD
ENDBRANCH   5  12
ENDBRANCH   1   4
BRANCH   1  20
ATOM     15  C   UNL     1       2.486  -1.417  -1.612  0.00  0.00    +0.027 A 
ATOM     16  C   UNL     1       3.513  -2.232  -1.853  0.00  0.00    +0.070 A 
ATOM     17  S   UNL     1       3.498  -2.336  -3.636  0.00  0.00    -0.057 S 
ATOM     18  C   UNL     1       2.098  -1.266  -3.931  0.00  0.00    +0.192 A 
ATOM     19  N   UNL     1       1.748  -0.917  -2.645  0.00  0.00    -0.336 N 
ATOM     20  N   UNL     1       1.548  -0.913  -5.066  0.00  0.00    -0.103 NA
ATOM     21  H   UNL     1       0.997  -0.327  -2.478  0.00  0.00    +0.168 HD
BRANCH  15  23
ATOM     22  C   UNL     1       2.231   0.465  -0.017  0.00  0.00    +0.013 C 
ATOM     23  C   UNL     1       2.135  -1.052  -0.192  0.00  0.00    +0.030 C 
ATOM     24  C   UNL     1       0.708  -1.511   0.114  0.00  0.00    +0.013 C 
ENDBRANCH  15  23
ENDBRANCH   1  20
TORSDOF 4
