REMARK  Name = ZINC36206271
REMARK  14 active torsions:
REMARK  status: ('A' for Active; 'I' for Inactive)
REMARK    1  A    between atoms: C_1  and  C_2
REMARK    2  A    between atoms: C_2  and  C_3
REMARK    3  A    between atoms: C_2  and  C_4
REMARK    4  A    between atoms: C_4  and  N_5
REMARK    5  A    between atoms: N_5  and  C_6
REMARK    6  A    between atoms: N_5  and  C_26
REMARK    7  A    between atoms: C_6  and  C_7
REMARK    8  A    between atoms: C_13  and  C_18
REMARK    9  A    between atoms: C_21  and  O_24
REMARK   10  A    between atoms: O_24  and  C_25
REMARK   11  A    between atoms: C_26  and  C_27
REMARK   12  A    between atoms: C_27  and  C_29
REMARK   13  A    between atoms: C_27  and  O_36
REMARK   14  A    between atoms: C_29  and  C_30
REMARK                            x       y       z     vdW  Elec       q    Type
REMARK                         _______ _______ _______ _____ _____    ______ ____
ROOT
ATOM      1  C   UNL     1      -2.035  -1.325  -1.749  0.00  0.00    +0.094 A 
ATOM      2  N   UNL     1      -3.063  -1.221  -2.630  0.00  0.00    -0.312 N 
ATOM      3  H   UNL     1      -3.737  -1.919  -2.659  0.00  0.00    +0.170 HD
ATOM      4  C   UNL     1      -3.165  -0.170  -3.464  0.00  0.00    +0.260 A 
ATOM      5  O   UNL     1      -4.094  -0.091  -4.250  0.00  0.00    -0.267 OA
ATOM      6  C   UNL     1      -2.167   0.854  -3.415  0.00  0.00    +0.080 A 
ATOM      7  C   UNL     1      -2.058   2.075  -4.205  0.00  0.00    +0.004 A 
ATOM      8  C   UNL     1      -1.012   2.906  -3.979  0.00  0.00    +0.056 A 
ATOM      9  S   UNL     1      -0.106   2.086  -2.680  0.00  0.00    -0.076 S 
ATOM     10  C   UNL     1      -1.143   0.661  -2.473  0.00  0.00    +0.116 A 
ATOM     11  N   UNL     1      -1.112  -0.404  -1.677  0.00  0.00    -0.229 NA
ENDROOT
BRANCH   7  12
ATOM     12  C   UNL     1      -3.072   2.401  -5.235  0.00  0.00    -0.016 A 
ATOM     13  C   UNL     1      -3.439   1.445  -6.182  0.00  0.00    +0.012 A 
ATOM     14  C   UNL     1      -4.383   1.752  -7.139  0.00  0.00    +0.046 A 
ATOM     15  C   UNL     1      -4.969   3.010  -7.161  0.00  0.00    +0.120 A 
ATOM     16  C   UNL     1      -4.606   3.964  -6.220  0.00  0.00    +0.046 A 
ATOM     17  C   UNL     1      -3.666   3.662  -5.257  0.00  0.00    +0.012 A 
BRANCH  15  18
ATOM     18  O   UNL     1      -5.899   3.309  -8.105  0.00  0.00    -0.495 OA
ATOM     19  C   UNL     1      -6.461   4.622  -8.070  0.00  0.00    +0.277 C 
ENDBRANCH  15  18
ENDBRANCH   7  12
BRANCH   1  20
ATOM     20  C   UNL     1      -1.963  -2.520  -0.833  0.00  0.00    -0.003 C 
BRANCH  20  21
ATOM     21  N   UNL     1      -0.897  -2.314   0.157  0.00  0.00    +0.386 N 
ATOM     22  H   UNL     1      -0.162  -1.757  -0.251  0.00  0.00    -0.081 HD
BRANCH  21  23
ATOM     23  C   UNL     1      -1.446  -1.618   1.329  0.00  0.00    -0.075 C 
BRANCH  23  25
ATOM     24  C   UNL     1      -2.646   0.439   2.084  0.00  0.00    +0.005 C 
ATOM     25  C   UNL     1      -1.884  -0.208   0.926  0.00  0.00    -0.034 C 
ATOM     26  C   UNL     1      -0.650   0.633   0.594  0.00  0.00    +0.005 C 
ENDBRANCH  23  25
ENDBRANCH  21  23
BRANCH  21  27
ATOM     27  C   UNL     1      -0.354  -3.615   0.570  0.00  0.00    -0.046 C 
BRANCH  27  28
ATOM     28  C   UNL     1       0.918  -3.399   1.392  0.00  0.00    +0.102 C 
BRANCH  28  29
ATOM     29  O   UNL     1       0.582  -2.777   2.634  0.00  0.00    -0.393 OA
ATOM     30  H   UNL     1       0.035  -3.325   3.213  0.00  0.00    +0.210 HD
ENDBRANCH  28  29
BRANCH  28  31
ATOM     31  C   UNL     1       1.586  -4.748   1.662  0.00  0.00    +0.064 C 
BRANCH  31  32
ATOM     32  C   UNL     1       2.901  -4.527   2.365  0.00  0.00    -0.045 A 
ATOM     33  C   UNL     1       4.058  -4.356   1.628  0.00  0.00    +0.004 A 
ATOM     34  C   UNL     1       5.264  -4.152   2.272  0.00  0.00    +0.000 A 
ATOM     35  C   UNL     1       5.312  -4.119   3.654  0.00  0.00    +0.000 A 
ATOM     36  C   UNL     1       4.155  -4.289   4.390  0.00  0.00    +0.000 A 
ATOM     37  C   UNL     1       2.948  -4.488   3.745  0.00  0.00    +0.004 A 
ENDBRANCH  31  32
ENDBRANCH  28  31
ENDBRANCH  27  28
ENDBRANCH  21  27
ENDBRANCH  20  21
ENDBRANCH   1  20
TORSDOF 11
