REMARK  Name = ZINC59850603
REMARK  10 active torsions:
REMARK  status: ('A' for Active; 'I' for Inactive)
REMARK    1  A    between atoms: C_1  and  C_2
REMARK    2  A    between atoms: C_7  and  O_8
REMARK    3  A    between atoms: O_8  and  C_9
REMARK    4  A    between atoms: C_9  and  C_10
REMARK    5  A    between atoms: C_10  and  N_11
REMARK    6  A    between atoms: N_14  and  C_15
REMARK    7  A    between atoms: C_15  and  C_17
REMARK    8  A    between atoms: C_15  and  C_22
REMARK    9  A    between atoms: C_22  and  C_23
REMARK   10  A    between atoms: C_22  and  C_24
REMARK                            x       y       z     vdW  Elec       q    Type
REMARK                         _______ _______ _______ _____ _____    ______ ____
ROOT
ATOM      1  N   UNL     1      -1.214   0.848   4.843  0.00  0.00    -0.296 N 
ATOM      2  C   UNL     1      -1.440   1.728   5.838  0.00  0.00    +0.300 C 
ATOM      3  O   UNL     1      -0.596   1.904   6.696  0.00  0.00    -0.253 OA
ATOM      4  N   UNL     1      -2.600   2.412   5.883  0.00  0.00    -0.292 N 
ATOM      5  H   UNL     1      -1.887   0.707   4.158  0.00  0.00    +0.150 HD
ATOM      6  H   UNL     1      -3.273   2.271   5.199  0.00  0.00    +0.151 HD
ENDROOT
BRANCH   1   7
ATOM      7  C   UNL     1       0.047   0.104   4.793  0.00  0.00    +0.146 C 
BRANCH   7   8
ATOM      8  C   UNL     1       0.048  -0.820   3.574  0.00  0.00    +0.248 C 
BRANCH   8   9
ATOM      9  O   UNL     1       0.025  -0.033   2.381  0.00  0.00    -0.490 OA
BRANCH   9  16
ATOM     10  C   UNL     1      -0.018   1.503   0.010  0.00  0.00    +0.047 C 
ATOM     11  C   UNL     1       0.002  -0.004   0.002  0.00  0.00    -0.009 A 
ATOM     12  C   UNL     1       0.006  -0.689  -1.198  0.00  0.00    +0.007 A 
ATOM     13  C   UNL     1       0.024  -2.071  -1.206  0.00  0.00    +0.000 A 
ATOM     14  C   UNL     1       0.039  -2.772  -0.014  0.00  0.00    +0.004 A 
ATOM     15  C   UNL     1       0.036  -2.092   1.188  0.00  0.00    +0.046 A 
ATOM     16  C   UNL     1       0.023  -0.705   1.199  0.00  0.00    +0.123 A 
ENDBRANCH   9  16
ENDBRANCH   8   9
ENDBRANCH   7   8
ENDBRANCH   1   7
BRANCH   4  17
ATOM     17  C   UNL     1      -2.845   3.368   6.966  0.00  0.00    +0.114 C 
BRANCH  17  18
ATOM     18  C   UNL     1      -3.840   4.402   6.506  0.00  0.00    +0.010 A 
ATOM     19  C   UNL     1      -3.848   5.739   6.734  0.00  0.00    +0.013 A 
ATOM     20  C   UNL     1      -4.874   6.502   6.207  0.00  0.00    +0.008 A 
ATOM     21  C   UNL     1      -5.840   5.891   5.479  0.00  0.00    +0.045 A 
ATOM     22  S   UNL     1      -5.309   4.187   5.516  0.00  0.00    -0.100 S 
ENDBRANCH  17  18
BRANCH  17  23
ATOM     23  C   UNL     1      -3.403   2.628   8.183  0.00  0.00    +0.008 C 
ATOM     24  C   UNL     1      -2.393   1.578   8.649  0.00  0.00    +0.009 C 
ATOM     25  C   UNL     1      -3.659   3.627   9.314  0.00  0.00    +0.009 C 
ENDBRANCH  17  23
ENDBRANCH   4  17
TORSDOF 7
