REMARK  Name = ZINC66697143
REMARK  9 active torsions:
REMARK  status: ('A' for Active; 'I' for Inactive)
REMARK    1  A    between atoms: C_1  and  C_2
REMARK    2  A    between atoms: C_2  and  C_3
REMARK    3  A    between atoms: C_8  and  N_9
REMARK    4  A    between atoms: C_10  and  C_12
REMARK    5  A    between atoms: C_12  and  N_13
REMARK    6  A    between atoms: C_14  and  C_16
REMARK    7  A    between atoms: C_16  and  N_17
REMARK    8  A    between atoms: C_22  and  C_24
REMARK    9  A    between atoms: C_24  and  C_25
REMARK                            x       y       z     vdW  Elec       q    Type
REMARK                         _______ _______ _______ _____ _____    ______ ____
ROOT
ATOM      1  N   UNL     1       6.186  -0.886   1.489  0.00  0.00    -0.308 N 
ATOM      2  C   UNL     1       7.178  -0.654   2.371  0.00  0.00    +0.197 C 
ATOM      3  O   UNL     1       6.914  -0.362   3.519  0.00  0.00    -0.278 OA
ATOM      4  H   UNL     1       6.398  -1.119   0.572  0.00  0.00    +0.149 HD
ENDROOT
BRANCH   1   5
ATOM      5  C   UNL     1       4.788  -0.785   1.916  0.00  0.00    +0.200 C 
BRANCH   5   7
ATOM      6  N   UNL     1       2.546  -1.057   0.907  0.00  0.00    -0.284 N 
ATOM      7  C   UNL     1       3.884  -1.089   0.749  0.00  0.00    +0.234 C 
ATOM      8  O   UNL     1       4.360  -1.363  -0.333  0.00  0.00    -0.274 OA
ATOM      9  H   UNL     1       2.164  -0.770   1.751  0.00  0.00    +0.155 HD
BRANCH   6  15
ATOM     10  C   UNL     1       0.507  -2.085   0.119  0.00  0.00    -0.026 A 
ATOM     11  C   UNL     1      -0.321  -2.455  -0.923  0.00  0.00    +0.005 A 
ATOM     12  C   UNL     1       0.047  -2.188  -2.229  0.00  0.00    +0.000 A 
ATOM     13  C   UNL     1       1.244  -1.549  -2.496  0.00  0.00    +0.002 A 
ATOM     14  C   UNL     1       2.076  -1.176  -1.459  0.00  0.00    +0.023 A 
ATOM     15  C   UNL     1       1.708  -1.439  -0.146  0.00  0.00    +0.037 A 
BRANCH  10  17
ATOM     16  C   UNL     1      -0.592  -1.152   2.136  0.00  0.00    +0.009 C 
ATOM     17  C   UNL     1       0.106  -2.377   1.542  0.00  0.00    +0.033 C 
ENDBRANCH  10  17
ENDBRANCH   6  15
ENDBRANCH   5   7
ENDBRANCH   1   5
BRANCH   2  18
ATOM     18  C   UNL     1       8.616  -0.757   1.933  0.00  0.00    +0.019 C 
BRANCH  18  19
ATOM     19  N   UNL     1       9.498  -0.461   3.070  0.00  0.00    +0.387 N 
ATOM     20  C   UNL     1       9.332   0.944   3.462  0.00  0.00    -0.078 C 
ATOM     21  C   UNL     1      10.188   1.237   4.697  0.00  0.00    -0.019 C 
ATOM     22  C   UNL     1      11.659   0.967   4.368  0.00  0.00    -0.003 C 
ATOM     23  C   UNL     1      11.807  -0.480   3.889  0.00  0.00    -0.015 C 
ATOM     24  C   UNL     1      10.892  -0.709   2.684  0.00  0.00    -0.068 C 
ATOM     25  H   UNL     1       9.253  -1.056   3.847  0.00  0.00    -0.081 HD
BRANCH  24  26
ATOM     26  C   UNL     1      11.037  -2.154   2.202  0.00  0.00    -0.019 C 
ATOM     27  C   UNL     1      12.470  -2.390   1.720  0.00  0.00    +0.002 C 
ENDBRANCH  24  26
ENDBRANCH  18  19
ENDBRANCH   2  18
TORSDOF 7
