REMARK  Name = ZINC02256402
REMARK  12 active torsions:
REMARK  status: ('A' for Active; 'I' for Inactive)
REMARK    1  A    between atoms: C_1  and  C_2
REMARK    2  A    between atoms: C_2  and  N_57
REMARK    3  A    between atoms: C_3  and  C_4
REMARK    4  A    between atoms: C_3  and  N_57
REMARK    5  A    between atoms: C_5  and  C_6
REMARK    6  A    between atoms: C_5  and  N_57
REMARK    7  A    between atoms: C_6  and  C_7
REMARK    8  A    between atoms: C_7  and  N_8
REMARK    9  A    between atoms: C_9  and  C_31
REMARK   10  A    between atoms: C_15  and  C_23
REMARK   11  A    between atoms: C_17  and  C_21
REMARK   12  A    between atoms: C_18  and  N_20
REMARK                            x       y       z     vdW  Elec       q    Type
REMARK                         _______ _______ _______ _____ _____    ______ ____
ROOT
ATOM      1  N   UNL     1      -0.565   4.257  -0.375  0.00  0.00    -0.312 N 
ATOM      2  C   UNL     1      -0.308   2.938  -0.172  0.00  0.00    +0.022 A 
ATOM      3  C   UNL     1       0.947   2.452  -0.278  0.00  0.00    +0.068 A 
ATOM      4  C   UNL     1       2.008   3.318  -0.616  0.00  0.00    +0.141 A 
ATOM      5  C   UNL     1       1.738   4.654  -0.825  0.00  0.00    +0.072 A 
ATOM      6  C   UNL     1       0.421   5.114  -0.698  0.00  0.00    +0.259 A 
ATOM      7  O   UNL     1       0.168   6.295  -0.880  0.00  0.00    -0.267 OA
ATOM      8  C   UNL     1       2.839   5.612  -1.188  0.00  0.00    +0.105 C 
ATOM      9  C   UNL     1       4.179   5.002  -0.883  0.00  0.00    +0.098 C 
ATOM     10  C   UNL     1       4.313   3.671  -0.674  0.00  0.00    +0.199 C 
ATOM     11  O   UNL     1       3.263   2.833  -0.729  0.00  0.00    -0.441 OA
ATOM     12  C   UNL     1      -1.438   2.007   0.182  0.00  0.00    +0.064 C 
ENDROOT
BRANCH   8  13
ATOM     13  C   UNL     1       2.759   5.931  -2.659  0.00  0.00    -0.015 A 
ATOM     14  C   UNL     1       2.880   4.919  -3.593  0.00  0.00    +0.006 A 
ATOM     15  C   UNL     1       2.801   5.210  -4.942  0.00  0.00    +0.002 A 
ATOM     16  C   UNL     1       2.612   6.514  -5.359  0.00  0.00    +0.021 A 
ATOM     17  C   UNL     1       2.496   7.529  -4.426  0.00  0.00    +0.060 A 
ATOM     18  C   UNL     1       2.570   7.237  -3.075  0.00  0.00    +0.063 A 
ATOM     19 CL   UNL     1       2.424   8.509  -1.902  0.00  0.00    -0.082 Cl
ATOM     20 CL   UNL     1       2.259   9.167  -4.949  0.00  0.00    -0.082 Cl
ENDBRANCH   8  13
BRANCH  10  21
ATOM     21  N   UNL     1       5.558   3.163  -0.399  0.00  0.00    -0.328 N 
ATOM     22  H   UNL     1       6.325   3.755  -0.356  0.00  0.00    +0.145 HD
ATOM     23  H   UNL     1       5.670   2.211  -0.247  0.00  0.00    +0.145 HD
ENDBRANCH  10  21
BRANCH   9  24
ATOM     24  C   UNL     1       5.334   5.845  -0.812  0.00  0.00    +0.101 C 
ATOM     25  N   UNL     1       6.251   6.513  -0.756  0.00  0.00    -0.191 NA
ENDBRANCH   9  24
BRANCH   1  26
ATOM     26  C   UNL     1      -1.937   4.752  -0.246  0.00  0.00    +0.123 C 
BRANCH  26  27
ATOM     27  C   UNL     1      -2.643   4.659  -1.600  0.00  0.00    +0.003 C 
BRANCH  27  28
ATOM     28  C   UNL     1      -4.076   5.177  -1.465  0.00  0.00    -0.077 C 
BRANCH  28  29
ATOM     29  N   UNL     1      -4.737   5.101  -2.785  0.00  0.00    +0.379 N 
ATOM     30  H   UNL     1      -4.142   5.563  -3.483  0.00  0.00    -0.082 HD
BRANCH  29  32
ATOM     31  C   UNL     1      -5.787   2.956  -2.144  0.00  0.00    -0.017 C 
ATOM     32  C   UNL     1      -4.924   3.687  -3.175  0.00  0.00    -0.082 C 
ENDBRANCH  29  32
BRANCH  29  33
ATOM     33  C   UNL     1      -6.044   5.789  -2.736  0.00  0.00    -0.082 C 
ATOM     34  C   UNL     1      -6.533   6.017  -4.168  0.00  0.00    -0.017 C 
ENDBRANCH  29  33
ENDBRANCH  28  29
ENDBRANCH  27  28
ENDBRANCH  26  27
ENDBRANCH   1  26
TORSDOF 9
