REMARK  Name = ZINC35427188
REMARK  5 active torsions:
REMARK  status: ('A' for Active; 'I' for Inactive)
REMARK    1  A    between atoms: C_1  and  N_2
REMARK    2  A    between atoms: C_16  and  C_31
REMARK    3  A    between atoms: N_22  and  C_23
REMARK    4  A    between atoms: C_34  and  O_37
REMARK    5  A    between atoms: O_37  and  C_38
REMARK                            x       y       z     vdW  Elec       q    Type
REMARK                         _______ _______ _______ _____ _____    ______ ____
ROOT
ATOM      1  C   UNL     1       0.933   0.987  -1.500  0.00  0.00    -0.096 C 
ATOM      2  N   UNL     1       0.670  -0.425  -1.194  0.00  0.00    +0.381 N 
ATOM      3  C   UNL     1      -0.701  -0.767  -1.595  0.00  0.00    -0.074 C 
ATOM      4  C   UNL     1      -0.897  -2.285  -1.585  0.00  0.00    +0.018 C 
ATOM      5  C   UNL     1      -0.456  -2.808  -0.220  0.00  0.00    -0.034 A 
ATOM      6  C   UNL     1      -0.819  -4.077   0.269  0.00  0.00    +0.004 A 
ATOM      7  C   UNL     1      -0.346  -4.416   1.500  0.00  0.00    +0.090 A 
ATOM      8  S   UNL     1       0.580  -3.006   2.024  0.00  0.00    -0.077 S 
ATOM      9  C   UNL     1       0.323  -2.022   0.572  0.00  0.00    -0.021 A 
ATOM     10  C   UNL     1       0.827  -0.653   0.256  0.00  0.00    -0.036 C 
ATOM     11  N   UNL     1      -0.583  -5.639   2.115  0.00  0.00    -0.312 N 
ATOM     12  C   UNL     1      -0.954  -5.948   3.379  0.00  0.00    +0.092 A 
ATOM     13  C   UNL     1      -1.118  -7.289   3.451  0.00  0.00    +0.020 A 
ATOM     14  C   UNL     1      -0.816  -7.823   2.179  0.00  0.00    +0.025 A 
ATOM     15  C   UNL     1      -0.468  -6.800   1.386  0.00  0.00    +0.049 A 
ATOM     16  C   UNL     1       0.018  -6.816  -0.033  0.00  0.00    +0.155 C 
ATOM     17  N   UNL     1      -0.977  -6.231  -0.963  0.00  0.00    -0.268 N 
ATOM     18  C   UNL     1      -1.703  -5.037  -0.495  0.00  0.00    +0.148 C 
ATOM     19  C   UNL     1      -1.207  -6.766  -2.179  0.00  0.00    +0.308 C 
ATOM     20  O   UNL     1      -0.591  -7.752  -2.536  0.00  0.00    -0.252 OA
ATOM     21  N   UNL     1      -2.119  -6.208  -2.999  0.00  0.00    -0.267 N 
ATOM     22  H   UNL     1      -2.552  -5.377  -2.749  0.00  0.00    +0.156 HD
ATOM     23  H   UNL     1       1.323  -1.006  -1.698  0.00  0.00    -0.082 HD
ENDROOT
BRANCH  21  24
ATOM     24  C   UNL     1      -2.442  -6.829  -4.214  0.00  0.00    +0.070 A 
ATOM     25  C   UNL     1      -2.158  -8.174  -4.404  0.00  0.00    +0.029 A 
ATOM     26  C   UNL     1      -2.477  -8.784  -5.602  0.00  0.00    +0.040 A 
ATOM     27  C   UNL     1      -3.080  -8.056  -6.614  0.00  0.00    +0.126 A 
ATOM     28  C   UNL     1      -3.364  -6.713  -6.428  0.00  0.00    +0.078 A 
ATOM     29  C   UNL     1      -3.052  -6.100  -5.228  0.00  0.00    +0.147 A 
ATOM     30  F   UNL     1      -3.335  -4.791  -5.044  0.00  0.00    -0.203 F 
ATOM     31  F   UNL     1      -3.390  -8.655  -7.784  0.00  0.00    -0.205 F 
ENDBRANCH  21  24
BRANCH  16  32
ATOM     32  C   UNL     1       1.297  -6.024  -0.123  0.00  0.00    -0.021 A 
ATOM     33  C   UNL     1       2.221  -6.086   0.904  0.00  0.00    +0.009 A 
ATOM     34  C   UNL     1       3.394  -5.360   0.824  0.00  0.00    +0.046 A 
ATOM     35  C   UNL     1       3.644  -4.569  -0.288  0.00  0.00    +0.120 A 
ATOM     36  C   UNL     1       2.715  -4.509  -1.317  0.00  0.00    +0.046 A 
ATOM     37  C   UNL     1       1.546  -5.241  -1.234  0.00  0.00    +0.009 A 
BRANCH  35  38
ATOM     38  O   UNL     1       4.797  -3.854  -0.369  0.00  0.00    -0.495 OA
ATOM     39  C   UNL     1       4.987  -3.062  -1.542  0.00  0.00    +0.277 C 
ENDBRANCH  35  38
ENDBRANCH  16  32
TORSDOF 3
