REMARK  Name = ZINC35368372
REMARK  4 active torsions:
REMARK  status: ('A' for Active; 'I' for Inactive)
REMARK    1  A    between atoms: C_6  and  C_7
REMARK    2  A    between atoms: C_7  and  N_8
REMARK    3  A    between atoms: N_11  and  C_14
REMARK    4  A    between atoms: C_19  and  N_20
REMARK                            x       y       z     vdW  Elec       q    Type
REMARK                         _______ _______ _______ _____ _____    ______ ____
ROOT
ATOM      1  N   UNL     1      -1.727  -1.018  -1.372  0.00  0.00    -0.295 NA
ATOM      2  C   UNL     1      -2.066   0.242  -2.046  0.00  0.00    +0.103 C 
ATOM      3  C   UNL     1      -2.337  -0.033  -3.529  0.00  0.00    +0.120 C 
ATOM      4  N   UNL     1      -3.358  -1.087  -3.630  0.00  0.00    -0.326 N 
ATOM      5  C   UNL     1      -3.154  -2.329  -2.869  0.00  0.00    +0.120 C 
ATOM      6  C   UNL     1      -2.850  -1.964  -1.412  0.00  0.00    +0.103 C 
ENDROOT
BRANCH   4   7
ATOM      7  C   UNL     1      -4.491  -0.913  -4.426  0.00  0.00    +0.053 A 
ATOM      8  C   UNL     1      -4.492  -1.304  -5.762  0.00  0.00    +0.042 A 
ATOM      9  C   UNL     1      -5.633  -1.116  -6.516  0.00  0.00    +0.084 A 
ATOM     10  N   UNL     1      -6.714  -0.574  -5.989  0.00  0.00    -0.365 N 
ATOM     11  C   UNL     1      -6.758  -0.188  -4.727  0.00  0.00    +0.107 A 
ATOM     12  C   UNL     1      -5.658  -0.347  -3.900  0.00  0.00    +0.062 A 
ATOM     13  H   UNL     1      -7.500  -0.455  -6.545  0.00  0.00    +0.165 HD
BRANCH  12  14
ATOM     14  N   UNL     1      -5.712   0.058  -2.560  0.00  0.00    -0.355 N 
ATOM     15  H   UNL     1      -4.936  -0.054  -1.989  0.00  0.00    +0.142 HD
ATOM     16  H   UNL     1      -6.525   0.449  -2.204  0.00  0.00    +0.142 HD
ENDBRANCH  12  14
ENDBRANCH   4   7
BRANCH   1  17
ATOM     17  C   UNL     1      -1.293  -0.775   0.010  0.00  0.00    +0.119 C 
BRANCH  17  23
ATOM     18  C   UNL     1      -0.017   1.378   0.010  0.00  0.00    +0.006 A 
ATOM     19  C   UNL     1       1.171   2.086   0.002  0.00  0.00    +0.015 A 
ATOM     20  C   UNL     1       2.378   1.411  -0.013  0.00  0.00    +0.018 A 
ATOM     21  C   UNL     1       2.396   0.027  -0.021  0.00  0.00    +0.015 A 
ATOM     22  C   UNL     1       1.208  -0.679  -0.013  0.00  0.00    +0.006 A 
ATOM     23  C   UNL     1       0.002  -0.004   0.002  0.00  0.00    -0.033 A 
ATOM     24 BR   UNL     1       4.003   2.378  -0.024  0.00  0.00    -0.050 Br
ENDBRANCH  17  23
ENDBRANCH   1  17
TORSDOF 4
