REMARK  Name = ZINC39912311
REMARK  10 active torsions:
REMARK  status: ('A' for Active; 'I' for Inactive)
REMARK    1  A    between atoms: C_1  and  C_2
REMARK    2  A    between atoms: C_2  and  O_3
REMARK    3  A    between atoms: O_3  and  C_4
REMARK    4  A    between atoms: C_8  and  C_10
REMARK    5  A    between atoms: C_13  and  C_28
REMARK    6  A    between atoms: N_20  and  C_21
REMARK    7  A    between atoms: C_21  and  C_22
REMARK    8  A    between atoms: C_30  and  C_36
REMARK    9  A    between atoms: C_32  and  C_35
REMARK   10  A    between atoms: C_33  and  O_34
REMARK                            x       y       z     vdW  Elec       q    Type
REMARK                         _______ _______ _______ _____ _____    ______ ____
ROOT
ATOM      1  C   UNL     1       2.139  -4.356  -3.336  0.00  0.00    +0.142 C 
ATOM      2  C   UNL     1       3.620  -4.617  -3.288  0.00  0.00    +0.035 A 
ATOM      3  C   UNL     1       4.902  -4.098  -3.078  0.00  0.00    +0.102 A 
ATOM      4  N   UNL     1       5.759  -5.088  -3.240  0.00  0.00    -0.173 NA
ATOM      5  N   UNL     1       5.144  -6.179  -3.531  0.00  0.00    -0.272 N 
ATOM      6  H   UNL     1       5.573  -7.034  -3.693  0.00  0.00    +0.189 HD
ATOM      7  C   UNL     1       3.797  -5.956  -3.578  0.00  0.00    +0.126 A 
ATOM      8  C   UNL     1       2.482  -6.561  -3.810  0.00  0.00    +0.266 C 
ATOM      9  O   UNL     1       2.295  -7.731  -4.088  0.00  0.00    -0.268 OA
ATOM     10  N   UNL     1       1.510  -5.639  -3.673  0.00  0.00    -0.281 N 
ENDROOT
BRANCH   3  11
ATOM     11  C   UNL     1       5.237  -2.694  -2.736  0.00  0.00    +0.044 A 
ATOM     12  C   UNL     1       4.240  -1.722  -2.715  0.00  0.00    +0.017 A 
ATOM     13  C   UNL     1       4.556  -0.417  -2.397  0.00  0.00    -0.049 A 
ATOM     14  C   UNL     1       5.862  -0.069  -2.099  0.00  0.00    +0.010 A 
ATOM     15  C   UNL     1       6.859  -1.026  -2.118  0.00  0.00    -0.008 A 
ATOM     16  C   UNL     1       6.554  -2.341  -2.430  0.00  0.00    +0.129 A 
ATOM     17  C   UNL     1       8.279  -0.639  -1.793  0.00  0.00    +0.047 C 
ATOM     18  C   UNL     1       3.475   0.633  -2.374  0.00  0.00    +0.044 C 
BRANCH  16  19
ATOM     19  O   UNL     1       7.533  -3.283  -2.443  0.00  0.00    -0.506 OA
ATOM     20  H   UNL     1       7.969  -3.385  -3.300  0.00  0.00    +0.292 HD
ENDBRANCH  16  19
ENDBRANCH   3  11
BRANCH   1  25
ATOM     21  C   UNL     1       0.778  -2.131  -0.602  0.00  0.00    +0.121 A 
ATOM     22  C   UNL     1       0.762  -3.002   0.478  0.00  0.00    +0.045 A 
ATOM     23  C   UNL     1       1.190  -4.305   0.319  0.00  0.00    +0.004 A 
ATOM     24  C   UNL     1       1.635  -4.742  -0.915  0.00  0.00    +0.006 A 
ATOM     25  C   UNL     1       1.653  -3.876  -1.993  0.00  0.00    -0.019 A 
ATOM     26  C   UNL     1       1.220  -2.573  -1.840  0.00  0.00    +0.051 A 
BRANCH  21  27
ATOM     27  O   UNL     1       0.357  -0.848  -0.448  0.00  0.00    -0.492 OA
BRANCH  27  29
ATOM     28  C   UNL     1      -0.517   1.006   0.833  0.00  0.00    +0.048 C 
ATOM     29  C   UNL     1      -0.085  -0.462   0.855  0.00  0.00    +0.225 C 
ENDBRANCH  27  29
ENDBRANCH  21  27
ENDBRANCH   1  25
BRANCH  10  30
ATOM     30  C   UNL     1       0.072  -5.875  -3.830  0.00  0.00    +0.144 C 
BRANCH  30  31
ATOM     31  C   UNL     1      -0.320  -5.643  -5.267  0.00  0.00    -0.030 A 
ATOM     32  C   UNL     1      -0.711  -4.383  -5.681  0.00  0.00    +0.005 A 
ATOM     33  C   UNL     1      -1.071  -4.170  -6.999  0.00  0.00    +0.000 A 
ATOM     34  C   UNL     1      -1.040  -5.216  -7.902  0.00  0.00    +0.000 A 
ATOM     35  C   UNL     1      -0.648  -6.476  -7.487  0.00  0.00    +0.000 A 
ATOM     36  C   UNL     1      -0.284  -6.688  -6.171  0.00  0.00    +0.005 A 
ENDBRANCH  30  31
ENDBRANCH  10  30
TORSDOF 7
