REMARK  Name = ZINC06584042
REMARK  5 active torsions:
REMARK  status: ('A' for Active; 'I' for Inactive)
REMARK    1  A    between atoms: C_14  and  C_15
REMARK    2  A    between atoms: N_16  and  N_17
REMARK    3  A    between atoms: N_17  and  C_18
REMARK    4  A    between atoms: C_18  and  N_20
REMARK    5  A    between atoms: N_20  and  C_21
REMARK                            x       y       z     vdW  Elec       q    Type
REMARK                         _______ _______ _______ _____ _____    ______ ____
ROOT
ATOM      1  C   UNL     1       4.946   0.201  -0.034  0.00  0.00    +0.139 C 
ATOM      2  N   UNL     1       6.103  -0.390   0.044  0.00  0.00    -0.188 NA
ENDROOT
BRANCH   1  16
ATOM      3  C   UNL     1       3.920  -4.749  -0.742  0.00  0.00    +0.001 A 
ATOM      4  C   UNL     1       5.083  -3.996  -0.597  0.00  0.00    +0.001 A 
ATOM      5  C   UNL     1       5.043  -2.649  -0.416  0.00  0.00    +0.009 A 
ATOM      6  C   UNL     1       3.802  -1.990  -0.373  0.00  0.00    -0.009 A 
ATOM      7  C   UNL     1       2.578  -2.779  -0.526  0.00  0.00    -0.017 A 
ATOM      8  C   UNL     1       2.689  -4.174  -0.710  0.00  0.00    +0.008 A 
ATOM      9  C   UNL     1       1.329  -2.157  -0.488  0.00  0.00    +0.017 A 
ATOM     10  C   UNL     1       1.244  -0.776  -0.304  0.00  0.00    -0.017 A 
ATOM     11  C   UNL     1      -0.008  -0.125  -0.262  0.00  0.00    +0.008 A 
ATOM     12  C   UNL     1      -0.057   1.220  -0.081  0.00  0.00    +0.001 A 
ATOM     13  C   UNL     1       1.102   1.982   0.066  0.00  0.00    +0.001 A 
ATOM     14  C   UNL     1       2.337   1.414   0.034  0.00  0.00    +0.009 A 
ATOM     15  C   UNL     1       2.459   0.026  -0.150  0.00  0.00    -0.009 A 
ATOM     16  C   UNL     1       3.725  -0.595  -0.187  0.00  0.00    +0.010 A 
ENDBRANCH   1  16
BRANCH   2  17
ATOM     17  N   UNL     1       7.270   0.371   0.190  0.00  0.00    -0.218 N 
ATOM     18  H   UNL     1       7.216   1.339   0.234  0.00  0.00    +0.176 HD
BRANCH  17  19
ATOM     19  C   UNL     1       8.468  -0.241   0.270  0.00  0.00    +0.150 C 
ATOM     20  S   UNL     1       9.894   0.689   0.449  0.00  0.00    -0.017 S 
BRANCH  19  21
ATOM     21  N   UNL     1       8.543  -1.585   0.210  0.00  0.00    -0.320 N 
ATOM     22  H   UNL     1       7.746  -2.108   0.031  0.00  0.00    +0.148 HD
BRANCH  21  23
ATOM     23  C   UNL     1       9.829  -2.257   0.414  0.00  0.00    +0.034 C 
ATOM     24  C   UNL     1       9.627  -3.772   0.359  0.00  0.00    +0.029 C 
ATOM     25  C   UNL     1      10.970  -4.474   0.572  0.00  0.00    -0.008 C 
ATOM     26  C   UNL     1      11.539  -4.083   1.938  0.00  0.00    +0.007 C 
ATOM     27  C   UNL     1      11.741  -2.568   1.992  0.00  0.00    -0.008 C 
ATOM     28  C   UNL     1      10.398  -1.867   1.780  0.00  0.00    +0.029 C 
ATOM     29  C   UNL     1      12.717  -2.144   0.893  0.00  0.00    +0.007 C 
ATOM     30  C   UNL     1      12.149  -2.534  -0.472  0.00  0.00    -0.008 C 
ATOM     31  C   UNL     1      11.947  -4.050  -0.527  0.00  0.00    +0.007 C 
ATOM     32  C   UNL     1      10.806  -1.833  -0.685  0.00  0.00    +0.029 C 
ENDBRANCH  21  23
ENDBRANCH  19  21
ENDBRANCH  17  19
ENDBRANCH   2  17
TORSDOF 5
