REMARK  Name = ZINC04578058
REMARK  7 active torsions:
REMARK  status: ('A' for Active; 'I' for Inactive)
REMARK    1  A    between atoms: C_1  and  C_2
REMARK    2  A    between atoms: C_2  and  O_3
REMARK    3  A    between atoms: O_3  and  C_4
REMARK    4  A    between atoms: C_13  and  C_14
REMARK    5  A    between atoms: N_15  and  N_16
REMARK    6  A    between atoms: C_17  and  C_19
REMARK    7  A    between atoms: C_21  and  C_27
REMARK                            x       y       z     vdW  Elec       q    Type
REMARK                         _______ _______ _______ _____ _____    ______ ____
ROOT
ATOM      1  N   UNL     1      -2.640  -0.067   2.807  0.00  0.00    -0.206 N 
ATOM      2  C   UNL     1      -1.937   0.234   1.698  0.00  0.00    +0.245 C 
ATOM      3  O   UNL     1      -2.185   1.246   1.077  0.00  0.00    -0.273 OA
ATOM      4  H   UNL     1      -2.442  -0.876   3.303  0.00  0.00    +0.177 HD
ENDROOT
BRANCH   2   5
ATOM      5  C   UNL     1      -0.841  -0.688   1.228  0.00  0.00    +0.171 C 
ATOM      6  C   UNL     1       0.511  -0.290   1.864  0.00  0.00    +0.057 C 
ATOM      7  C   UNL     1       1.109   0.635   0.781  0.00  0.00    +0.113 C 
ATOM      8  N   UNL     1       0.487   0.215  -0.480  0.00  0.00    -0.314 N 
ATOM      9  C   UNL     1      -0.613  -0.525  -0.259  0.00  0.00    +0.226 C 
ATOM     10  O   UNL     1      -1.320  -0.994  -1.125  0.00  0.00    -0.275 OA
ATOM     11  H   UNL     1       0.827   0.441  -1.360  0.00  0.00    +0.149 HD
BRANCH   6  12
ATOM     12  C   UNL     1       0.300   0.457   3.156  0.00  0.00    -0.042 A 
ATOM     13  C   UNL     1      -0.171   1.757   3.133  0.00  0.00    +0.004 A 
ATOM     14  C   UNL     1      -0.369   2.441   4.318  0.00  0.00    +0.000 A 
ATOM     15  C   UNL     1      -0.087   1.829   5.525  0.00  0.00    +0.000 A 
ATOM     16  C   UNL     1       0.389   0.531   5.547  0.00  0.00    +0.000 A 
ATOM     17  C   UNL     1       0.583  -0.154   4.363  0.00  0.00    +0.004 A 
ENDBRANCH   6  12
ENDBRANCH   2   5
BRANCH   1  19
ATOM     18  C   UNL     1      -4.338   0.500   4.313  0.00  0.00    +0.142 C 
ATOM     19  N   UNL     1      -3.659   0.790   3.244  0.00  0.00    -0.188 NA
BRANCH  18  29
ATOM     20  C   UNL     1      -5.705   2.567   4.070  0.00  0.00    +0.130 A 
ATOM     21  C   UNL     1      -6.720   3.416   4.510  0.00  0.00    +0.047 A 
ATOM     22  C   UNL     1      -7.450   3.142   5.623  0.00  0.00    +0.012 A 
ATOM     23  C   UNL     1      -7.202   1.981   6.378  0.00  0.00    -0.017 A 
ATOM     24  C   UNL     1      -7.951   1.688   7.530  0.00  0.00    +0.008 A 
ATOM     25  C   UNL     1      -7.692   0.548   8.229  0.00  0.00    +0.001 A 
ATOM     26  C   UNL     1      -6.688  -0.328   7.827  0.00  0.00    +0.001 A 
ATOM     27  C   UNL     1      -5.940  -0.073   6.716  0.00  0.00    +0.009 A 
ATOM     28  C   UNL     1      -6.184   1.086   5.969  0.00  0.00    -0.006 A 
ATOM     29  C   UNL     1      -5.407   1.399   4.771  0.00  0.00    +0.044 A 
BRANCH  20  30
ATOM     30  O   UNL     1      -5.002   2.880   2.951  0.00  0.00    -0.492 OA
BRANCH  30  32
ATOM     31  C   UNL     1      -4.464   4.273   1.051  0.00  0.00    +0.048 C 
ATOM     32  C   UNL     1      -5.357   4.090   2.279  0.00  0.00    +0.226 C 
ENDBRANCH  30  32
ENDBRANCH  20  30
ENDBRANCH  18  29
ENDBRANCH   1  19
TORSDOF 6
