REMARK  Name = ZINC05862361
REMARK  6 active torsions:
REMARK  status: ('A' for Active; 'I' for Inactive)
REMARK    1  A    between atoms: C_1  and  C_2
REMARK    2  A    between atoms: C_5  and  C_8
REMARK    3  A    between atoms: C_11  and  S_13
REMARK    4  A    between atoms: S_13  and  C_14
REMARK    5  A    between atoms: C_14  and  C_15
REMARK    6  A    between atoms: C_19  and  C_24
REMARK                            x       y       z     vdW  Elec       q    Type
REMARK                         _______ _______ _______ _____ _____    ______ ____
ROOT
ATOM      1  C   UNL     1      -0.594  -2.079  -0.003  0.00  0.00    +0.249 A 
ATOM      2  N   UNL     1       0.715  -2.003  -0.015  0.00  0.00    -0.106 NA
ATOM      3  N   UNL     1       1.071  -0.767  -0.018  0.00  0.00    -0.101 NA
ATOM      4  C   UNL     1       0.002  -0.004   0.002  0.00  0.00    +0.278 A 
ATOM      5  O   UNL     1      -1.073  -0.816   0.008  0.00  0.00    -0.411 OA
ENDROOT
BRANCH   1  10
ATOM      6  C   UNL     1      -3.723  -6.908   0.005  0.00  0.00    +0.044 C 
ATOM      7  C   UNL     1      -2.903  -5.643   0.002  0.00  0.00    -0.050 A 
ATOM      8  C   UNL     1      -1.522  -5.718  -0.013  0.00  0.00    +0.004 A 
ATOM      9  C   UNL     1      -0.766  -4.564  -0.015  0.00  0.00    +0.013 A 
ATOM     10  C   UNL     1      -1.397  -3.319  -0.002  0.00  0.00    +0.039 A 
ATOM     11  C   UNL     1      -2.792  -3.251   0.018  0.00  0.00    +0.013 A 
ATOM     12  C   UNL     1      -3.536  -4.413   0.015  0.00  0.00    +0.004 A 
ENDBRANCH   1  10
BRANCH   4  13
ATOM     13  S   UNL     1      -0.022   1.758   0.012  0.00  0.00    -0.059 S 
BRANCH  13  14
ATOM     14  C   UNL     1       1.756   2.096  -0.004  0.00  0.00    +0.136 C 
BRANCH  14  15
ATOM     15  C   UNL     1       1.984   3.586   0.002  0.00  0.00    +0.070 A 
ATOM     16  C   UNL     1       2.098   4.370  -1.092  0.00  0.00    +0.116 A 
ATOM     17  N   UNL     1       2.294   5.651  -0.652  0.00  0.00    -0.306 N 
ATOM     18  C   UNL     1       2.469   6.835  -1.308  0.00  0.00    +0.096 A 
ATOM     19  C   UNL     1       2.653   7.981  -0.619  0.00  0.00    -0.034 A 
ATOM     20  C   UNL     1       2.665   7.970   0.785  0.00  0.00    +0.008 A 
ATOM     21  C   UNL     1       2.492   6.796   1.451  0.00  0.00    +0.047 A 
ATOM     22  C   UNL     1       2.302   5.608   0.718  0.00  0.00    +0.138 A 
ATOM     23  N   UNL     1       2.112   4.350   1.090  0.00  0.00    -0.232 NA
ATOM     24  C   UNL     1       2.844   9.279  -1.361  0.00  0.00    +0.045 C 
ENDBRANCH  14  15
ENDBRANCH  13  14
ENDBRANCH   4  13
TORSDOF 4
