REMARK  Name = ZINC55752667
REMARK  7 active torsions:
REMARK  status: ('A' for Active; 'I' for Inactive)
REMARK    1  A    between atoms: C_1  and  O_2
REMARK    2  A    between atoms: O_2  and  C_3
REMARK    3  A    between atoms: C_8  and  C_9
REMARK    4  A    between atoms: C_9  and  C_11
REMARK    5  A    between atoms: C_9  and  N_24
REMARK    6  A    between atoms: C_11  and  N_12
REMARK    7  A    between atoms: C_13  and  C_15
REMARK                            x       y       z     vdW  Elec       q    Type
REMARK                         _______ _______ _______ _____ _____    ______ ____
ROOT
ATOM      1  C   UNL     1       0.021  -2.832  -0.009  0.00  0.00    -0.017 C 
ENDROOT
BRANCH   1   2
ATOM      2  N   UNL     1      -0.138  -4.189   0.531  0.00  0.00    +0.385 N 
ATOM      3  C   UNL     1      -0.768  -4.116   1.855  0.00  0.00    -0.078 C 
ATOM      4  C   UNL     1      -1.010  -5.530   2.388  0.00  0.00    -0.019 C 
ATOM      5  C   UNL     1       0.330  -6.263   2.499  0.00  0.00    -0.004 C 
ATOM      6  C   UNL     1       1.014  -6.268   1.129  0.00  0.00    -0.019 C 
ATOM      7  C   UNL     1       1.180  -4.827   0.642  0.00  0.00    -0.078 C 
ATOM      8  H   UNL     1      -0.722  -4.731  -0.088  0.00  0.00    -0.081 HD
ENDBRANCH   1   2
BRANCH   1  14
ATOM      9  C   UNL     1      -1.474  -0.849  -0.356  0.00  0.00    +0.122 A 
ATOM     10  C   UNL     1      -2.726  -0.294  -0.583  0.00  0.00    +0.046 A 
ATOM     11  C   UNL     1      -3.833  -1.113  -0.696  0.00  0.00    +0.004 A 
ATOM     12  C   UNL     1      -3.695  -2.484  -0.585  0.00  0.00    +0.000 A 
ATOM     13  C   UNL     1      -2.449  -3.039  -0.359  0.00  0.00    +0.005 A 
ATOM     14  C   UNL     1      -1.338  -2.226  -0.250  0.00  0.00    -0.018 A 
BRANCH   9  16
ATOM     15  C   UNL     1      -0.599   1.361  -0.364  0.00  0.00    +0.277 C 
ATOM     16  O   UNL     1      -0.384  -0.046  -0.244  0.00  0.00    -0.495 OA
ENDBRANCH   9  16
ENDBRANCH   1  14
BRANCH   1  17
ATOM     17  C   UNL     1       0.791  -2.896  -1.330  0.00  0.00    +0.094 C 
BRANCH  17  18
ATOM     18  N   UNL     1       0.122  -3.827  -2.241  0.00  0.00    -0.313 N 
ATOM     19  C   UNL     1       0.681  -4.126  -3.431  0.00  0.00    +0.245 C 
ATOM     20  O   UNL     1       1.742  -3.622  -3.747  0.00  0.00    -0.270 OA
ATOM     21  H   UNL     1      -0.724  -4.229  -1.989  0.00  0.00    +0.149 HD
BRANCH  19  22
ATOM     22  C   UNL     1       0.007  -5.063  -4.348  0.00  0.00    +0.054 A 
ATOM     23  C   UNL     1      -1.231  -5.648  -3.988  0.00  0.00    +0.040 A 
ATOM     24  C   UNL     1      -1.830  -6.509  -4.853  0.00  0.00    +0.106 A 
ATOM     25  C   UNL     1      -1.210  -6.799  -6.084  0.00  0.00    +0.267 A 
ATOM     26  O   UNL     1      -1.743  -7.570  -6.864  0.00  0.00    -0.266 OA
ATOM     27  N   UNL     1      -0.033  -6.231  -6.406  0.00  0.00    -0.327 N 
ATOM     28  H   UNL     1       0.381  -6.441  -7.257  0.00  0.00    +0.168 HD
ATOM     29  C   UNL     1       0.575  -5.372  -5.567  0.00  0.00    +0.099 A 
ATOM     30 CL   UNL     1      -3.348  -7.246  -4.444  0.00  0.00    -0.078 Cl
ENDBRANCH  19  22
ENDBRANCH  17  18
ENDBRANCH   1  17
TORSDOF 6
