REMARK  Name = ZINC36492636
REMARK  8 active torsions:
REMARK  status: ('A' for Active; 'I' for Inactive)
REMARK    1  A    between atoms: C_4  and  O_36
REMARK    2  A    between atoms: C_5  and  C_7
REMARK    3  A    between atoms: C_7  and  C_9
REMARK    4  A    between atoms: C_7  and  N_18
REMARK    5  A    between atoms: N_11  and  C_12
REMARK    6  A    between atoms: N_18  and  C_19
REMARK    7  A    between atoms: C_25  and  C_27
REMARK    8  A    between atoms: C_30  and  N_33
REMARK                            x       y       z     vdW  Elec       q    Type
REMARK                         _______ _______ _______ _____ _____    ______ ____
ROOT
ATOM      1  C   UNL     1       1.352  -3.160   0.224  0.00  0.00    +0.196 C 
ENDROOT
BRANCH   1   6
ATOM      2  C   UNL     1      -0.873  -3.386   3.266  0.00  0.00    +0.001 A 
ATOM      3  C   UNL     1      -1.729  -2.318   3.066  0.00  0.00    +0.004 A 
ATOM      4  C   UNL     1      -1.590  -1.520   1.947  0.00  0.00    +0.046 A 
ATOM      5  C   UNL     1      -0.591  -1.791   1.023  0.00  0.00    +0.122 A 
ATOM      6  C   UNL     1       0.266  -2.863   1.226  0.00  0.00    +0.023 A 
ATOM      7  C   UNL     1       0.123  -3.658   2.347  0.00  0.00    +0.009 A 
BRANCH   5   8
ATOM      8  O   UNL     1      -0.453  -1.008  -0.079  0.00  0.00    -0.506 OA
ATOM      9  H   UNL     1       0.079  -0.213   0.067  0.00  0.00    +0.292 HD
ENDBRANCH   5   8
ENDBRANCH   1   6
BRANCH   1  10
ATOM     10  C   UNL     1       2.167  -4.335   0.701  0.00  0.00    +0.238 C 
ATOM     11  O   UNL     1       1.965  -5.439   0.241  0.00  0.00    -0.273 OA
ATOM     12  N   UNL     1       3.120  -4.159   1.637  0.00  0.00    -0.311 N 
ATOM     13  H   UNL     1       3.240  -3.289   2.049  0.00  0.00    +0.149 HD
BRANCH  12  14
ATOM     14  C   UNL     1       3.974  -5.281   2.033  0.00  0.00    +0.073 C 
ATOM     15  C   UNL     1       3.270  -6.101   3.115  0.00  0.00    +0.022 C 
ATOM     16  C   UNL     1       4.162  -7.274   3.528  0.00  0.00    +0.002 C 
ATOM     17  C   UNL     1       5.486  -6.738   4.076  0.00  0.00    +0.000 C 
ATOM     18  C   UNL     1       6.191  -5.917   2.994  0.00  0.00    +0.002 C 
ATOM     19  C   UNL     1       5.299  -4.745   2.580  0.00  0.00    +0.022 C 
ENDBRANCH  12  14
ENDBRANCH   1  10
BRANCH   1  20
ATOM     20  N   UNL     1       0.747  -3.478  -1.071  0.00  0.00    -0.279 N 
ATOM     21  C   UNL     1       1.084  -2.767  -2.165  0.00  0.00    +0.248 C 
ATOM     22  O   UNL     1       1.959  -1.926  -2.098  0.00  0.00    -0.270 OA
BRANCH  20  23
ATOM     23  C   UNL     1      -0.224  -4.570  -1.178  0.00  0.00    +0.077 C 
ATOM     24  C   UNL     1      -0.675  -4.990   0.222  0.00  0.00    +0.022 C 
ATOM     25  C   UNL     1      -1.689  -6.131   0.111  0.00  0.00    +0.002 C 
ATOM     26  C   UNL     1      -1.040  -7.323  -0.595  0.00  0.00    +0.000 C 
ATOM     27  C   UNL     1      -0.589  -6.903  -1.996  0.00  0.00    +0.002 C 
ATOM     28  C   UNL     1       0.425  -5.763  -1.884  0.00  0.00    +0.022 C 
ENDBRANCH  20  23
BRANCH  21  29
ATOM     29  C   UNL     1       0.389  -3.009  -3.448  0.00  0.00    +0.037 A 
ATOM     30  C   UNL     1      -0.996  -2.855  -3.534  0.00  0.00    +0.015 A 
ATOM     31  C   UNL     1      -1.639  -3.082  -4.734  0.00  0.00    +0.033 A 
ATOM     32  C   UNL     1      -0.914  -3.462  -5.849  0.00  0.00    +0.126 A 
ATOM     33  C   UNL     1       0.459  -3.616  -5.770  0.00  0.00    +0.033 A 
ATOM     34  C   UNL     1       1.115  -3.387  -4.578  0.00  0.00    +0.015 A 
BRANCH  32  35
ATOM     35  N   UNL     1      -1.610  -3.704  -7.133  0.00  0.00    +0.056 N 
ATOM     36  O   UNL     1      -2.809  -3.570  -7.205  0.00  0.00    -0.126 OA
ATOM     37  O   UNL     1      -0.979  -4.036  -8.109  0.00  0.00    -0.126 OA
ENDBRANCH  32  35
ENDBRANCH  21  29
ENDBRANCH   1  20
TORSDOF 8
