REMARK  Name = ZINC41329686
REMARK  5 active torsions:
REMARK  status: ('A' for Active; 'I' for Inactive)
REMARK    1  A    between atoms: C_4  and  N_7
REMARK    2  A    between atoms: C_10  and  C_12
REMARK    3  A    between atoms: C_12  and  N_13
REMARK    4  A    between atoms: N_16  and  C_17
REMARK    5  A    between atoms: C_17  and  C_18
REMARK                            x       y       z     vdW  Elec       q    Type
REMARK                         _______ _______ _______ _____ _____    ______ ____
ROOT
ATOM      1  N   UNL     1       7.113  -3.872   0.625  0.00  0.00    -0.299 N 
ATOM      2  C   UNL     1       7.821  -4.981   0.333  0.00  0.00    +0.300 C 
ATOM      3  O   UNL     1       7.346  -5.831  -0.397  0.00  0.00    -0.253 OA
ATOM      4  N   UNL     1       9.055  -5.149   0.848  0.00  0.00    -0.295 N 
ATOM      5  H   UNL     1       7.492  -3.194   1.206  0.00  0.00    +0.150 HD
ATOM      6  H   UNL     1       9.433  -4.472   1.430  0.00  0.00    +0.151 HD
ENDROOT
BRANCH   1   7
ATOM      7  C   UNL     1       5.772  -3.690   0.064  0.00  0.00    +0.110 C 
BRANCH   7  11
ATOM      8  N   UNL     1       3.620  -0.649  -0.036  0.00  0.00    -0.330 N 
ATOM      9  C   UNL     1       4.950  -0.023  -0.040  0.00  0.00    +0.105 C 
ATOM     10  C   UNL     1       5.992  -1.161  -0.031  0.00  0.00    +0.025 C 
ATOM     11  C   UNL     1       5.194  -2.359   0.549  0.00  0.00    +0.025 C 
ATOM     12  C   UNL     1       3.787  -2.114  -0.046  0.00  0.00    +0.110 C 
BRANCH   8  16
ATOM     13  C   UNL     1      -0.017   1.379   0.010  0.00  0.00    +0.000 A 
ATOM     14  C   UNL     1       1.169   2.089   0.002  0.00  0.00    +0.002 A 
ATOM     15  C   UNL     1       2.377   1.420  -0.013  0.00  0.00    +0.023 A 
ATOM     16  C   UNL     1       2.400   0.031  -0.021  0.00  0.00    +0.030 A 
ATOM     17  C   UNL     1       1.206  -0.680  -0.013  0.00  0.00    +0.023 A 
ATOM     18  C   UNL     1       0.002  -0.004   0.002  0.00  0.00    +0.002 A 
ENDBRANCH   8  16
ENDBRANCH   7  11
ENDBRANCH   1   7
BRANCH   4  19
ATOM     19  C   UNL     1       9.823  -6.355   0.531  0.00  0.00    +0.148 C 
BRANCH  19  20
ATOM     20  C   UNL     1      11.159  -6.298   1.228  0.00  0.00    +0.008 A 
ATOM     21  C   UNL     1      11.500  -6.755   2.457  0.00  0.00    +0.014 A 
ATOM     22  C   UNL     1      12.801  -6.592   2.896  0.00  0.00    +0.023 A 
ATOM     23  C   UNL     1      13.696  -5.977   2.083  0.00  0.00    +0.055 A 
ATOM     24  S   UNL     1      12.702  -5.616   0.645  0.00  0.00    -0.085 S 
ATOM     25 BR   UNL     1      15.525  -5.607   2.391  0.00  0.00    -0.043 Br
ENDBRANCH  19  20
ENDBRANCH   4  19
TORSDOF 5
