REMARK  Name = ZINC36505252
REMARK  6 active torsions:
REMARK  status: ('A' for Active; 'I' for Inactive)
REMARK    1  A    between atoms: C_1  and  C_2
REMARK    2  A    between atoms: C_6  and  C_8
REMARK    3  A    between atoms: C_8  and  C_10
REMARK    4  A    between atoms: C_8  and  N_20
REMARK    5  A    between atoms: C_16  and  C_18
REMARK    6  A    between atoms: C_25  and  C_27
REMARK                            x       y       z     vdW  Elec       q    Type
REMARK                         _______ _______ _______ _____ _____    ______ ____
ROOT
ATOM      1  C   UNL     1       0.157  -3.584   2.067  0.00  0.00    +0.006 C 
ENDROOT
BRANCH   1   2
ATOM      2  C   UNL     1       1.316  -4.474   2.434  0.00  0.00    +0.050 A 
ATOM      3  C   UNL     1       2.269  -4.284   3.355  0.00  0.00    +0.282 A 
ATOM      4  N   UNL     1       3.255  -5.221   3.546  0.00  0.00    -0.170 N 
ATOM      5  C   UNL     1       3.217  -6.335   2.764  0.00  0.00    +0.199 A 
ATOM      6  S   UNL     1       1.777  -6.063   1.759  0.00  0.00    -0.050 S 
ATOM      7  N   UNL     1       4.215  -7.118   3.067  0.00  0.00    -0.205 NA
ATOM      8  C   UNL     1       4.933  -6.559   4.040  0.00  0.00    +0.150 A 
ATOM      9  N   UNL     1       4.397  -5.414   4.366  0.00  0.00    -0.147 NA
ATOM     10  C   UNL     1       6.167  -7.155   4.667  0.00  0.00    +0.090 C 
ATOM     11  O   UNL     1       2.260  -3.152   4.109  0.00  0.00    -0.265 OA
ENDBRANCH   1   2
BRANCH   1  12
ATOM     12  N   UNL     1      -1.097  -4.341   2.182  0.00  0.00    +0.389 N 
ATOM     13  C   UNL     1      -1.136  -5.025   3.480  0.00  0.00    -0.077 C 
ATOM     14  C   UNL     1      -2.402  -5.880   3.572  0.00  0.00    -0.019 C 
ATOM     15  C   UNL     1      -3.632  -4.979   3.430  0.00  0.00    -0.003 C 
ATOM     16  C   UNL     1      -3.543  -4.214   2.106  0.00  0.00    -0.016 C 
ATOM     17  C   UNL     1      -2.235  -3.421   2.069  0.00  0.00    -0.070 C 
ATOM     18  C   UNL     1      -2.141  -2.655   0.748  0.00  0.00    -0.013 C 
ATOM     19  H   UNL     1      -1.144  -5.026   1.442  0.00  0.00    -0.080 HD
ENDBRANCH   1  12
BRANCH   1  25
ATOM     20  C   UNL     1       1.224   0.087  -1.162  0.00  0.00    +0.044 C 
ATOM     21  C   UNL     1       0.834  -1.344  -0.895  0.00  0.00    -0.050 A 
ATOM     22  C   UNL     1       0.628  -2.213  -1.951  0.00  0.00    +0.003 A 
ATOM     23  C   UNL     1       0.270  -3.525  -1.706  0.00  0.00    +0.000 A 
ATOM     24  C   UNL     1       0.117  -3.969  -0.406  0.00  0.00    +0.002 A 
ATOM     25  C   UNL     1       0.324  -3.100   0.649  0.00  0.00    -0.056 A 
ATOM     26  C   UNL     1       0.686  -1.789   0.405  0.00  0.00    +0.005 A 
ENDBRANCH   1  25
TORSDOF 3
