REMARK  Name = ZINC39943826
REMARK  7 active torsions:
REMARK  status: ('A' for Active; 'I' for Inactive)
REMARK    1  A    between atoms: C_1  and  C_2
REMARK    2  A    between atoms: C_2  and  C_3
REMARK    3  A    between atoms: C_3  and  C_26
REMARK    4  A    between atoms: N_4  and  N_5
REMARK    5  A    between atoms: C_6  and  C_8
REMARK    6  A    between atoms: C_10  and  C_14
REMARK    7  A    between atoms: C_29  and  O_32
REMARK                            x       y       z     vdW  Elec       q    Type
REMARK                         _______ _______ _______ _____ _____    ______ ____
ROOT
ATOM      1  C   UNL     1      -1.351  -0.461  -4.767  0.00  0.00    +0.122 A 
ATOM      2  C   UNL     1      -1.877  -0.637  -6.032  0.00  0.00    +0.062 A 
ATOM      3  C   UNL     1      -0.851  -0.254  -6.917  0.00  0.00    +0.094 A 
ATOM      4  N   UNL     1       0.184   0.115  -6.190  0.00  0.00    -0.173 NA
ATOM      5  N   UNL     1      -0.079   0.010  -4.937  0.00  0.00    -0.272 N 
ATOM      6  H   UNL     1       0.534   0.231  -4.219  0.00  0.00    +0.189 HD
ENDROOT
BRANCH   3   7
ATOM      7  C   UNL     1      -0.922  -0.263  -8.398  0.00  0.00    +0.010 A 
ATOM      8  C   UNL     1      -2.077  -0.670  -9.050  0.00  0.00    +0.011 A 
ATOM      9  C   UNL     1      -2.172  -0.690 -10.440  0.00  0.00    +0.005 A 
ATOM     10  C   UNL     1      -1.117  -0.303 -11.212  0.00  0.00    -0.039 A 
ATOM     11  C   UNL     1       0.050   0.109 -10.576  0.00  0.00    -0.011 A 
ATOM     12  C   UNL     1       0.183   0.149  -9.178  0.00  0.00    -0.008 A 
ATOM     13  C   UNL     1       1.403   0.589  -8.646  0.00  0.00    +0.009 A 
ATOM     14  C   UNL     1       2.399   0.962  -9.502  0.00  0.00    +0.001 A 
ATOM     15  C   UNL     1       2.244   0.920 -10.890  0.00  0.00    +0.004 A 
ATOM     16  C   UNL     1       1.075   0.486 -11.438  0.00  0.00    -0.039 A 
ATOM     17  C   UNL     1       0.566   0.318 -12.848  0.00  0.00    +0.040 C 
ATOM     18  C   UNL     1      -0.880  -0.203 -12.700  0.00  0.00    +0.040 C 
ENDBRANCH   3   7
BRANCH   1  20
ATOM     19  N   UNL     1      -1.386  -0.495  -2.325  0.00  0.00    -0.201 N 
ATOM     20  C   UNL     1      -2.029  -0.722  -3.487  0.00  0.00    +0.281 C 
ATOM     21  O   UNL     1      -3.171  -1.143  -3.479  0.00  0.00    -0.267 OA
ATOM     22  H   UNL     1      -0.476  -0.160  -2.332  0.00  0.00    +0.178 HD
BRANCH  19  24
ATOM     23  C   UNL     1      -1.412  -0.526   0.013  0.00  0.00    +0.066 C 
ATOM     24  N   UNL     1      -2.031  -0.744  -1.107  0.00  0.00    -0.184 NA
BRANCH  23  25
ATOM     25  C   UNL     1      -2.091  -0.788   1.294  0.00  0.00    -0.002 A 
ATOM     26  C   UNL     1      -1.428  -0.548   2.501  0.00  0.00    +0.013 A 
ATOM     27  C   UNL     1      -2.067  -0.794   3.697  0.00  0.00    +0.046 A 
ATOM     28  C   UNL     1      -3.368  -1.281   3.704  0.00  0.00    +0.117 A 
ATOM     29  C   UNL     1      -4.031  -1.521   2.507  0.00  0.00    +0.046 A 
ATOM     30  C   UNL     1      -3.402  -1.271   1.307  0.00  0.00    +0.013 A 
BRANCH  28  31
ATOM     31  O   UNL     1      -3.994  -1.523   4.885  0.00  0.00    -0.507 OA
ATOM     32  H   UNL     1      -4.484  -0.766   5.233  0.00  0.00    +0.292 HD
ENDBRANCH  28  31
ENDBRANCH  23  25
BRANCH  23  34
ATOM     33  C   UNL     1      -0.019   1.526   0.010  0.00  0.00    +0.010 C 
ATOM     34  C   UNL     1       0.002  -0.004   0.002  0.00  0.00    +0.054 C 
ENDBRANCH  23  34
ENDBRANCH  19  24
ENDBRANCH   1  20
TORSDOF 6
