REMARK  Name = ZINC60341883
REMARK  13 active torsions:
REMARK  status: ('A' for Active; 'I' for Inactive)
REMARK    1  A    between atoms: C_1  and  C_2
REMARK    2  A    between atoms: C_2  and  C_3
REMARK    3  A    between atoms: C_3  and  C_4
REMARK    4  A    between atoms: C_4  and  C_6
REMARK    5  A    between atoms: C_4  and  N_21
REMARK    6  A    between atoms: N_8  and  C_9
REMARK    7  A    between atoms: C_9  and  C_10
REMARK    8  A    between atoms: C_10  and  C_11
REMARK    9  A    between atoms: C_10  and  C_12
REMARK   10  A    between atoms: C_10  and  N_13
REMARK   11  A    between atoms: C_17  and  C_20
REMARK   12  A    between atoms: N_24  and  C_25
REMARK   13  A    between atoms: C_25  and  C_26
REMARK                            x       y       z     vdW  Elec       q    Type
REMARK                         _______ _______ _______ _____ _____    ______ ____
ROOT
ATOM      1  C   UNL     1       0.784  -1.546   1.296  0.00  0.00    +0.160 C 
ENDROOT
BRANCH   1   2
ATOM      2  N   UNL     1      -0.614  -1.976   1.386  0.00  0.00    -0.288 N 
ATOM      3  C   UNL     1      -1.397  -1.952   0.290  0.00  0.00    +0.300 C 
ATOM      4  O   UNL     1      -0.945  -1.574  -0.773  0.00  0.00    -0.253 OA
ATOM      5  N   UNL     1      -2.683  -2.347   0.372  0.00  0.00    -0.295 N 
ATOM      6  H   UNL     1      -0.975  -2.278   2.234  0.00  0.00    +0.151 HD
ATOM      7  H   UNL     1      -3.045  -2.649   1.220  0.00  0.00    +0.151 HD
BRANCH   5   8
ATOM      8  C   UNL     1      -3.535  -2.321  -0.819  0.00  0.00    +0.141 C 
BRANCH   8   9
ATOM      9  C   UNL     1      -4.916  -2.808  -0.460  0.00  0.00    -0.030 A 
ATOM     10  C   UNL     1      -5.218  -4.154  -0.549  0.00  0.00    +0.008 A 
ATOM     11  C   UNL     1      -6.484  -4.602  -0.220  0.00  0.00    +0.038 A 
ATOM     12  C   UNL     1      -7.449  -3.702   0.199  0.00  0.00    +0.123 A 
ATOM     13  C   UNL     1      -7.144  -2.354   0.288  0.00  0.00    +0.038 A 
ATOM     14  C   UNL     1      -5.877  -1.909  -0.036  0.00  0.00    +0.008 A 
ATOM     15  F   UNL     1      -8.686  -4.138   0.521  0.00  0.00    -0.205 F 
ENDBRANCH   8   9
ENDBRANCH   5   8
ENDBRANCH   1   2
BRANCH   1  16
ATOM     16  C   UNL     1       1.584  -2.206   2.390  0.00  0.00    +0.233 C 
ATOM     17  O   UNL     1       1.040  -2.961   3.168  0.00  0.00    -0.274 OA
ATOM     18  N   UNL     1       2.903  -1.957   2.504  0.00  0.00    -0.315 N 
ATOM     19  H   UNL     1       3.339  -1.353   1.882  0.00  0.00    +0.149 HD
BRANCH  18  20
ATOM     20  C   UNL     1       3.681  -2.598   3.567  0.00  0.00    +0.092 C 
BRANCH  20  21
ATOM     21  C   UNL     1       5.161  -2.253   3.396  0.00  0.00    -0.055 C 
ATOM     22  C   UNL     1       5.363  -0.752   3.608  0.00  0.00    -0.008 C 
ATOM     23  C   UNL     1       5.988  -3.029   4.423  0.00  0.00    -0.008 C 
BRANCH  21  24
ATOM     24  N   UNL     1       5.596  -2.619   2.041  0.00  0.00    +0.384 N 
ATOM     25  C   UNL     1       5.361  -4.052   1.824  0.00  0.00    -0.078 C 
ATOM     26  C   UNL     1       5.736  -4.421   0.387  0.00  0.00    -0.018 C 
ATOM     27  C   UNL     1       7.216  -4.104   0.154  0.00  0.00    -0.001 C 
ATOM     28  C   UNL     1       7.464  -2.623   0.455  0.00  0.00    -0.031 C 
ATOM     29  C   UNL     1       7.024  -2.319   1.889  0.00  0.00    -0.075 C 
ATOM     30  C   UNL     1       8.954  -2.312   0.300  0.00  0.00    +0.005 C 
ATOM     31  H   UNL     1       5.068  -2.088   1.365  0.00  0.00    -0.081 HD
ENDBRANCH  21  24
ENDBRANCH  20  21
ENDBRANCH  18  20
ENDBRANCH   1  16
BRANCH   1  32
ATOM     32  C   UNL     1       0.862  -0.026   1.453  0.00  0.00    +0.031 C 
BRANCH  32  34
ATOM     33  C   UNL     1       0.233   2.165   0.431  0.00  0.00    +0.004 C 
ATOM     34  C   UNL     1       0.155   0.645   0.274  0.00  0.00    -0.001 C 
ENDBRANCH  32  34
ENDBRANCH   1  32
TORSDOF 9
