REMARK  Name = ZINC24951959
REMARK  6 active torsions:
REMARK  status: ('A' for Active; 'I' for Inactive)
REMARK    1  A    between atoms: C_4  and  C_7
REMARK    2  A    between atoms: C_8  and  C_9
REMARK    3  A    between atoms: C_9  and  N_10
REMARK    4  A    between atoms: N_13  and  C_16
REMARK    5  A    between atoms: C_16  and  C_17
REMARK    6  A    between atoms: C_22  and  C_25
REMARK                            x       y       z     vdW  Elec       q    Type
REMARK                         _______ _______ _______ _____ _____    ______ ____
ROOT
ATOM      1  C   UNL     1       6.427  -5.645   4.561  0.00  0.00    +0.180 C 
ENDROOT
BRANCH   1   2
ATOM      2  C   UNL     1       7.788  -6.291   4.569  0.00  0.00    +0.233 C 
ATOM      3  O   UNL     1       8.595  -6.017   3.706  0.00  0.00    -0.274 OA
ATOM      4  N   UNL     1       8.109  -7.174   5.536  0.00  0.00    -0.264 N 
ATOM      5  C   UNL     1       9.364  -7.770   5.543  0.00  0.00    +0.165 A 
ATOM      6  N   UNL     1       9.864  -8.653   6.388  0.00  0.00    -0.225 NA
ATOM      7  C   UNL     1      11.095  -9.121   6.244  0.00  0.00    +0.083 A 
ATOM      8  C   UNL     1      11.862  -8.683   5.201  0.00  0.00    +0.077 A 
ATOM      9  S   UNL     1      10.727  -7.552   4.408  0.00  0.00    -0.060 S 
ATOM     10  H   UNL     1       7.463  -7.393   6.226  0.00  0.00    +0.157 HD
BRANCH   7  11
ATOM     11  C   UNL     1      11.636 -10.112   7.207  0.00  0.00    +0.039 A 
ATOM     12  C   UNL     1      12.933 -10.598   7.055  0.00  0.00    +0.051 A 
ATOM     13  C   UNL     1      13.431 -11.521   7.955  0.00  0.00    +0.124 A 
ATOM     14  C   UNL     1      12.644 -11.964   9.005  0.00  0.00    +0.041 A 
ATOM     15  C   UNL     1      11.356 -11.485   9.160  0.00  0.00    +0.042 A 
ATOM     16  C   UNL     1      10.849 -10.557   8.270  0.00  0.00    +0.133 A 
ATOM     17  F   UNL     1       9.593 -10.085   8.426  0.00  0.00    -0.205 F 
ATOM     18  F   UNL     1      14.689 -11.993   7.809  0.00  0.00    -0.205 F 
ENDBRANCH   7  11
ENDBRANCH   1   2
BRANCH   1  22
ATOM     19  N   UNL     1       5.087  -3.681   1.066  0.00  0.00    +0.384 N 
ATOM     20  C   UNL     1       5.075  -2.929   2.328  0.00  0.00    -0.063 C 
ATOM     21  C   UNL     1       5.112  -3.907   3.504  0.00  0.00    +0.066 C 
ATOM     22  N   UNL     1       6.326  -4.730   3.416  0.00  0.00    -0.298 NA
ATOM     23  C   UNL     1       6.364  -5.470   2.146  0.00  0.00    +0.066 C 
ATOM     24  C   UNL     1       6.317  -4.479   0.981  0.00  0.00    -0.063 C 
ATOM     25  H   UNL     1       4.286  -4.293   1.032  0.00  0.00    -0.081 HD
BRANCH  19  26
ATOM     26  C   UNL     1       5.033  -2.743  -0.063  0.00  0.00    -0.051 C 
BRANCH  26  28
ATOM     27  C   UNL     1       3.695  -0.685  -0.038  0.00  0.00    +0.002 C 
ATOM     28  C   UNL     1       3.716  -2.010  -0.046  0.00  0.00    -0.045 C 
BRANCH  27  32
ATOM     29  C   UNL     1      -0.017   1.379   0.010  0.00  0.00    +0.000 A 
ATOM     30  C   UNL     1       1.168   2.093   0.002  0.00  0.00    +0.001 A 
ATOM     31  C   UNL     1       2.377   1.429  -0.013  0.00  0.00    +0.008 A 
ATOM     32  C   UNL     1       2.403   0.034  -0.021  0.00  0.00    -0.025 A 
ATOM     33  C   UNL     1       1.204  -0.681  -0.013  0.00  0.00    +0.008 A 
ATOM     34  C   UNL     1       0.002  -0.004   0.002  0.00  0.00    +0.001 A 
ENDBRANCH  27  32
ENDBRANCH  26  28
ENDBRANCH  19  26
ENDBRANCH   1  22
TORSDOF 6
