REMARK  Name = ZINC08781012
REMARK  5 active torsions:
REMARK  status: ('A' for Active; 'I' for Inactive)
REMARK    1  A    between atoms: C_1  and  N_2
REMARK    2  A    between atoms: N_2  and  C_3
REMARK    3  A    between atoms: N_2  and  C_30
REMARK    4  A    between atoms: C_4  and  C_14
REMARK    5  A    between atoms: N_18  and  C_22
REMARK                            x       y       z     vdW  Elec       q    Type
REMARK                         _______ _______ _______ _____ _____    ______ ____
ROOT
ATOM      1  C   UNL     1       1.434  -7.524  -3.014  0.00  0.00    +0.136 A 
ATOM      2  C   UNL     1       1.761  -6.461  -2.140  0.00  0.00    +0.081 A 
ATOM      3  C   UNL     1       2.095  -6.771  -0.800  0.00  0.00    +0.267 A 
ATOM      4  O   UNL     1       2.379  -5.886  -0.011  0.00  0.00    -0.267 OA
ATOM      5  N   UNL     1       2.095  -8.064  -0.410  0.00  0.00    -0.268 N 
ATOM      6  C   UNL     1       2.416  -8.373   0.878  0.00  0.00    +0.096 A 
ATOM      7  C   UNL     1       2.426  -9.657   1.301  0.00  0.00    +0.018 A 
ATOM      8  C   UNL     1       2.104 -10.692   0.412  0.00  0.00    +0.005 A 
ATOM      9  C   UNL     1       1.782 -10.394  -0.879  0.00  0.00    +0.047 A 
ATOM     10  C   UNL     1       1.776  -9.052  -1.300  0.00  0.00    +0.142 A 
ATOM     11  N   UNL     1       1.459  -8.770  -2.564  0.00  0.00    -0.214 NA
ENDROOT
BRANCH   2  12
ATOM     12  C   UNL     1       1.748  -5.120  -2.592  0.00  0.00    +0.037 C 
ATOM     13  C   UNL     1       2.508  -4.755  -3.665  0.00  0.00    +0.077 C 
ATOM     14  C   UNL     1       2.566  -3.508  -4.351  0.00  0.00    +0.259 C 
ATOM     15  O   UNL     1       1.872  -2.569  -4.003  0.00  0.00    -0.269 OA
ATOM     16  N   UNL     1       3.393  -3.399  -5.376  0.00  0.00    -0.251 N 
ATOM     17  C   UNL     1       4.159  -4.443  -5.764  0.00  0.00    +0.121 C 
ATOM     18  S   UNL     1       5.284  -4.529  -7.053  0.00  0.00    -0.027 S 
ATOM     19  S   UNL     1       3.702  -5.710  -4.591  0.00  0.00    -0.061 S 
BRANCH  16  20
ATOM     20  C   UNL     1       3.478  -2.131  -6.104  0.00  0.00    +0.105 C 
ATOM     21  C   UNL     1       4.915  -1.591  -6.024  0.00  0.00    +0.047 C 
ATOM     22  C   UNL     1       5.055  -0.431  -7.051  0.00  0.00    +0.168 C 
ATOM     23  S   UNL     1       4.112  -1.126  -8.474  0.00  0.00    -0.029 S 
ATOM     24  O   UNL     1       3.266  -0.115  -9.004  0.00  0.00    -0.174 OA
ATOM     25  O   UNL     1       5.012  -1.809  -9.335  0.00  0.00    -0.174 OA
ATOM     26  C   UNL     1       3.083  -2.362  -7.582  0.00  0.00    +0.188 C 
ENDBRANCH  16  20
ENDBRANCH   2  12
BRANCH   1  28
ATOM     27  C   UNL     1      -0.165  -6.518  -4.406  0.00  0.00    +0.131 C 
ATOM     28  N   UNL     1       1.096  -7.266  -4.324  0.00  0.00    -0.315 N 
BRANCH  28  29
ATOM     29  C   UNL     1       1.023  -8.509  -5.104  0.00  0.00    +0.075 C 
ATOM     30  C   UNL     1       2.383  -9.210  -5.076  0.00  0.00    +0.022 C 
ATOM     31  C   UNL     1       2.306 -10.504  -5.888  0.00  0.00    +0.002 C 
ATOM     32  C   UNL     1       1.929 -10.178  -7.335  0.00  0.00    +0.000 C 
ATOM     33  C   UNL     1       0.570  -9.477  -7.362  0.00  0.00    +0.002 C 
ATOM     34  C   UNL     1       0.646  -8.182  -6.550  0.00  0.00    +0.022 C 
ENDBRANCH  28  29
ENDBRANCH   1  28
TORSDOF 4
