REMARK  Name = ZINC15878621
REMARK  8 active torsions:
REMARK  status: ('A' for Active; 'I' for Inactive)
REMARK    1  A    between atoms: C_4  and  C_7
REMARK    2  A    between atoms: C_8  and  C_9
REMARK    3  A    between atoms: C_14  and  C_17
REMARK    4  A    between atoms: N_19  and  N_20
REMARK    5  A    between atoms: C_21  and  C_23
REMARK    6  A    between atoms: C_23  and  O_24
REMARK    7  A    between atoms: O_24  and  C_25
REMARK    8  A    between atoms: C_30  and  C_31
REMARK                            x       y       z     vdW  Elec       q    Type
REMARK                         _______ _______ _______ _____ _____    ______ ____
ROOT
ATOM      1  C   UNL     1       6.890   3.571   1.770  0.00  0.00    +0.232 C 
ATOM      2  O   UNL     1       7.437   2.789   2.519  0.00  0.00    -0.274 OA
ATOM      3  N   UNL     1       7.146   4.890   1.869  0.00  0.00    -0.234 N 
ATOM      4  H   UNL     1       6.709   5.515   1.269  0.00  0.00    +0.173 HD
ENDROOT
BRANCH   1  10
ATOM      5  C   UNL     1       2.424   1.051  -0.015  0.00  0.00    +0.239 C 
ATOM      6  O   UNL     1       2.443  -0.163   0.074  0.00  0.00    -0.271 OA
ATOM      7  N   UNL     1       3.578   1.737  -0.124  0.00  0.00    -0.298 N 
ATOM      8  C   UNL     1       3.579   3.207  -0.124  0.00  0.00    +0.109 C 
ATOM      9  C   UNL     1       4.549   3.695   0.962  0.00  0.00    +0.032 C 
ATOM     10  C   UNL     1       5.925   3.066   0.729  0.00  0.00    +0.079 C 
ATOM     11  C   UNL     1       5.815   1.543   0.830  0.00  0.00    +0.032 C 
ATOM     12  C   UNL     1       4.860   1.030  -0.252  0.00  0.00    +0.109 C 
BRANCH   5  14
ATOM     13  C   UNL     1      -0.013   1.075   0.003  0.00  0.00    +0.013 C 
ATOM     14  C   UNL     1       1.145   1.765  -0.005  0.00  0.00    +0.068 C 
BRANCH  13  18
ATOM     15  C   UNL     1      -3.716   3.145   0.018  0.00  0.00    +0.000 A 
ATOM     16  C   UNL     1      -3.700   1.761   0.015  0.00  0.00    +0.001 A 
ATOM     17  C   UNL     1      -2.501   1.081   0.010  0.00  0.00    +0.008 A 
ATOM     18  C   UNL     1      -1.298   1.793   0.008  0.00  0.00    -0.025 A 
ATOM     19  C   UNL     1      -1.321   3.192   0.016  0.00  0.00    +0.008 A 
ATOM     20  C   UNL     1      -2.529   3.857   0.016  0.00  0.00    +0.001 A 
ENDBRANCH  13  18
ENDBRANCH   5  14
ENDBRANCH   1  10
BRANCH   3  21
ATOM     21  N   UNL     1       8.044   5.359   2.837  0.00  0.00    -0.232 N 
ATOM     22  C   UNL     1       8.300   6.679   2.935  0.00  0.00    +0.267 C 
ATOM     23  O   UNL     1       7.753   7.460   2.186  0.00  0.00    -0.271 OA
ATOM     24  H   UNL     1       8.481   4.734   3.436  0.00  0.00    +0.173 HD
BRANCH  22  25
ATOM     25  C   UNL     1       9.265   7.184   3.977  0.00  0.00    +0.326 C 
BRANCH  25  26
ATOM     26  O   UNL     1       9.367   8.606   3.882  0.00  0.00    -0.482 OA
BRANCH  26  27
ATOM     27  C   UNL     1      10.203   9.223   4.757  0.00  0.00    +0.129 A 
ATOM     28  C   UNL     1      10.911   8.478   5.687  0.00  0.00    +0.046 A 
ATOM     29  C   UNL     1      11.761   9.108   6.576  0.00  0.00    +0.004 A 
ATOM     30  C   UNL     1      11.911  10.483   6.543  0.00  0.00    +0.001 A 
ATOM     31  C   UNL     1      11.213  11.237   5.622  0.00  0.00    +0.012 A 
ATOM     32  C   UNL     1      10.357  10.612   4.718  0.00  0.00    +0.024 A 
BRANCH  32  33
ATOM     33  C   UNL     1       9.609  11.418   3.722  0.00  0.00    -0.014 A 
ATOM     34  C   UNL     1       9.631  11.061   2.375  0.00  0.00    +0.008 A 
ATOM     35  C   UNL     1       8.929  11.810   1.454  0.00  0.00    +0.001 A 
ATOM     36  C   UNL     1       8.213  12.921   1.863  0.00  0.00    +0.000 A 
ATOM     37  C   UNL     1       8.191  13.283   3.199  0.00  0.00    +0.001 A 
ATOM     38  C   UNL     1       8.885  12.537   4.129  0.00  0.00    +0.008 A 
ENDBRANCH  32  33
ENDBRANCH  26  27
ENDBRANCH  25  26
ENDBRANCH  22  25
ENDBRANCH   3  21
TORSDOF 8
