REMARK  Name = ZINC08582577
REMARK  14 active torsions:
REMARK  status: ('A' for Active; 'I' for Inactive)
REMARK    1  A    between atoms: C_1  and  C_2
REMARK    2  A    between atoms: C_2  and  C_3
REMARK    3  A    between atoms: C_3  and  C_5
REMARK    4  A    between atoms: C_3  and  N_69
REMARK    5  A    between atoms: N_9  and  C_10
REMARK    6  A    between atoms: C_10  and  C_11
REMARK    7  A    between atoms: C_11  and  C_12
REMARK    8  A    between atoms: C_18  and  C_19
REMARK    9  A    between atoms: C_18  and  N_69
REMARK   10  A    between atoms: C_24  and  C_25
REMARK   11  A    between atoms: C_24  and  N_69
REMARK   12  A    between atoms: C_28  and  C_37
REMARK   13  A    between atoms: C_31  and  C_36
REMARK   14  A    between atoms: C_34  and  O_35
REMARK                            x       y       z     vdW  Elec       q    Type
REMARK                         _______ _______ _______ _____ _____    ______ ____
ROOT
ATOM      1  N   UNL     1      -1.979   3.038   0.482  0.00  0.00    +0.394 N 
ATOM      2  H   UNL     1      -2.221   3.937   0.049  0.00  0.00    -0.080 HD
ENDROOT
BRANCH   1   3
ATOM      3  C   UNL     1      -1.034   3.280   1.592  0.00  0.00    +0.003 C 
BRANCH   3   4
ATOM      4  C   UNL     1      -0.378   1.992   2.017  0.00  0.00    +0.138 A 
ATOM      5  N   UNL     1       0.498   1.296   1.333  0.00  0.00    -0.115 NA
ATOM      6  N   UNL     1       0.820   0.263   2.032  0.00  0.00    -0.023 NA
ATOM      7  N   UNL     1       0.172   0.281   3.144  0.00  0.00    -0.044 NA
ATOM      8  N   UNL     1      -0.573   1.334   3.175  0.00  0.00    -0.231 N 
BRANCH   8   9
ATOM      9  C   UNL     1      -1.466   1.737   4.264  0.00  0.00    +0.152 C 
BRANCH   9  10
ATOM     10  C   UNL     1      -2.852   1.129   4.038  0.00  0.00    +0.058 C 
BRANCH  10  11
ATOM     11  C   UNL     1      -3.771   1.543   5.159  0.00  0.00    -0.046 A 
ATOM     12  C   UNL     1      -3.873   0.761   6.294  0.00  0.00    +0.004 A 
ATOM     13  C   UNL     1      -4.712   1.143   7.324  0.00  0.00    +0.000 A 
ATOM     14  C   UNL     1      -5.456   2.303   7.214  0.00  0.00    +0.000 A 
ATOM     15  C   UNL     1      -5.358   3.083   6.077  0.00  0.00    +0.000 A 
ATOM     16  C   UNL     1      -4.515   2.703   5.050  0.00  0.00    +0.004 A 
ENDBRANCH  10  11
ENDBRANCH   9  10
ENDBRANCH   8   9
ENDBRANCH   3   4
BRANCH   3  18
ATOM     17  C   UNL     1      -0.627   5.582   0.710  0.00  0.00    +0.002 C 
ATOM     18  C   UNL     1       0.037   4.266   1.120  0.00  0.00    -0.011 C 
ENDBRANCH   3  18
ENDBRANCH   1   3
BRANCH   1  19
ATOM     19  C   UNL     1      -3.212   2.406   0.998  0.00  0.00    -0.002 C 
BRANCH  19  20
ATOM     20  C   UNL     1      -4.277   2.483  -0.066  0.00  0.00    +0.089 A 
ATOM     21  C   UNL     1      -4.588   1.509  -0.940  0.00  0.00    +0.042 A 
ATOM     22  C   UNL     1      -5.635   2.004  -1.750  0.00  0.00    +0.041 A 
ATOM     23  C   UNL     1      -5.902   3.251  -1.323  0.00  0.00    +0.195 A 
ATOM     24  O   UNL     1      -5.080   3.534  -0.299  0.00  0.00    -0.470 OA
ENDBRANCH  19  20
ENDBRANCH   1  19
BRANCH   1  25
ATOM     25  C   UNL     1      -1.352   2.167  -0.534  0.00  0.00    -0.036 C 
BRANCH  25  26
ATOM     26  C   UNL     1      -0.453   3.010  -1.402  0.00  0.00    -0.002 A 
ATOM     27  C   UNL     1       0.882   2.739  -1.468  0.00  0.00    +0.017 A 
ATOM     28  C   UNL     1       1.687   3.547  -2.295  0.00  0.00    +0.004 A 
ATOM     29  C   UNL     1       3.067   3.322  -2.414  0.00  0.00    -0.041 A 
ATOM     30  C   UNL     1       3.814   4.128  -3.218  0.00  0.00    +0.004 A 
ATOM     31  C   UNL     1       3.226   5.175  -3.925  0.00  0.00    +0.006 A 
ATOM     32  C   UNL     1       1.891   5.421  -3.833  0.00  0.00    -0.024 A 
ATOM     33  C   UNL     1       1.087   4.611  -3.013  0.00  0.00    +0.078 A 
ATOM     34  N   UNL     1      -0.228   4.831  -2.903  0.00  0.00    -0.213 NA
ATOM     35  C   UNL     1      -0.985   4.076  -2.136  0.00  0.00    +0.214 A 
ATOM     36  C   UNL     1       1.276   6.559  -4.606  0.00  0.00    +0.046 C 
ATOM     37  C   UNL     1       3.719   2.193  -1.657  0.00  0.00    +0.044 C 
BRANCH  35  38
ATOM     38  O   UNL     1      -2.313   4.337  -2.056  0.00  0.00    -0.492 OA
ATOM     39  H   UNL     1      -2.542   5.015  -1.406  0.00  0.00    +0.294 HD
ENDBRANCH  35  38
ENDBRANCH  25  26
ENDBRANCH   1  25
TORSDOF 11
