REMARK  Name = ZINC35622973
REMARK  11 active torsions:
REMARK  status: ('A' for Active; 'I' for Inactive)
REMARK    1  A    between atoms: C_1  and  C_2
REMARK    2  A    between atoms: C_2  and  C_3
REMARK    3  A    between atoms: C_2  and  C_4
REMARK    4  A    between atoms: C_2  and  C_5
REMARK    5  A    between atoms: C_11  and  C_12
REMARK    6  A    between atoms: C_14  and  O_21
REMARK    7  A    between atoms: C_15  and  O_20
REMARK    8  A    between atoms: C_16  and  O_18
REMARK    9  A    between atoms: O_18  and  C_19
REMARK   10  A    between atoms: O_21  and  C_22
REMARK   11  A    between atoms: C_26  and  C_29
REMARK                            x       y       z     vdW  Elec       q    Type
REMARK                         _______ _______ _______ _____ _____    ______ ____
ROOT
ATOM      1  C   UNL     1       0.862  -0.497  -1.176  0.00  0.00    +0.077 C 
ATOM      2  N   UNL     1       1.222   0.252  -2.173  0.00  0.00    -0.174 NA
ATOM      3  N   UNL     1       1.476  -0.506  -3.315  0.00  0.00    -0.137 N 
ATOM      4  C   UNL     1       1.274  -1.815  -3.058  0.00  0.00    +0.274 C 
ATOM      5  O   UNL     1       1.407  -2.744  -3.834  0.00  0.00    -0.268 OA
ATOM      6  C   UNL     1       0.866  -1.891  -1.645  0.00  0.00    +0.063 C 
ATOM      7  C   UNL     1       0.552  -3.026  -0.918  0.00  0.00    +0.023 C 
ATOM      8  C   UNL     1       1.881   0.013  -4.546  0.00  0.00    +0.167 A 
ATOM      9  C   UNL     1       2.062   1.385  -4.689  0.00  0.00    +0.083 A 
ATOM     10  C   UNL     1       2.463   1.887  -5.916  0.00  0.00    +0.037 A 
ATOM     11  C   UNL     1       2.670   0.995  -6.960  0.00  0.00    +0.074 A 
ATOM     12  C   UNL     1       2.471  -0.354  -6.746  0.00  0.00    +0.125 A 
ATOM     13  N   UNL     1       2.094  -0.804  -5.565  0.00  0.00    -0.236 NA
ATOM     14 CL   UNL     1       1.788   2.454  -3.349  0.00  0.00    -0.080 Cl
ENDROOT
BRANCH   7  15
ATOM     15  C   UNL     1       0.768  -4.350  -1.500  0.00  0.00    -0.017 A 
ATOM     16  C   UNL     1       1.906  -4.598  -2.283  0.00  0.00    +0.057 A 
ATOM     17  C   UNL     1       2.105  -5.849  -2.830  0.00  0.00    +0.166 A 
ATOM     18  C   UNL     1       1.179  -6.866  -2.606  0.00  0.00    +0.201 A 
ATOM     19  C   UNL     1       0.047  -6.625  -1.828  0.00  0.00    +0.166 A 
ATOM     20  C   UNL     1      -0.159  -5.379  -1.272  0.00  0.00    +0.057 A 
BRANCH  19  21
ATOM     21  O   UNL     1      -0.853  -7.622  -1.612  0.00  0.00    -0.491 OA
ATOM     22  C   UNL     1      -1.990  -7.306  -0.806  0.00  0.00    +0.277 C 
ENDBRANCH  19  21
BRANCH  18  23
ATOM     23  O   UNL     1       1.379  -8.096  -3.147  0.00  0.00    -0.501 OA
ATOM     24  H   UNL     1       1.882  -8.697  -2.581  0.00  0.00    +0.292 HD
ENDBRANCH  18  23
BRANCH  17  25
ATOM     25  O   UNL     1       3.207  -6.090  -3.590  0.00  0.00    -0.491 OA
ATOM     26  C   UNL     1       4.114  -5.003  -3.780  0.00  0.00    +0.277 C 
ENDBRANCH  17  25
ENDBRANCH   7  15
BRANCH   1  28
ATOM     27  C   UNL     1       0.632   1.498   0.277  0.00  0.00    +0.017 C 
ATOM     28  C   UNL     1       0.510  -0.025   0.211  0.00  0.00    +0.007 C 
ATOM     29  C   UNL     1       1.466  -0.658   1.223  0.00  0.00    +0.017 C 
ATOM     30  C   UNL     1      -0.927  -0.436   0.540  0.00  0.00    +0.017 C 
ENDBRANCH   1  28
BRANCH  11  31
ATOM     31  C   UNL     1       3.107   1.495  -8.313  0.00  0.00    +0.419 C 
ATOM     32  F   UNL     1       4.504   1.521  -8.372  0.00  0.00    -0.166 F 
ATOM     33  F   UNL     1       2.614   0.643  -9.307  0.00  0.00    -0.166 F 
ATOM     34  F   UNL     1       2.607   2.786  -8.516  0.00  0.00    -0.166 F 
ENDBRANCH  11  31
TORSDOF 6
