REMARK  Name = ZINC14882925
REMARK  5 active torsions:
REMARK  status: ('A' for Active; 'I' for Inactive)
REMARK    1  A    between atoms: C_8  and  C_20
REMARK    2  A    between atoms: C_15  and  C_18
REMARK    3  A    between atoms: C_18  and  O_19
REMARK    4  A    between atoms: C_20  and  N_64
REMARK    5  A    between atoms: C_21  and  N_64
REMARK                            x       y       z     vdW  Elec       q    Type
REMARK                         _______ _______ _______ _____ _____    ______ ____
ROOT
ATOM      1  C   UNL     1       7.204   8.105  -1.469  0.00  0.00    +0.013 A 
ATOM      2  C   UNL     1       8.384   7.438  -1.592  0.00  0.00    +0.039 A 
ATOM      3  C   UNL     1       8.470   6.077  -1.294  0.00  0.00    +0.125 A 
ATOM      4  C   UNL     1       7.376   5.381  -0.874  0.00  0.00    +0.066 A 
ATOM      5  C   UNL     1       6.142   6.037  -0.737  0.00  0.00    +0.076 A 
ATOM      6  C   UNL     1       6.058   7.418  -1.040  0.00  0.00    +0.001 A 
ATOM      7  C   UNL     1       4.819   8.077  -0.902  0.00  0.00    +0.015 A 
ATOM      8  C   UNL     1       3.746   7.352  -0.480  0.00  0.00    -0.024 A 
ATOM      9  C   UNL     1       3.893   5.987  -0.195  0.00  0.00    +0.123 A 
ATOM     10  N   UNL     1       5.054   5.378  -0.321  0.00  0.00    -0.232 NA
ATOM     11  N   UNL     1       2.791   5.262   0.233  0.00  0.00    -0.315 N 
ATOM     12  C   UNL     1       3.036   4.662   1.551  0.00  0.00    +0.106 C 
ATOM     13  C   UNL     1       1.754   3.995   2.056  0.00  0.00    +0.019 C 
ATOM     14  C   UNL     1       1.317   2.920   1.057  0.00  0.00    +0.009 C 
ATOM     15  C   UNL     1       1.115   3.562  -0.318  0.00  0.00    +0.032 C 
ATOM     16  C   UNL     1       2.416   4.242  -0.753  0.00  0.00    +0.112 C 
ATOM     17  F   UNL     1       9.655   5.441  -1.425  0.00  0.00    -0.205 F 
ENDROOT
BRANCH  15  18
ATOM     18  C   UNL     1       0.737   2.484  -1.335  0.00  0.00    +0.160 C 
BRANCH  18  19
ATOM     19  O   UNL     1      -0.535   1.930  -0.991  0.00  0.00    -0.395 OA
ATOM     20  H   UNL     1      -0.839   1.239  -1.595  0.00  0.00    +0.209 HD
ENDBRANCH  18  19
ENDBRANCH  15  18
BRANCH   8  21
ATOM     21  C   UNL     1       2.403   8.017  -0.318  0.00  0.00    -0.043 C 
BRANCH  21  22
ATOM     22  N   UNL     1       2.165   8.283   1.113  0.00  0.00    +0.386 N 
ATOM     23  H   UNL     1       2.922   8.872   1.479  0.00  0.00    -0.085 HD
ATOM     24  H   UNL     1       2.146   7.393   1.625  0.00  0.00    -0.085 HD
BRANCH  22  25
ATOM     25  C   UNL     1       0.876   8.978   1.297  0.00  0.00    -0.067 C 
ATOM     26  C   UNL     1       0.897  10.308   0.542  0.00  0.00    -0.009 C 
ATOM     27  C   UNL     1      -0.438  11.029   0.742  0.00  0.00    -0.012 C 
ATOM     28  C   UNL     1      -0.658  11.291   2.234  0.00  0.00    +0.007 C 
ATOM     29  C   UNL     1      -0.678   9.960   2.988  0.00  0.00    -0.012 C 
ATOM     30  C   UNL     1       0.656   9.240   2.788  0.00  0.00    -0.009 C 
ATOM     31  C   UNL     1      -1.814   9.087   2.451  0.00  0.00    +0.007 C 
ATOM     32  C   UNL     1      -1.595   8.825   0.960  0.00  0.00    -0.012 C 
ATOM     33  C   UNL     1      -1.574  10.156   0.206  0.00  0.00    +0.007 C 
ATOM     34  C   UNL     1      -0.260   8.104   0.760  0.00  0.00    -0.009 C 
ENDBRANCH  22  25
ENDBRANCH  21  22
ENDBRANCH   8  21
TORSDOF 5
