REMARK  Name = ZINC41834233
REMARK  9 active torsions:
REMARK  status: ('A' for Active; 'I' for Inactive)
REMARK    1  A    between atoms: C_1  and  C_2
REMARK    2  A    between atoms: C_2  and  C_3
REMARK    3  A    between atoms: C_3  and  C_4
REMARK    4  A    between atoms: C_3  and  C_11
REMARK    5  A    between atoms: C_3  and  N_14
REMARK    6  A    between atoms: N_14  and  C_15
REMARK    7  A    between atoms: C_15  and  C_16
REMARK    8  A    between atoms: C_15  and  C_17
REMARK    9  A    between atoms: C_15  and  C_18
REMARK                            x       y       z     vdW  Elec       q    Type
REMARK                         _______ _______ _______ _____ _____    ______ ____
ROOT
ATOM      1  C   UNL     1       0.475  -1.025  -1.262  0.00  0.00    +0.062 C 
ENDROOT
BRANCH   1   2
ATOM      2  C   UNL     1       1.820  -0.357  -1.386  0.00  0.00    -0.048 A 
ATOM      3  C   UNL     1       1.904   0.953  -1.821  0.00  0.00    +0.004 A 
ATOM      4  C   UNL     1       3.137   1.566  -1.934  0.00  0.00    +0.015 A 
ATOM      5  C   UNL     1       4.288   0.870  -1.612  0.00  0.00    +0.018 A 
ATOM      6  C   UNL     1       4.204  -0.440  -1.176  0.00  0.00    +0.015 A 
ATOM      7  C   UNL     1       2.970  -1.051  -1.058  0.00  0.00    +0.004 A 
ATOM      8 BR   UNL     1       5.976   1.709  -1.767  0.00  0.00    -0.050 Br
ENDBRANCH   1   2
BRANCH   1   9
ATOM      9  C   UNL     1       0.434  -2.239  -2.154  0.00  0.00    +0.350 C 
ATOM     10  O   UNL     1       0.085  -2.130  -3.317  0.00  0.00    -0.248 OA
ATOM     11  O   UNL     1       0.750  -3.331  -1.713  0.00  0.00    -0.248 OA
ENDBRANCH   1   9
BRANCH   1  12
ATOM     12  N   UNL     1      -0.578  -0.085  -1.666  0.00  0.00    +0.402 N 
ATOM     13  H   UNL     1      -0.469   0.781  -1.159  0.00  0.00    -0.082 HD
ATOM     14  H   UNL     1      -0.507   0.095  -2.656  0.00  0.00    -0.082 HD
BRANCH  12  15
ATOM     15  C   UNL     1      -1.894  -0.665  -1.366  0.00  0.00    +0.006 C 
ATOM     16  C   UNL     1      -1.846  -2.178  -1.585  0.00  0.00    -0.001 C 
ATOM     17  C   UNL     1      -2.261  -0.371   0.090  0.00  0.00    -0.001 C 
BRANCH  15  18
ATOM     18  C   UNL     1      -2.930  -0.058  -2.277  0.00  0.00    +0.199 C 
ATOM     19  O   UNL     1      -3.855  -0.732  -2.678  0.00  0.00    -0.278 OA
ATOM     20  N   UNL     1      -2.828   1.234  -2.647  0.00  0.00    -0.330 N 
ATOM     21  H   UNL     1      -2.088   1.774  -2.327  0.00  0.00    +0.145 HD
ATOM     22  H   UNL     1      -3.495   1.625  -3.234  0.00  0.00    +0.145 HD
ENDBRANCH  15  18
ENDBRANCH  12  15
ENDBRANCH   1  12
BRANCH   1  24
ATOM     23  C   UNL     1       0.479  -0.254   1.115  0.00  0.00    +0.003 C 
ATOM     24  C   UNL     1       0.249  -1.451   0.190  0.00  0.00    +0.000 C 
ENDBRANCH   1  24
TORSDOF 6
