REMARK  Name = ZINC12562729
REMARK  4 active torsions:
REMARK  status: ('A' for Active; 'I' for Inactive)
REMARK    1  A    between atoms: N_9  and  C_22
REMARK    2  A    between atoms: C_10  and  C_13
REMARK    3  A    between atoms: C_18  and  O_19
REMARK    4  A    between atoms: C_22  and  C_23
REMARK                            x       y       z     vdW  Elec       q    Type
REMARK                         _______ _______ _______ _____ _____    ______ ____
ROOT
ATOM      1  C   UNL     1       0.002  -0.004   0.002  0.00  0.00    +0.001 A 
ATOM      2  C   UNL     1      -0.017   1.382   0.010  0.00  0.00    +0.002 A 
ATOM      3  C   UNL     1       1.163   2.101   0.002  0.00  0.00    +0.024 A 
ATOM      4  C   UNL     1       2.374   1.429  -0.013  0.00  0.00    +0.041 A 
ATOM      5  C   UNL     1       2.397   0.023  -0.023  0.00  0.00    +0.058 A 
ATOM      6  C   UNL     1       1.200  -0.689  -0.015  0.00  0.00    +0.015 A 
ATOM      7  C   UNL     1       3.704  -0.657  -0.046  0.00  0.00    +0.250 C 
ATOM      8  O   UNL     1       3.776  -1.844  -0.303  0.00  0.00    -0.270 OA
ATOM      9  N   UNL     1       4.821   0.051   0.222  0.00  0.00    -0.272 N 
ATOM     10  C   UNL     1       4.750   1.459   0.613  0.00  0.00    +0.196 C 
ATOM     11  N   UNL     1       3.590   2.103  -0.015  0.00  0.00    -0.321 N 
ATOM     12  H   UNL     1       3.670   2.980  -0.421  0.00  0.00    +0.148 HD
ENDROOT
BRANCH  10  13
ATOM     13  C   UNL     1       4.624   1.555   2.111  0.00  0.00    +0.035 A 
ATOM     14  C   UNL     1       5.094   0.531   2.912  0.00  0.00    +0.030 A 
ATOM     15  C   UNL     1       4.979   0.619   4.288  0.00  0.00    +0.043 A 
ATOM     16  C   UNL     1       4.393   1.731   4.866  0.00  0.00    +0.043 A 
ATOM     17  C   UNL     1       3.922   2.757   4.069  0.00  0.00    +0.084 A 
ATOM     18  C   UNL     1       4.042   2.674   2.688  0.00  0.00    +0.142 A 
ATOM     19 CL   UNL     1       3.187   4.153   4.794  0.00  0.00    -0.080 Cl
ATOM     20 CL   UNL     1       5.571  -0.669   5.290  0.00  0.00    -0.083 Cl
BRANCH  18  21
ATOM     21  O   UNL     1       3.584   3.684   1.903  0.00  0.00    -0.505 OA
ATOM     22  H   UNL     1       2.660   3.586   1.634  0.00  0.00    +0.292 HD
ENDBRANCH  18  21
ENDBRANCH  10  13
BRANCH   9  23
ATOM     23  C   UNL     1       6.128  -0.602   0.120  0.00  0.00    +0.141 C 
BRANCH  23  24
ATOM     24  C   UNL     1       6.670  -0.441  -1.302  0.00  0.00    +0.136 C 
ATOM     25  C   UNL     1       8.020  -1.186  -1.450  0.00  0.00    +0.035 C 
ATOM     26  C   UNL     1       8.043  -1.451  -2.981  0.00  0.00    +0.031 C 
ATOM     27  C   UNL     1       6.549  -1.676  -3.296  0.00  0.00    +0.160 C 
ATOM     28  O   UNL     1       5.788  -1.070  -2.245  0.00  0.00    -0.375 OA
ENDBRANCH  23  24
ENDBRANCH   9  23
TORSDOF 4
