REMARK  Name = ZINC39345313
REMARK  4 active torsions:
REMARK  status: ('A' for Active; 'I' for Inactive)
REMARK    1  A    between atoms: C_1  and  N_2
REMARK    2  A    between atoms: N_2  and  C_3
REMARK    3  A    between atoms: N_2  and  C_4
REMARK    4  A    between atoms: C_7  and  C_11
REMARK                            x       y       z     vdW  Elec       q    Type
REMARK                         _______ _______ _______ _____ _____    ______ ____
ROOT
ATOM      1  C   UNL     1      -4.845  -2.890   0.032  0.00  0.00    +0.154 C 
ATOM      2  N   UNL     1      -5.392  -3.214  -1.127  0.00  0.00    -0.157 NA
ATOM      3  C   UNL     1      -6.533  -3.897  -1.220  0.00  0.00    +0.272 C 
ATOM      4  O   UNL     1      -7.011  -4.177  -2.306  0.00  0.00    -0.268 OA
ATOM      5  C   UNL     1      -7.210  -4.313   0.051  0.00  0.00    +0.071 C 
ATOM      6  C   UNL     1      -8.322  -5.056   0.187  0.00  0.00    -0.042 C 
ATOM      7  C   UNL     1      -9.018  -5.765  -0.971  0.00  0.00    +0.033 C 
ATOM      8  C   UNL     1      -9.121  -7.246  -0.585  0.00  0.00    +0.004 C 
ATOM      9  C   UNL     1      -9.780  -7.391   0.785  0.00  0.00    +0.002 C 
ATOM     10  C   UNL     1      -8.922  -6.739   1.874  0.00  0.00    +0.019 C 
ATOM     11  C   UNL     1      -8.854  -5.233   1.605  0.00  0.00    +0.079 C 
ATOM     12  S   UNL     1      -7.521  -4.477   2.610  0.00  0.00    -0.097 S 
ATOM     13  C   UNL     1      -6.507  -3.883   1.279  0.00  0.00    +0.112 C 
ATOM     14  N   UNL     1      -5.383  -3.216   1.208  0.00  0.00    -0.223 NA
ENDROOT
BRANCH   1  18
ATOM     15  C   UNL     1      -1.194  -0.716   0.010  0.00  0.00    +0.043 A 
ATOM     16  C   UNL     1      -1.799  -1.070  -1.193  0.00  0.00    +0.025 A 
ATOM     17  C   UNL     1      -2.982  -1.774  -1.188  0.00  0.00    +0.013 A 
ATOM     18  C   UNL     1      -3.575  -2.134   0.025  0.00  0.00    +0.018 A 
ATOM     19  C   UNL     1      -2.965  -1.778   1.230  0.00  0.00    +0.028 A 
ATOM     20  C   UNL     1      -1.779  -1.078   1.220  0.00  0.00    +0.040 A 
ATOM     21 BR   UNL     1      -0.949  -0.602   2.851  0.00  0.00    -0.048 Br
BRANCH  15  23
ATOM     22  C   UNL     1      -0.018   1.461   0.010  0.00  0.00    +0.129 C 
ATOM     23  N   UNL     1       0.002  -0.004   0.002  0.00  0.00    -0.335 N 
ATOM     24  C   UNL     1       1.281  -0.719  -0.014  0.00  0.00    +0.129 C 
ENDBRANCH  15  23
ENDBRANCH   1  18
TORSDOF 2
