REMARK  Name = ZINC64364236
REMARK  3 active torsions:
REMARK  status: ('A' for Active; 'I' for Inactive)
REMARK    1  A    between atoms: C_8  and  C_11
REMARK    2  A    between atoms: C_17  and  C_19
REMARK    3  A    between atoms: C_22  and  N_25
REMARK                            x       y       z     vdW  Elec       q    Type
REMARK                         _______ _______ _______ _____ _____    ______ ____
ROOT
ATOM      1  C   UNL     1       3.496  -2.572   1.174  0.00  0.00    +0.051 C 
ATOM      2  C   UNL     1       2.938  -2.010   2.483  0.00  0.00    +0.028 C 
ATOM      3  C   UNL     1       3.383  -2.899   3.647  0.00  0.00    +0.108 C 
ATOM      4  N   UNL     1       4.847  -3.019   3.618  0.00  0.00    -0.298 N 
ATOM      5  C   UNL     1       5.494  -3.466   2.377  0.00  0.00    +0.108 C 
ATOM      6  C   UNL     1       5.026  -2.569   1.227  0.00  0.00    +0.028 C 
ATOM      7  C   UNL     1       5.582  -2.725   4.709  0.00  0.00    +0.247 C 
ATOM      8  O   UNL     1       5.045  -2.263   5.697  0.00  0.00    -0.270 OA
ENDROOT
BRANCH   1  16
ATOM      9  C   UNL     1       0.021   1.804   0.370  0.00  0.00    +0.002 A 
ATOM     10  C   UNL     1       1.204   2.515   0.451  0.00  0.00    +0.004 A 
ATOM     11  C   UNL     1       2.417   1.857   0.385  0.00  0.00    +0.047 A 
ATOM     12  C   UNL     1       2.455   0.476   0.237  0.00  0.00    +0.144 A 
ATOM     13  C   UNL     1       1.265  -0.237   0.156  0.00  0.00    +0.072 A 
ATOM     14  C   UNL     1       0.049   0.430   0.223  0.00  0.00    +0.027 A 
ATOM     15  N   UNL     1       1.560  -1.601   0.010  0.00  0.00    -0.306 N 
ATOM     16  C   UNL     1       3.025  -1.706   0.004  0.00  0.00    +0.263 C 
ATOM     17  O   UNL     1       3.517  -0.371   0.149  0.00  0.00    -0.469 OA
ATOM     18  H   UNL     1       0.924  -2.329  -0.070  0.00  0.00    +0.150 HD
ENDBRANCH   1  16
BRANCH   7  19
ATOM     19  C   UNL     1       7.038  -2.965   4.704  0.00  0.00    +0.037 A 
ATOM     20  C   UNL     1       7.889  -2.120   5.422  0.00  0.00    +0.015 A 
ATOM     21  C   UNL     1       9.247  -2.347   5.416  0.00  0.00    +0.027 A 
ATOM     22  C   UNL     1       9.773  -3.415   4.696  0.00  0.00    +0.048 A 
ATOM     23  C   UNL     1       8.928  -4.257   3.979  0.00  0.00    +0.027 A 
ATOM     24  C   UNL     1       7.569  -4.040   3.986  0.00  0.00    +0.015 A 
BRANCH  22  25
ATOM     25  N   UNL     1      11.150  -3.642   4.691  0.00  0.00    -0.295 N 
ATOM     26  C   UNL     1      11.996  -3.498   3.601  0.00  0.00    +0.111 A 
ATOM     27  C   UNL     1      13.227  -3.805   3.997  0.00  0.00    +0.103 A 
ATOM     28  N   UNL     1      13.171  -4.145   5.340  0.00  0.00    -0.340 N 
ATOM     29  C   UNL     1      11.891  -4.033   5.746  0.00  0.00    +0.162 A 
ATOM     30  S   UNL     1      11.308  -4.338   7.327  0.00  0.00    -0.013 S 
ATOM     31  H   UNL     1      13.922  -4.413   5.892  0.00  0.00    +0.167 HD
ENDBRANCH  22  25
ENDBRANCH   7  19
TORSDOF 3
