REMARK  Name = ZINC01123691
REMARK  9 active torsions:
REMARK  status: ('A' for Active; 'I' for Inactive)
REMARK    1  A    between atoms: C_1  and  C_2
REMARK    2  A    between atoms: C_2  and  O_3
REMARK    3  A    between atoms: O_3  and  C_4
REMARK    4  A    between atoms: C_4  and  C_6
REMARK    5  A    between atoms: C_10  and  N_11
REMARK    6  A    between atoms: N_11  and  C_12
REMARK    7  A    between atoms: C_12  and  N_14
REMARK    8  A    between atoms: N_14  and  C_15
REMARK    9  A    between atoms: C_19  and  C_21
REMARK                            x       y       z     vdW  Elec       q    Type
REMARK                         _______ _______ _______ _____ _____    ______ ____
ROOT
ATOM      1  C   UNL     1       2.427   9.355   0.439  0.00  0.00    +0.091 A 
ATOM      2  C   UNL     1       3.791   9.848   0.529  0.00  0.00    -0.021 A 
ATOM      3  C   UNL     1       4.750   8.899   0.484  0.00  0.00    -0.004 A 
ATOM      4  S   UNL     1       3.869   7.371   0.331  0.00  0.00    -0.077 S 
ATOM      5  C   UNL     1       2.248   7.982   0.328  0.00  0.00    +0.086 A 
ATOM      6  C   UNL     1       6.232   9.108   0.549  0.00  0.00    +0.043 C 
ATOM      7  C   UNL     1       6.522  10.595   0.299  0.00  0.00    +0.005 C 
ATOM      8  C   UNL     1       5.588  11.434   1.177  0.00  0.00    +0.005 C 
ATOM      9  C   UNL     1       4.152  11.322   0.662  0.00  0.00    +0.037 C 
ENDROOT
BRANCH   1  10
ATOM     10  C   UNL     1       1.285  10.270   0.468  0.00  0.00    +0.342 C 
ATOM     11  O   UNL     1       0.773  10.570   1.530  0.00  0.00    -0.245 OA
BRANCH  10  12
ATOM     12  O   UNL     1       0.800  10.780  -0.682  0.00  0.00    -0.461 OA
BRANCH  12  14
ATOM     13  C   UNL     1      -0.740  12.154  -1.975  0.00  0.00    +0.048 C 
ATOM     14  C   UNL     1      -0.334  11.681  -0.578  0.00  0.00    +0.229 C 
ENDBRANCH  12  14
ENDBRANCH  10  12
ENDBRANCH   1  10
BRANCH   5  15
ATOM     15  N   UNL     1       1.061   7.273   0.231  0.00  0.00    -0.291 N 
ATOM     16  H   UNL     1       0.213   7.744   0.241  0.00  0.00    +0.154 HD
BRANCH  15  17
ATOM     17  C   UNL     1       1.085   5.930   0.123  0.00  0.00    +0.139 C 
ATOM     18  S   UNL     1       2.582   5.099   0.105  0.00  0.00    -0.018 S 
BRANCH  17  19
ATOM     19  N   UNL     1      -0.069   5.241   0.029  0.00  0.00    -0.297 N 
ATOM     20  H   UNL     1      -0.912   5.715  -0.042  0.00  0.00    +0.154 HD
BRANCH  19  21
ATOM     21  C   UNL     1      -0.051   3.842   0.034  0.00  0.00    +0.033 A 
ATOM     22  C   UNL     1       0.784   3.160   0.909  0.00  0.00    +0.023 A 
ATOM     23  C   UNL     1       0.799   1.779   0.911  0.00  0.00    +0.002 A 
ATOM     24  C   UNL     1      -0.015   1.076   0.042  0.00  0.00    +0.003 A 
ATOM     25  C   UNL     1      -0.843   1.752  -0.835  0.00  0.00    -0.049 A 
ATOM     26  C   UNL     1      -0.867   3.133  -0.838  0.00  0.00    +0.026 A 
ATOM     27  C   UNL     1      -1.724   0.982  -1.784  0.00  0.00    +0.044 C 
ENDBRANCH  19  21
ENDBRANCH  17  19
ENDBRANCH  15  17
ENDBRANCH   5  15
TORSDOF 7
