REMARK  Name = ZINC36005505
REMARK  15 active torsions:
REMARK  status: ('A' for Active; 'I' for Inactive)
REMARK    1  A    between atoms: C_1  and  C_2
REMARK    2  A    between atoms: C_2  and  N_3
REMARK    3  A    between atoms: C_4  and  C_24
REMARK    4  A    between atoms: C_5  and  C_19
REMARK    5  A    between atoms: C_6  and  C_11
REMARK    6  A    between atoms: C_14  and  C_18
REMARK    7  A    between atoms: C_16  and  C_17
REMARK    8  A    between atoms: C_19  and  O_21
REMARK    9  A    between atoms: O_21  and  C_22
REMARK   10  A    between atoms: C_22  and  C_23
REMARK   11  A    between atoms: C_24  and  N_25
REMARK   12  A    between atoms: N_33  and  C_34
REMARK   13  A    between atoms: C_34  and  C_35
REMARK   14  A    between atoms: C_34  and  C_36
REMARK   15  A    between atoms: C_34  and  C_37
REMARK                            x       y       z     vdW  Elec       q    Type
REMARK                         _______ _______ _______ _____ _____    ______ ____
ROOT
ATOM      1  N   UNL     1       0.708  -0.488  -0.959  0.00  0.00    -0.258 N 
ATOM      2  C   UNL     1      -0.196  -0.703  -1.960  0.00  0.00    +0.041 C 
ATOM      3  C   UNL     1       0.195  -1.187  -3.159  0.00  0.00    +0.080 C 
ATOM      4  C   UNL     1       1.668  -1.482  -3.355  0.00  0.00    +0.144 C 
ATOM      5  N   UNL     1       2.559  -1.215  -2.214  0.00  0.00    -0.288 N 
ATOM      6  C   UNL     1       2.020  -0.727  -1.079  0.00  0.00    +0.307 C 
ATOM      7  O   UNL     1       2.748  -0.500  -0.133  0.00  0.00    -0.252 OA
ATOM      8  H   UNL     1       3.512  -1.384  -2.278  0.00  0.00    +0.151 HD
ENDROOT
BRANCH   4   9
ATOM      9  C   UNL     1       1.805  -2.937  -3.721  0.00  0.00    -0.020 A 
ATOM     10  C   UNL     1       1.967  -3.887  -2.730  0.00  0.00    +0.006 A 
ATOM     11  C   UNL     1       2.094  -5.222  -3.065  0.00  0.00    +0.004 A 
ATOM     12  C   UNL     1       2.057  -5.607  -4.393  0.00  0.00    -0.050 A 
ATOM     13  C   UNL     1       1.895  -4.658  -5.384  0.00  0.00    +0.007 A 
ATOM     14  C   UNL     1       1.764  -3.323  -5.048  0.00  0.00    -0.045 A 
ATOM     15  C   UNL     1       1.581  -2.289  -6.128  0.00  0.00    +0.044 C 
ATOM     16  C   UNL     1       2.196  -7.063  -4.758  0.00  0.00    +0.044 C 
ENDBRANCH   4   9
BRANCH   1  18
ATOM     17  C   UNL     1       0.244   1.567   0.282  0.00  0.00    +0.025 C 
ATOM     18  C   UNL     1       0.215   0.038   0.316  0.00  0.00    +0.111 C 
ENDBRANCH   1  18
BRANCH   3  19
ATOM     19  C   UNL     1      -0.741  -1.410  -4.197  0.00  0.00    +0.339 C 
ATOM     20  O   UNL     1      -1.198  -2.524  -4.374  0.00  0.00    -0.245 OA
BRANCH  19  21
ATOM     21  O   UNL     1      -1.125  -0.389  -4.990  0.00  0.00    -0.462 OA
BRANCH  21  22
ATOM     22  C   UNL     1      -2.154  -0.660  -5.944  0.00  0.00    +0.229 C 
ATOM     23  C   UNL     1      -2.368   0.571  -6.827  0.00  0.00    +0.048 C 
ENDBRANCH  21  22
ENDBRANCH  19  21
ENDBRANCH   3  19
BRANCH   2  24
ATOM     24  C   UNL     1      -1.652  -0.396  -1.723  0.00  0.00    +0.136 C 
BRANCH  24  25
ATOM     25  N   UNL     1      -2.188  -1.317  -0.711  0.00  0.00    -0.294 NA
ATOM     26  C   UNL     1      -2.191  -2.700  -1.207  0.00  0.00    +0.104 C 
ATOM     27  C   UNL     1      -2.583  -3.646  -0.068  0.00  0.00    +0.124 C 
ATOM     28  N   UNL     1      -3.859  -3.187   0.503  0.00  0.00    -0.283 N 
ATOM     29  C   UNL     1      -3.977  -1.775   0.897  0.00  0.00    +0.124 C 
ATOM     30  C   UNL     1      -3.529  -0.902  -0.280  0.00  0.00    +0.104 C 
ATOM     31  C   UNL     1      -4.892  -4.038   0.661  0.00  0.00    +0.303 C 
ATOM     32  O   UNL     1      -4.750  -5.219   0.412  0.00  0.00    -0.253 OA
ATOM     33  N   UNL     1      -6.083  -3.579   1.094  0.00  0.00    -0.294 N 
ATOM     34  H   UNL     1      -6.218  -2.627   1.223  0.00  0.00    +0.151 HD
BRANCH  33  35
ATOM     35  C   UNL     1      -7.174  -4.517   1.370  0.00  0.00    +0.028 C 
ATOM     36  C   UNL     1      -6.738  -5.499   2.459  0.00  0.00    +0.031 C 
ATOM     37  C   UNL     1      -8.405  -3.743   1.844  0.00  0.00    +0.031 C 
ATOM     38  C   UNL     1      -7.517  -5.289   0.094  0.00  0.00    +0.031 C 
ENDBRANCH  33  35
ENDBRANCH  24  25
ENDBRANCH   2  24
TORSDOF 8
