REMARK  Name = ZINC63709527
REMARK  4 active torsions:
REMARK  status: ('A' for Active; 'I' for Inactive)
REMARK    1  A    between atoms: C_6  and  C_10
REMARK    2  A    between atoms: C_10  and  S_11
REMARK    3  A    between atoms: S_11  and  C_12
REMARK    4  A    between atoms: N_22  and  C_23
REMARK                            x       y       z     vdW  Elec       q    Type
REMARK                         _______ _______ _______ _____ _____    ______ ____
ROOT
ATOM      1  C   UNL     1       3.852  -3.161  -4.564  0.00  0.00    +0.227 C 
ATOM      2  N   UNL     1       5.280  -3.416  -4.331  0.00  0.00    -0.316 N 
ATOM      3  C   UNL     1       5.624  -4.014  -3.102  0.00  0.00    +0.049 A 
ATOM      4  C   UNL     1       6.819  -3.956  -2.418  0.00  0.00    +0.031 A 
ATOM      5  C   UNL     1       6.945  -4.616  -1.239  0.00  0.00    +0.048 A 
ATOM      6  S   UNL     1       5.446  -5.347  -1.003  0.00  0.00    -0.090 S 
ATOM      7  C   UNL     1       4.636  -4.782  -2.463  0.00  0.00    +0.095 A 
ATOM      8  C   UNL     1       3.347  -4.970  -2.971  0.00  0.00    +0.261 C 
ATOM      9  O   UNL     1       2.562  -5.740  -2.449  0.00  0.00    -0.269 OA
ATOM     10  N   UNL     1       3.014  -4.253  -4.072  0.00  0.00    -0.239 N 
ATOM     11  H   UNL     1       5.953  -3.184  -4.990  0.00  0.00    +0.149 HD
ENDROOT
BRANCH  10  12
ATOM     12  C   UNL     1       1.835  -4.567  -4.756  0.00  0.00    +0.039 A 
ATOM     13  C   UNL     1       1.858  -5.489  -5.795  0.00  0.00    +0.025 A 
ATOM     14  C   UNL     1       0.692  -5.798  -6.468  0.00  0.00    +0.017 A 
ATOM     15  C   UNL     1      -0.498  -5.191  -6.108  0.00  0.00    +0.018 A 
ATOM     16  C   UNL     1      -0.523  -4.272  -5.074  0.00  0.00    +0.017 A 
ATOM     17  C   UNL     1       0.638  -3.963  -4.394  0.00  0.00    +0.025 A 
ATOM     18 BR   UNL     1      -2.092  -5.617  -7.032  0.00  0.00    -0.050 Br
ENDBRANCH  10  12
BRANCH   1  19
ATOM     19  S   UNL     1       3.380  -1.629  -3.715  0.00  0.00    -0.115 S 
BRANCH  19  20
ATOM     20  C   UNL     1       3.710  -1.976  -1.966  0.00  0.00    +0.119 C 
BRANCH  20  26
ATOM     21  C   UNL     1       1.145   2.950  -2.733  0.00  0.00    +0.002 A 
ATOM     22  C   UNL     1       2.466   3.418  -2.852  0.00  0.00    +0.002 A 
ATOM     23  C   UNL     1       3.534   2.677  -2.497  0.00  0.00    +0.027 A 
ATOM     24  C   UNL     1       3.333   1.324  -1.962  0.00  0.00    +0.060 A 
ATOM     25  N   UNL     1       4.156   0.404  -1.548  0.00  0.00    -0.363 N 
ATOM     26  C   UNL     1       3.351  -0.749  -1.125  0.00  0.00    +0.184 C 
ATOM     27  N   UNL     1       1.948  -0.379  -1.348  0.00  0.00    -0.363 N 
ATOM     28  C   UNL     1       1.935   0.828  -1.835  0.00  0.00    +0.060 A 
ATOM     29  C   UNL     1       0.849   1.725  -2.254  0.00  0.00    +0.027 A 
ATOM     30  H   UNL     1       5.123   0.469  -1.524  0.00  0.00    +0.162 HD
ATOM     31  H   UNL     1       1.172  -0.933  -1.166  0.00  0.00    +0.162 HD
ENDBRANCH  20  26
ENDBRANCH  19  20
ENDBRANCH   1  19
TORSDOF 4
