REMARK  Name = ZINC39560968
REMARK  10 active torsions:
REMARK  status: ('A' for Active; 'I' for Inactive)
REMARK    1  A    between atoms: C_1  and  C_2
REMARK    2  A    between atoms: C_2  and  C_3
REMARK    3  A    between atoms: C_6  and  C_9
REMARK    4  A    between atoms: C_9  and  C_11
REMARK    5  A    between atoms: C_9  and  N_12
REMARK    6  A    between atoms: C_13  and  C_15
REMARK    7  A    between atoms: C_15  and  O_16
REMARK    8  A    between atoms: O_16  and  C_17
REMARK    9  A    between atoms: C_17  and  C_19
REMARK   10  A    between atoms: C_21  and  N_27
REMARK                            x       y       z     vdW  Elec       q    Type
REMARK                         _______ _______ _______ _____ _____    ______ ____
ROOT
ATOM      1  C   UNL     1       5.157  -4.806  -4.894  0.00  0.00    +0.328 C 
ENDROOT
BRANCH   1   3
ATOM      2  N   UNL     1       3.718  -2.861  -4.381  0.00  0.00    -0.306 N 
ATOM      3  C   UNL     1       4.116  -3.785  -5.277  0.00  0.00    +0.251 C 
ATOM      4  O   UNL     1       3.636  -3.796  -6.391  0.00  0.00    -0.272 OA
ATOM      5  H   UNL     1       4.102  -2.852  -3.490  0.00  0.00    +0.149 HD
BRANCH   2   6
ATOM      6  C   UNL     1       2.707  -1.868  -4.752  0.00  0.00    +0.100 C 
ATOM      7  C   UNL     1       3.383  -0.687  -5.451  0.00  0.00    +0.033 C 
BRANCH   6  11
ATOM      8  C   UNL     1       0.707  -0.490  -1.238  0.00  0.00    -0.048 A 
ATOM      9  C   UNL     1      -0.011  -0.719  -2.397  0.00  0.00    +0.004 A 
ATOM     10  C   UNL     1       0.636  -1.164  -3.534  0.00  0.00    +0.006 A 
ATOM     11  C   UNL     1       2.002  -1.381  -3.513  0.00  0.00    -0.027 A 
ATOM     12  C   UNL     1       2.720  -1.152  -2.354  0.00  0.00    +0.006 A 
ATOM     13  C   UNL     1       2.073  -0.702  -1.218  0.00  0.00    +0.004 A 
BRANCH   8  15
ATOM     14  C   UNL     1      -0.019   1.526   0.010  0.00  0.00    +0.009 C 
ATOM     15  C   UNL     1       0.002  -0.004   0.002  0.00  0.00    +0.032 C 
ENDBRANCH   8  15
ENDBRANCH   6  11
ENDBRANCH   2   6
ENDBRANCH   1   3
BRANCH   1  16
ATOM     16  O   UNL     1       5.408  -5.670  -6.005  0.00  0.00    -0.451 OA
BRANCH  16  17
ATOM     17  C   UNL     1       6.319  -6.645  -5.827  0.00  0.00    +0.360 C 
ATOM     18  O   UNL     1       6.886  -6.760  -4.759  0.00  0.00    -0.243 OA
BRANCH  17  19
ATOM     19  C   UNL     1       6.631  -7.577  -6.934  0.00  0.00    +0.169 A 
ATOM     20  C   UNL     1       7.570  -8.586  -6.741  0.00  0.00    +0.095 A 
ATOM     21  C   UNL     1       7.852  -9.457  -7.795  0.00  0.00    +0.067 A 
ATOM     22  C   UNL     1       7.177  -9.277  -9.000  0.00  0.00    +0.100 A 
ATOM     23  C   UNL     1       6.255  -8.248  -9.114  0.00  0.00    +0.150 A 
ATOM     24  N   UNL     1       6.007  -7.446  -8.100  0.00  0.00    -0.226 NA
ATOM     25 CL   UNL     1       5.410  -8.019 -10.613  0.00  0.00    -0.060 Cl
ATOM     26 CL   UNL     1       7.487 -10.330 -10.345  0.00  0.00    -0.078 Cl
ATOM     27 CL   UNL     1       8.379  -8.758  -5.215  0.00  0.00    -0.079 Cl
BRANCH  21  28
ATOM     28  N   UNL     1       8.786 -10.480  -7.645  0.00  0.00    -0.356 N 
ATOM     29  H   UNL     1       9.249 -10.595  -6.800  0.00  0.00    +0.142 HD
ATOM     30  H   UNL     1       8.972 -11.079  -8.385  0.00  0.00    +0.142 HD
ENDBRANCH  21  28
ENDBRANCH  17  19
ENDBRANCH  16  17
ENDBRANCH   1  16
TORSDOF 8
