REMARK  Name = ZINC63428260
REMARK  11 active torsions:
REMARK  status: ('A' for Active; 'I' for Inactive)
REMARK    1  A    between atoms: C_1  and  C_2
REMARK    2  A    between atoms: C_2  and  O_3
REMARK    3  A    between atoms: O_3  and  C_4
REMARK    4  A    between atoms: C_4  and  C_6
REMARK    5  A    between atoms: C_8  and  C_28
REMARK    6  A    between atoms: C_11  and  N_14
REMARK    7  A    between atoms: N_14  and  C_15
REMARK    8  A    between atoms: C_15  and  C_16
REMARK    9  A    between atoms: C_16  and  C_17
REMARK   10  A    between atoms: C_20  and  O_26
REMARK   11  A    between atoms: O_26  and  C_27
REMARK                            x       y       z     vdW  Elec       q    Type
REMARK                         _______ _______ _______ _____ _____    ______ ____
ROOT
ATOM      1  C   UNL     1       1.468  -2.353  -2.550  0.00  0.00    +0.179 C 
ATOM      2  C   UNL     1       2.065  -3.747  -2.253  0.00  0.00    +0.110 C 
ATOM      3  N   UNL     1       1.596  -4.798  -3.160  0.00  0.00    -0.284 NA
ATOM      4  C   UNL     1       0.193  -4.569  -3.618  0.00  0.00    +0.183 C 
ATOM      5  S   UNL     1       0.253  -2.740  -3.882  0.00  0.00    -0.110 S 
ATOM      6  H   UNL     1       2.220  -4.902  -3.946  0.00  0.00    +0.125 HD
ENDROOT
BRANCH   2   7
ATOM      7  C   UNL     1       3.566  -3.660  -2.359  0.00  0.00    -0.029 A 
ATOM      8  C   UNL     1       4.174  -3.684  -3.600  0.00  0.00    +0.005 A 
ATOM      9  C   UNL     1       5.551  -3.605  -3.696  0.00  0.00    +0.000 A 
ATOM     10  C   UNL     1       6.319  -3.501  -2.552  0.00  0.00    +0.000 A 
ATOM     11  C   UNL     1       5.710  -3.476  -1.311  0.00  0.00    +0.000 A 
ATOM     12  C   UNL     1       4.333  -3.551  -1.214  0.00  0.00    +0.005 A 
ENDBRANCH   2   7
BRANCH   1  13
ATOM     13  C   UNL     1       0.775  -1.794  -1.334  0.00  0.00    +0.322 C 
ATOM     14  O   UNL     1       0.314  -2.540  -0.504  0.00  0.00    -0.250 OA
BRANCH  13  15
ATOM     15  O   UNL     1       0.671  -0.465  -1.174  0.00  0.00    -0.464 OA
BRANCH  15  17
ATOM     16  C   UNL     1      -0.019   1.526   0.010  0.00  0.00    +0.048 C 
ATOM     17  C   UNL     1       0.002  -0.004   0.002  0.00  0.00    +0.229 C 
ENDBRANCH  15  17
ENDBRANCH  13  15
ENDBRANCH   1  13
BRANCH   4  18
ATOM     18  N   UNL     1      -0.085  -5.284  -4.871  0.00  0.00    -0.292 NA
ATOM     19  H   UNL     1       0.401  -4.857  -5.646  0.00  0.00    +0.124 HD
BRANCH  18  20
ATOM     20  C   UNL     1      -1.529  -5.353  -5.128  0.00  0.00    +0.087 C 
BRANCH  20  21
ATOM     21  C   UNL     1      -1.779  -6.102  -6.439  0.00  0.00    +0.048 C 
BRANCH  21  22
ATOM     22  C   UNL     1      -3.261  -6.173  -6.702  0.00  0.00    -0.040 C 
ATOM     23  C   UNL     1      -3.991  -5.333  -7.470  0.00  0.00    +0.002 A 
ATOM     24  C   UNL     1      -3.640  -4.147  -8.259  0.00  0.00    +0.055 A 
ATOM     25  C   UNL     1      -4.607  -3.490  -8.943  0.00  0.00    +0.121 A 
ATOM     26  C   UNL     1      -5.951  -3.905  -8.927  0.00  0.00    +0.047 A 
ATOM     27  C   UNL     1      -6.371  -4.983  -8.231  0.00  0.00    +0.029 A 
ATOM     28  C   UNL     1      -5.406  -5.769  -7.454  0.00  0.00    +0.043 A 
ATOM     29  N   UNL     1      -5.545  -6.835  -6.707  0.00  0.00    -0.380 N 
ATOM     30  C   UNL     1      -4.231  -7.203  -6.167  0.00  0.00    +0.144 C 
ATOM     31  H   UNL     1      -6.377  -7.306  -6.541  0.00  0.00    +0.160 HD
BRANCH  25  32
ATOM     32  O   UNL     1      -4.268  -2.393  -9.669  0.00  0.00    -0.495 OA
ATOM     33  C   UNL     1      -5.320  -1.731 -10.374  0.00  0.00    +0.277 C 
ENDBRANCH  25  32
ENDBRANCH  21  22
ENDBRANCH  20  21
ENDBRANCH  18  20
ENDBRANCH   4  18
TORSDOF 9
