REMARK  Name = ZINC38705665
REMARK  15 active torsions:
REMARK  status: ('A' for Active; 'I' for Inactive)
REMARK    1  A    between atoms: C_1  and  C_2
REMARK    2  A    between atoms: C_2  and  O_3
REMARK    3  A    between atoms: O_3  and  C_4
REMARK    4  A    between atoms: C_8  and  C_10
REMARK    5  A    between atoms: C_13  and  C_33
REMARK    6  A    between atoms: N_20  and  C_21
REMARK    7  A    between atoms: C_21  and  C_22
REMARK    8  A    between atoms: C_22  and  C_23
REMARK    9  A    between atoms: C_26  and  O_31
REMARK   10  A    between atoms: C_27  and  O_29
REMARK   11  A    between atoms: O_29  and  C_30
REMARK   12  A    between atoms: O_31  and  C_32
REMARK   13  A    between atoms: C_34  and  C_41
REMARK   14  A    between atoms: C_36  and  C_40
REMARK   15  A    between atoms: C_38  and  O_39
REMARK                            x       y       z     vdW  Elec       q    Type
REMARK                         _______ _______ _______ _____ _____    ______ ____
ROOT
ATOM      1  C   UNL     1       2.240  -4.250  -3.849  0.00  0.00    +0.141 C 
ATOM      2  C   UNL     1       1.224  -4.848  -4.783  0.00  0.00    +0.035 A 
ATOM      3  C   UNL     1       0.099  -4.644  -5.589  0.00  0.00    +0.102 A 
ATOM      4  N   UNL     1      -0.213  -5.804  -6.133  0.00  0.00    -0.173 NA
ATOM      5  N   UNL     1       0.604  -6.720  -5.750  0.00  0.00    -0.272 N 
ATOM      6  H   UNL     1       0.567  -7.650  -6.023  0.00  0.00    +0.189 HD
ATOM      7  C   UNL     1       1.533  -6.190  -4.900  0.00  0.00    +0.126 A 
ATOM      8  C   UNL     1       2.712  -6.471  -4.073  0.00  0.00    +0.265 C 
ATOM      9  O   UNL     1       3.236  -7.562  -3.960  0.00  0.00    -0.268 OA
ATOM     10  N   UNL     1       3.132  -5.349  -3.458  0.00  0.00    -0.285 N 
ENDROOT
BRANCH   3  11
ATOM     11  C   UNL     1      -0.613  -3.358  -5.795  0.00  0.00    +0.047 A 
ATOM     12  C   UNL     1      -1.998  -3.296  -5.656  0.00  0.00    -0.037 A 
ATOM     13  C   UNL     1      -2.656  -2.098  -5.848  0.00  0.00    +0.007 A 
ATOM     14  C   UNL     1      -1.944  -0.958  -6.178  0.00  0.00    -0.047 A 
ATOM     15  C   UNL     1      -0.571  -1.009  -6.318  0.00  0.00    +0.049 A 
ATOM     16  C   UNL     1       0.103  -2.204  -6.122  0.00  0.00    +0.127 A 
ATOM     17  C   UNL     1      -2.672   0.346  -6.386  0.00  0.00    +0.044 C 
ATOM     18  C   UNL     1      -2.776  -4.535  -5.298  0.00  0.00    +0.044 C 
BRANCH  16  19
ATOM     19  O   UNL     1       1.454  -2.254  -6.253  0.00  0.00    -0.506 OA
ATOM     20  H   UNL     1       1.757  -2.380  -7.163  0.00  0.00    +0.292 HD
ENDBRANCH  16  19
ENDBRANCH   3  11
BRANCH   1  25
ATOM     21  C   UNL     1       0.900  -1.789  -1.314  0.00  0.00    +0.121 A 
ATOM     22  C   UNL     1       0.296  -2.639  -0.399  0.00  0.00    +0.045 A 
ATOM     23  C   UNL     1       0.324  -4.005  -0.604  0.00  0.00    +0.004 A 
ATOM     24  C   UNL     1       0.953  -4.525  -1.721  0.00  0.00    +0.006 A 
ATOM     25  C   UNL     1       1.555  -3.680  -2.634  0.00  0.00    -0.019 A 
ATOM     26  C   UNL     1       1.525  -2.313  -2.436  0.00  0.00    +0.051 A 
BRANCH  21  27
ATOM     27  O   UNL     1       0.873  -0.445  -1.115  0.00  0.00    -0.492 OA
BRANCH  27  29
ATOM     28  C   UNL     1       0.284   1.551   0.114  0.00  0.00    +0.048 C 
ATOM     29  C   UNL     1       0.211   0.023   0.062  0.00  0.00    +0.225 C 
ENDBRANCH  27  29
ENDBRANCH  21  27
ENDBRANCH   1  25
BRANCH  10  30
ATOM     30  C   UNL     1       4.280  -5.243  -2.554  0.00  0.00    +0.114 C 
BRANCH  30  31
ATOM     31  C   UNL     1       3.823  -5.501  -1.117  0.00  0.00    +0.054 C 
BRANCH  31  32
ATOM     32  C   UNL     1       5.004  -5.392  -0.187  0.00  0.00    -0.042 A 
ATOM     33  C   UNL     1       5.767  -6.510   0.093  0.00  0.00    +0.007 A 
ATOM     34  C   UNL     1       6.851  -6.415   0.946  0.00  0.00    +0.049 A 
ATOM     35  C   UNL     1       7.176  -5.196   1.520  0.00  0.00    +0.161 A 
ATOM     36  C   UNL     1       6.408  -4.071   1.238  0.00  0.00    +0.162 A 
ATOM     37  C   UNL     1       5.325  -4.172   0.379  0.00  0.00    +0.053 A 
BRANCH  36  38
ATOM     38  O   UNL     1       6.723  -2.873   1.800  0.00  0.00    -0.491 OA
ATOM     39  C   UNL     1       5.890  -1.760   1.464  0.00  0.00    +0.277 C 
ENDBRANCH  36  38
BRANCH  35  40
ATOM     40  O   UNL     1       8.242  -5.101   2.359  0.00  0.00    -0.491 OA
ATOM     41  C   UNL     1       8.984  -6.298   2.604  0.00  0.00    +0.277 C 
ENDBRANCH  35  40
ENDBRANCH  31  32
ENDBRANCH  30  31
ENDBRANCH  10  30
TORSDOF 10
