REMARK  Name = ZINC36894348
REMARK  9 active torsions:
REMARK  status: ('A' for Active; 'I' for Inactive)
REMARK    1  A    between atoms: C_1  and  C_2
REMARK    2  A    between atoms: C_4  and  C_20
REMARK    3  A    between atoms: C_5  and  C_9
REMARK    4  A    between atoms: C_6  and  C_8
REMARK    5  A    between atoms: C_10  and  C_18
REMARK    6  A    between atoms: N_12  and  C_14
REMARK    7  A    between atoms: C_14  and  C_15
REMARK    8  A    between atoms: C_14  and  C_16
REMARK    9  A    between atoms: C_14  and  C_17
REMARK                            x       y       z     vdW  Elec       q    Type
REMARK                         _______ _______ _______ _____ _____    ______ ____
ROOT
ATOM      1  C   UNL     1       0.063  -4.310   0.112  0.00  0.00    +0.103 A 
ATOM      2  C   UNL     1      -0.098  -5.119   1.327  0.00  0.00    +0.059 A 
ATOM      3  C   UNL     1      -0.095  -6.440   0.916  0.00  0.00    +0.120 A 
ATOM      4  N   UNL     1       0.052  -6.455  -0.416  0.00  0.00    -0.265 N 
ATOM      5  N   UNL     1       0.142  -5.146  -0.897  0.00  0.00    -0.170 NA
ENDROOT
BRANCH   1  10
ATOM      6  C   UNL     1       0.278   1.437  -0.178  0.00  0.00    +0.044 C 
ATOM      7  C   UNL     1       0.221  -0.067  -0.102  0.00  0.00    -0.050 A 
ATOM      8  C   UNL     1       1.146  -0.753   0.665  0.00  0.00    +0.007 A 
ATOM      9  C   UNL     1       1.099  -2.130   0.739  0.00  0.00    -0.041 A 
ATOM     10  C   UNL     1       0.118  -2.830   0.038  0.00  0.00    +0.009 A 
ATOM     11  C   UNL     1      -0.811  -2.133  -0.733  0.00  0.00    -0.041 A 
ATOM     12  C   UNL     1      -0.758  -0.755  -0.794  0.00  0.00    +0.007 A 
ATOM     13  C   UNL     1      -1.875  -2.882  -1.494  0.00  0.00    +0.044 C 
ATOM     14  C   UNL     1       2.107  -2.877   1.574  0.00  0.00    +0.044 C 
ENDBRANCH   1  10
BRANCH   4  15
ATOM     15  C   UNL     1       0.106  -7.663  -1.244  0.00  0.00    +0.055 C 
ATOM     16  C   UNL     1      -1.299  -8.251  -1.380  0.00  0.00    +0.036 C 
ATOM     17  C   UNL     1       0.647  -7.307  -2.630  0.00  0.00    +0.036 C 
ATOM     18  C   UNL     1       1.028  -8.692  -0.586  0.00  0.00    +0.036 C 
ENDBRANCH   4  15
BRANCH   2  19
ATOM     19  C   UNL     1      -0.234  -4.625   2.699  0.00  0.00    +0.262 C 
ATOM     20  O   UNL     1      -0.415  -5.407   3.610  0.00  0.00    -0.296 OA
ENDBRANCH   2  19
TORSDOF 3
