REMARK  Name = ZINC59104245
REMARK  9 active torsions:
REMARK  status: ('A' for Active; 'I' for Inactive)
REMARK    1  A    between atoms: C_1  and  C_2
REMARK    2  A    between atoms: C_3  and  C_15
REMARK    3  A    between atoms: C_5  and  C_13
REMARK    4  A    between atoms: N_6  and  C_7
REMARK    5  A    between atoms: N_16  and  N_17
REMARK    6  A    between atoms: C_18  and  C_20
REMARK    7  A    between atoms: C_20  and  O_21
REMARK    8  A    between atoms: O_21  and  C_22
REMARK    9  A    between atoms: C_27  and  N_28
REMARK                            x       y       z     vdW  Elec       q    Type
REMARK                         _______ _______ _______ _____ _____    ______ ____
ROOT
ATOM      1  C   UNL     1       0.000  -0.357  -2.515  0.00  0.00    +0.141 C 
ATOM      2  N   UNL     1      -0.861  -0.857  -3.348  0.00  0.00    -0.188 NA
ENDROOT
BRANCH   1   5
ATOM      3  C   UNL     1      -0.262   1.433   0.043  0.00  0.00    +0.064 C 
ATOM      4  C   UNL     1      -0.078  -0.062   0.007  0.00  0.00    +0.031 A 
ATOM      5  C   UNL     1       0.034  -0.828  -1.119  0.00  0.00    +0.030 A 
ATOM      6  C   UNL     1       0.196  -2.211  -0.661  0.00  0.00    +0.048 A 
ATOM      7  C   UNL     1       0.169  -2.177   0.685  0.00  0.00    +0.036 A 
ATOM      8  N   UNL     1       0.010  -0.881   1.090  0.00  0.00    -0.316 N 
ATOM      9  C   UNL     1       0.299  -3.370   1.595  0.00  0.00    +0.065 C 
ATOM     10 BR   UNL     1       0.401  -3.745  -1.748  0.00  0.00    -0.048 Br
BRANCH   8  11
ATOM     11  C   UNL     1      -0.057  -0.459   2.424  0.00  0.00    +0.047 A 
ATOM     12  C   UNL     1       0.931   0.368   2.942  0.00  0.00    +0.026 A 
ATOM     13  C   UNL     1       0.862   0.783   4.258  0.00  0.00    +0.002 A 
ATOM     14  C   UNL     1      -0.189   0.376   5.059  0.00  0.00    +0.000 A 
ATOM     15  C   UNL     1      -1.174  -0.448   4.546  0.00  0.00    +0.002 A 
ATOM     16  C   UNL     1      -1.114  -0.861   3.229  0.00  0.00    +0.026 A 
ENDBRANCH   8  11
ENDBRANCH   1   5
BRANCH   2  17
ATOM     17  N   UNL     1      -1.843  -1.746  -2.890  0.00  0.00    -0.204 N 
ATOM     18  C   UNL     1      -2.670  -2.347  -3.769  0.00  0.00    +0.270 C 
ATOM     19  O   UNL     1      -2.624  -2.051  -4.945  0.00  0.00    -0.270 OA
ATOM     20  H   UNL     1      -1.928  -1.928  -1.942  0.00  0.00    +0.177 HD
BRANCH  18  21
ATOM     21  C   UNL     1      -3.650  -3.387  -3.291  0.00  0.00    +0.326 C 
BRANCH  21  22
ATOM     22  O   UNL     1      -4.407  -3.873  -4.401  0.00  0.00    -0.480 OA
BRANCH  22  23
ATOM     23  C   UNL     1      -5.343  -4.824  -4.140  0.00  0.00    +0.151 A 
ATOM     24  C   UNL     1      -5.532  -5.275  -2.842  0.00  0.00    +0.048 A 
ATOM     25  C   UNL     1      -6.484  -6.241  -2.579  0.00  0.00    +0.004 A 
ATOM     26  C   UNL     1      -7.248  -6.758  -3.609  0.00  0.00    +0.002 A 
ATOM     27  C   UNL     1      -7.062  -6.310  -4.904  0.00  0.00    +0.036 A 
ATOM     28  C   UNL     1      -6.115  -5.340  -5.171  0.00  0.00    +0.168 A 
BRANCH  28  29
ATOM     29  N   UNL     1      -5.920  -4.857  -6.556  0.00  0.00    +0.060 N 
ATOM     30  O   UNL     1      -6.592  -5.308  -7.454  0.00  0.00    -0.126 OA
ATOM     31  O   UNL     1      -5.087  -4.012  -6.790  0.00  0.00    -0.126 OA
ENDBRANCH  28  29
ENDBRANCH  22  23
ENDBRANCH  21  22
ENDBRANCH  18  21
ENDBRANCH   2  17
TORSDOF 7
