REMARK  Name = ZINC39758317
REMARK  10 active torsions:
REMARK  status: ('A' for Active; 'I' for Inactive)
REMARK    1  A    between atoms: C_1  and  O_2
REMARK    2  A    between atoms: O_2  and  C_3
REMARK    3  A    between atoms: C_6  and  C_11
REMARK    4  A    between atoms: C_8  and  O_9
REMARK    5  A    between atoms: O_9  and  C_10
REMARK    6  A    between atoms: C_11  and  C_12
REMARK    7  A    between atoms: C_16  and  S_25
REMARK    8  A    between atoms: N_18  and  C_19
REMARK    9  A    between atoms: S_25  and  C_26
REMARK   10  A    between atoms: C_26  and  C_27
REMARK                            x       y       z     vdW  Elec       q    Type
REMARK                         _______ _______ _______ _____ _____    ______ ____
ROOT
ATOM      1  C   UNL     1      -5.444  -2.872  -1.395  0.00  0.00    +0.162 C 
ATOM      2  N   UNL     1      -4.508  -3.780  -2.110  0.00  0.00    -0.234 NA
ATOM      3  N   UNL     1      -5.343  -4.335  -3.186  0.00  0.00    -0.226 NA
ATOM      4  C   UNL     1      -6.673  -4.520  -2.562  0.00  0.00    +0.217 C 
ATOM      5  N   UNL     1      -6.737  -3.585  -1.422  0.00  0.00    -0.288 N 
ATOM      6  H   UNL     1      -4.173  -4.509  -1.498  0.00  0.00    +0.143 HD
ATOM      7  H   UNL     1      -4.973  -5.214  -3.515  0.00  0.00    +0.143 HD
ENDROOT
BRANCH   5   8
ATOM      8  C   UNL     1      -7.807  -3.409  -0.541  0.00  0.00    +0.033 A 
ATOM      9  C   UNL     1      -8.499  -2.205  -0.519  0.00  0.00    +0.023 A 
ATOM     10  C   UNL     1      -9.557  -2.035   0.353  0.00  0.00    +0.002 A 
ATOM     11  C   UNL     1      -9.926  -3.062   1.203  0.00  0.00    +0.000 A 
ATOM     12  C   UNL     1      -9.239  -4.261   1.183  0.00  0.00    +0.002 A 
ATOM     13  C   UNL     1      -8.184  -4.440   0.310  0.00  0.00    +0.023 A 
ENDBRANCH   5   8
BRANCH   1  14
ATOM     14  C   UNL     1      -4.982  -2.655   0.047  0.00  0.00    +0.075 C 
BRANCH  14  18
ATOM     15  C   UNL     1      -1.429  -0.275   0.064  0.00  0.00    +0.161 A 
ATOM     16  C   UNL     1      -2.673   0.332   0.124  0.00  0.00    +0.049 A 
ATOM     17  C   UNL     1      -3.820  -0.440   0.119  0.00  0.00    +0.007 A 
ATOM     18  C   UNL     1      -3.729  -1.818   0.053  0.00  0.00    -0.041 A 
ATOM     19  C   UNL     1      -2.490  -2.430  -0.007  0.00  0.00    +0.053 A 
ATOM     20  C   UNL     1      -1.337  -1.661  -0.008  0.00  0.00    +0.162 A 
BRANCH  15  22
ATOM     21  C   UNL     1      -0.471   1.901   0.145  0.00  0.00    +0.277 C 
ATOM     22  O   UNL     1      -0.300   0.484   0.069  0.00  0.00    -0.491 OA
ENDBRANCH  15  22
BRANCH  20  23
ATOM     23  O   UNL     1      -0.118  -2.261  -0.073  0.00  0.00    -0.491 OA
ATOM     24  C   UNL     1      -0.101  -3.688  -0.145  0.00  0.00    +0.277 C 
ENDBRANCH  20  23
ENDBRANCH  14  18
ENDBRANCH   1  14
BRANCH   4  25
ATOM     25  S   UNL     1      -7.981  -4.130  -3.757  0.00  0.00    -0.114 S 
BRANCH  25  26
ATOM     26  C   UNL     1      -7.647  -2.410  -4.227  0.00  0.00    +0.146 C 
BRANCH  26  27
ATOM     27  C   UNL     1      -8.675  -1.955  -5.230  0.00  0.00    +0.120 A 
ATOM     28  N   UNL     1      -8.590  -0.687  -5.711  0.00  0.00    -0.310 N 
ATOM     29  H   UNL     1      -7.879  -0.104  -5.404  0.00  0.00    +0.170 HD
ATOM     30  C   UNL     1      -9.489  -0.231  -6.614  0.00  0.00    +0.259 A 
ATOM     31  O   UNL     1      -9.424   0.903  -7.053  0.00  0.00    -0.267 OA
ATOM     32  C   UNL     1     -10.547  -1.157  -7.044  0.00  0.00    +0.065 A 
ATOM     33  C   UNL     1     -11.521  -0.786  -7.968  0.00  0.00    +0.015 A 
ATOM     34  C   UNL     1     -12.490  -1.694  -8.335  0.00  0.00    +0.001 A 
ATOM     35  C   UNL     1     -12.502  -2.972  -7.793  0.00  0.00    +0.002 A 
ATOM     36  C   UNL     1     -11.548  -3.359  -6.877  0.00  0.00    +0.028 A 
ATOM     37  C   UNL     1     -10.556  -2.456  -6.489  0.00  0.00    +0.078 A 
ATOM     38  N   UNL     1      -9.594  -2.797  -5.595  0.00  0.00    -0.233 NA
ENDBRANCH  26  27
ENDBRANCH  25  26
ENDBRANCH   4  25
TORSDOF 8
