REMARK  Name = ZINC39534165
REMARK  9 active torsions:
REMARK  status: ('A' for Active; 'I' for Inactive)
REMARK    1  A    between atoms: C_1  and  C_2
REMARK    2  A    between atoms: C_2  and  O_3
REMARK    3  A    between atoms: O_3  and  C_4
REMARK    4  A    between atoms: N_7  and  C_11
REMARK    5  A    between atoms: C_11  and  C_13
REMARK    6  A    between atoms: C_11  and  C_16
REMARK    7  A    between atoms: C_13  and  N_14
REMARK    8  A    between atoms: C_19  and  C_22
REMARK    9  A    between atoms: C_27  and  O_28
REMARK                            x       y       z     vdW  Elec       q    Type
REMARK                         _______ _______ _______ _____ _____    ______ ____
ROOT
ATOM      1  C   UNL     1       2.862  -4.144  -3.435  0.00  0.00    +0.101 C 
ENDROOT
BRANCH   1   4
ATOM      2  C   UNL     1       0.753  -2.208  -0.988  0.00  0.00    +0.200 C 
ATOM      3  C   UNL     1       1.742  -2.437  -2.133  0.00  0.00    +0.132 C 
ATOM      4  N   UNL     1       1.863  -3.879  -2.391  0.00  0.00    -0.289 NA
ATOM      5  C   UNL     1       0.561  -4.459  -2.747  0.00  0.00    +0.100 C 
ATOM      6  C   UNL     1      -0.427  -4.230  -1.601  0.00  0.00    +0.098 C 
ATOM      7  N   UNL     1      -0.549  -2.788  -1.344  0.00  0.00    -0.289 NA
ATOM      8  H   UNL     1      -1.235  -2.605  -0.626  0.00  0.00    +0.124 HD
BRANCH   2   9
ATOM      9  O   UNL     1       0.604  -0.805  -0.761  0.00  0.00    -0.361 OA
BRANCH   9  11
ATOM     10  C   UNL     1      -0.128   1.040   0.619  0.00  0.00    +0.034 C 
ATOM     11  C   UNL     1      -0.021  -0.480   0.483  0.00  0.00    +0.158 C 
ENDBRANCH   9  11
ENDBRANCH   2   9
ENDBRANCH   1   4
BRANCH   1  12
ATOM     12  C   UNL     1       3.015  -5.633  -3.616  0.00  0.00    -0.029 A 
ATOM     13  C   UNL     1       3.006  -6.466  -2.512  0.00  0.00    +0.006 A 
ATOM     14  C   UNL     1       3.146  -7.830  -2.673  0.00  0.00    +0.009 A 
ATOM     15  C   UNL     1       3.296  -8.367  -3.950  0.00  0.00    -0.014 A 
ATOM     16  C   UNL     1       3.304  -7.522  -5.059  0.00  0.00    +0.009 A 
ATOM     17  C   UNL     1       3.158  -6.161  -4.887  0.00  0.00    +0.006 A 
BRANCH  15  18
ATOM     18  C   UNL     1       3.447  -9.831  -4.128  0.00  0.00    +0.024 A 
ATOM     19  C   UNL     1       4.380 -10.536  -3.371  0.00  0.00    +0.012 A 
ATOM     20  C   UNL     1       4.517 -11.899  -3.541  0.00  0.00    +0.001 A 
ATOM     21  C   UNL     1       3.731 -12.569  -4.462  0.00  0.00    +0.004 A 
ATOM     22  C   UNL     1       2.803 -11.879  -5.219  0.00  0.00    +0.046 A 
ATOM     23  C   UNL     1       2.651 -10.512  -5.054  0.00  0.00    +0.125 A 
BRANCH  23  24
ATOM     24  O   UNL     1       1.735  -9.834  -5.793  0.00  0.00    -0.506 OA
ATOM     25  H   UNL     1       2.077  -9.499  -6.633  0.00  0.00    +0.292 HD
ENDBRANCH  23  24
ENDBRANCH  15  18
ENDBRANCH   1  12
BRANCH   1  26
ATOM     26  C   UNL     1       4.205  -3.541  -3.021  0.00  0.00    +0.115 C 
BRANCH  26  27
ATOM     27  N   UNL     1       5.185  -3.744  -4.097  0.00  0.00    -0.259 NA
ATOM     28  I   UNL     1       7.048  -3.109  -3.522  0.00  0.00    +0.018 I 
ATOM     29  H   UNL     1       4.892  -3.283  -4.945  0.00  0.00    +0.134 HD
ENDBRANCH  26  27
ENDBRANCH   1  26
TORSDOF 8
