REMARK  Name = ZINC09404206
REMARK  7 active torsions:
REMARK  status: ('A' for Active; 'I' for Inactive)
REMARK    1  A    between atoms: C_4  and  N_7
REMARK    2  A    between atoms: C_8  and  C_25
REMARK    3  A    between atoms: C_11  and  S_12
REMARK    4  A    between atoms: S_12  and  C_13
REMARK    5  A    between atoms: C_13  and  C_14
REMARK    6  A    between atoms: C_25  and  N_26
REMARK    7  A    between atoms: C_27  and  C_29
REMARK                            x       y       z     vdW  Elec       q    Type
REMARK                         _______ _______ _______ _____ _____    ______ ____
ROOT
ATOM      1  N   UNL     1      -6.765   2.183   0.885  0.00  0.00    -0.273 N 
ATOM      2  C   UNL     1      -6.129   2.815  -0.150  0.00  0.00    +0.156 A 
ATOM      3  N   UNL     1      -6.671   2.389  -1.256  0.00  0.00    -0.132 NA
ATOM      4  N   UNL     1      -7.592   1.531  -0.996  0.00  0.00    -0.122 NA
ATOM      5  C   UNL     1      -7.697   1.368   0.303  0.00  0.00    +0.197 A 
ENDROOT
BRANCH   1   9
ATOM      6  C   UNL     1      -6.019   2.647   4.961  0.00  0.00    +0.000 A 
ATOM      7  C   UNL     1      -7.236   3.038   4.433  0.00  0.00    +0.002 A 
ATOM      8  C   UNL     1      -7.486   2.885   3.083  0.00  0.00    +0.026 A 
ATOM      9  C   UNL     1      -6.514   2.339   2.256  0.00  0.00    +0.050 A 
ATOM     10  C   UNL     1      -5.295   1.943   2.789  0.00  0.00    +0.026 A 
ATOM     11  C   UNL     1      -5.049   2.103   4.139  0.00  0.00    +0.002 A 
ENDBRANCH   1   9
BRANCH   5  12
ATOM     12  S   UNL     1      -8.824   0.301   1.138  0.00  0.00    -0.076 S 
BRANCH  12  13
ATOM     13  C   UNL     1      -9.691  -0.412  -0.282  0.00  0.00    +0.173 C 
BRANCH  13  14
ATOM     14  C   UNL     1     -10.735  -1.385   0.204  0.00  0.00    +0.230 C 
ATOM     15  O   UNL     1     -10.878  -1.577   1.393  0.00  0.00    -0.274 OA
ATOM     16  N   UNL     1     -11.509  -2.041  -0.683  0.00  0.00    -0.270 N 
ATOM     17  C   UNL     1     -12.550  -3.011  -0.333  0.00  0.00    +0.118 C 
ATOM     18  C   UNL     1     -13.141  -3.471  -1.675  0.00  0.00    +0.056 C 
ATOM     19  C   UNL     1     -12.358  -2.705  -2.718  0.00  0.00    -0.024 A 
ATOM     20  C   UNL     1     -11.434  -1.900  -2.072  0.00  0.00    +0.040 A 
ATOM     21  C   UNL     1     -10.588  -1.092  -2.834  0.00  0.00    +0.024 A 
ATOM     22  C   UNL     1     -10.676  -1.098  -4.211  0.00  0.00    +0.002 A 
ATOM     23  C   UNL     1     -11.601  -1.905  -4.846  0.00  0.00    +0.000 A 
ATOM     24  C   UNL     1     -12.441  -2.709  -4.097  0.00  0.00    +0.005 A 
ENDBRANCH  13  14
ENDBRANCH  12  13
ENDBRANCH   5  12
BRANCH   2  25
ATOM     25  C   UNL     1      -5.013   3.821  -0.032  0.00  0.00    +0.181 C 
BRANCH  25  26
ATOM     26  N   UNL     1      -3.724   3.126  -0.048  0.00  0.00    -0.304 N 
ATOM     27  C   UNL     1      -2.578   3.828   0.046  0.00  0.00    +0.245 C 
ATOM     28  O   UNL     1      -2.614   5.040   0.144  0.00  0.00    -0.270 OA
ATOM     29  H   UNL     1      -3.696   2.159  -0.126  0.00  0.00    +0.149 HD
BRANCH  27  30
ATOM     30  C   UNL     1      -1.280   3.128   0.031  0.00  0.00    +0.044 A 
ATOM     31  C   UNL     1      -1.231   1.742   0.045  0.00  0.00    +0.013 A 
ATOM     32  C   UNL     1      -0.012   1.076   0.036  0.00  0.00    +0.001 A 
ATOM     33  C   UNL     1       1.165   1.761   0.001  0.00  0.00    +0.008 A 
ATOM     34  C   UNL     1       1.163   3.167  -0.020  0.00  0.00    -0.017 A 
ATOM     35  C   UNL     1      -0.069   3.863  -0.006  0.00  0.00    -0.006 A 
ATOM     36  C   UNL     1      -0.070   5.264  -0.028  0.00  0.00    +0.009 A 
ATOM     37  C   UNL     1       1.113   5.939  -0.062  0.00  0.00    +0.001 A 
ATOM     38  C   UNL     1       2.327   5.256  -0.076  0.00  0.00    +0.001 A 
ATOM     39  C   UNL     1       2.365   3.895  -0.056  0.00  0.00    +0.008 A 
ENDBRANCH  27  30
ENDBRANCH  25  26
ENDBRANCH   2  25
TORSDOF 7
