REMARK  Name = ZINC63698952
REMARK  4 active torsions:
REMARK  status: ('A' for Active; 'I' for Inactive)
REMARK    1  A    between atoms: C_1  and  C_2
REMARK    2  A    between atoms: C_4  and  C_23
REMARK    3  A    between atoms: N_12  and  C_14
REMARK    4  A    between atoms: C_26  and  C_29
REMARK                            x       y       z     vdW  Elec       q    Type
REMARK                         _______ _______ _______ _____ _____    ______ ____
ROOT
ATOM      1  C   UNL     1       0.239   1.463  -0.871  0.00  0.00    +0.062 C 
ATOM      2  C   UNL     1       0.071  -0.032  -0.788  0.00  0.00    +0.019 C 
ATOM      3  C   UNL     1      -1.016  -0.629  -0.390  0.00  0.00    -0.008 C 
ATOM      4  C   UNL     1      -2.390  -0.087  -0.083  0.00  0.00    +0.058 C 
ATOM      5  C   UNL     1      -3.345  -0.748  -1.089  0.00  0.00    +0.108 C 
ATOM      6  C   UNL     1      -2.977  -2.172  -1.353  0.00  0.00    +0.215 C 
ATOM      7  O   UNL     1      -3.850  -2.872  -1.821  0.00  0.00    -0.276 OA
ATOM      8  N   UNL     1      -1.802  -2.763  -1.133  0.00  0.00    -0.295 N 
ATOM      9  C   UNL     1      -0.732  -2.123  -0.379  0.00  0.00    +0.194 C 
ATOM     10  N   UNL     1       0.584  -2.232  -1.018  0.00  0.00    -0.164 NA
ATOM     11  N   UNL     1       1.052  -0.949  -1.133  0.00  0.00    -0.277 N 
ATOM     12  H   UNL     1      -1.654  -3.653  -1.488  0.00  0.00    +0.151 HD
ATOM     13  H   UNL     1       1.950  -0.715  -1.414  0.00  0.00    +0.166 HD
ENDROOT
BRANCH  10  14
ATOM     14  C   UNL     1       0.476  -2.867  -2.339  0.00  0.00    +0.270 C 
ATOM     15  N   UNL     1       1.807  -2.992  -2.948  0.00  0.00    -0.350 N 
ATOM     16  C   UNL     1       1.794  -2.311  -4.057  0.00  0.00    +0.061 A 
ATOM     17  C   UNL     1       2.810  -2.062  -5.088  0.00  0.00    +0.027 A 
ATOM     18  C   UNL     1       2.502  -1.298  -6.155  0.00  0.00    +0.002 A 
ATOM     19  C   UNL     1       1.234  -0.717  -6.331  0.00  0.00    +0.002 A 
ATOM     20  C   UNL     1       0.230  -0.882  -5.446  0.00  0.00    +0.027 A 
ATOM     21  C   UNL     1       0.450  -1.698  -4.243  0.00  0.00    +0.061 A 
ATOM     22  N   UNL     1      -0.315  -2.022  -3.242  0.00  0.00    -0.350 N 
ATOM     23  H   UNL     1       2.558  -3.490  -2.589  0.00  0.00    +0.163 HD
ATOM     24  H   UNL     1      -1.239  -1.756  -3.115  0.00  0.00    +0.163 HD
ENDBRANCH  10  14
BRANCH   4  25
ATOM     25  C   UNL     1      -2.407   1.410  -0.255  0.00  0.00    -0.040 A 
ATOM     26  C   UNL     1      -2.501   1.956  -1.522  0.00  0.00    +0.005 A 
ATOM     27  C   UNL     1      -2.518   3.326  -1.687  0.00  0.00    +0.019 A 
ATOM     28  C   UNL     1      -2.440   4.161  -0.570  0.00  0.00    +0.052 A 
ATOM     29  C   UNL     1      -2.346   3.602   0.706  0.00  0.00    +0.019 A 
ATOM     30  C   UNL     1      -2.335   2.231   0.857  0.00  0.00    +0.005 A 
BRANCH  28  31
ATOM     31  C   UNL     1      -2.456   5.583  -0.734  0.00  0.00    +0.099 C 
ATOM     32  N   UNL     1      -2.469   6.712  -0.863  0.00  0.00    -0.191 NA
ENDBRANCH  28  31
ENDBRANCH   4  25
TORSDOF 3
