REMARK  Name = ZINC39605922
REMARK  8 active torsions:
REMARK  status: ('A' for Active; 'I' for Inactive)
REMARK    1  A    between atoms: C_1  and  C_2
REMARK    2  A    between atoms: C_2  and  C_3
REMARK    3  A    between atoms: C_3  and  C_5
REMARK    4  A    between atoms: C_3  and  C_6
REMARK    5  A    between atoms: C_6  and  N_7
REMARK    6  A    between atoms: C_8  and  C_10
REMARK    7  A    between atoms: C_21  and  C_23
REMARK    8  A    between atoms: C_26  and  C_30
REMARK                            x       y       z     vdW  Elec       q    Type
REMARK                         _______ _______ _______ _____ _____    ______ ____
ROOT
ATOM      1  C   UNL     1       2.000  -4.347  -3.695  0.00  0.00    +0.100 C 
ATOM      2  C   UNL     1       1.551  -4.040  -5.141  0.00  0.00    +0.121 C 
ATOM      3  N   UNL     1       1.959  -5.232  -5.920  0.00  0.00    -0.296 N 
ATOM      4  C   UNL     1       1.669  -6.376  -5.024  0.00  0.00    +0.115 C 
ATOM      5  C   UNL     1       2.076  -5.881  -3.622  0.00  0.00    -0.004 C 
ATOM      6  C   UNL     1       3.499  -6.325  -3.298  0.00  0.00    -0.010 C 
ATOM      7  C   UNL     1       3.537  -7.851  -3.175  0.00  0.00    -0.082 C 
ATOM      8  N   UNL     1       2.615  -8.281  -2.116  0.00  0.00    +0.379 N 
ATOM      9  C   UNL     1       1.237  -7.932  -2.479  0.00  0.00    -0.082 C 
ATOM     10  C   UNL     1       1.102  -6.410  -2.573  0.00  0.00    -0.010 C 
ATOM     11  C   UNL     1       2.477  -5.268  -7.164  0.00  0.00    +0.247 C 
ATOM     12  O   UNL     1       2.779  -4.234  -7.727  0.00  0.00    -0.270 OA
ATOM     13  H   UNL     1       2.687  -9.281  -1.995  0.00  0.00    -0.086 HD
ATOM     14  H   UNL     1       2.861  -7.823  -1.251  0.00  0.00    -0.086 HD
ENDROOT
BRANCH  11  15
ATOM     15  C   UNL     1       2.680  -6.566  -7.844  0.00  0.00    +0.040 A 
ATOM     16  C   UNL     1       1.970  -7.693  -7.426  0.00  0.00    +0.014 A 
ATOM     17  C   UNL     1       2.162  -8.901  -8.064  0.00  0.00    +0.016 A 
ATOM     18  C   UNL     1       3.056  -8.998  -9.116  0.00  0.00    +0.090 A 
ATOM     19  C   UNL     1       3.764  -7.884  -9.535  0.00  0.00    +0.136 A 
ATOM     20  C   UNL     1       3.576  -6.667  -8.908  0.00  0.00    +0.052 A 
ATOM     21  F   UNL     1       4.636  -7.986 -10.562  0.00  0.00    -0.205 F 
BRANCH  18  22
ATOM     22  C   UNL     1       3.260 -10.322  -9.807  0.00  0.00    +0.420 C 
ATOM     23  F   UNL     1       2.443 -11.289  -9.213  0.00  0.00    -0.166 F 
ATOM     24  F   UNL     1       2.926 -10.197 -11.160  0.00  0.00    -0.166 F 
ATOM     25  F   UNL     1       4.600 -10.707  -9.691  0.00  0.00    -0.166 F 
ENDBRANCH  18  22
ENDBRANCH  11  15
BRANCH   1  27
ATOM     26  N   UNL     1       1.384  -3.425  -1.484  0.00  0.00    -0.315 N 
ATOM     27  C   UNL     1       0.988  -3.824  -2.708  0.00  0.00    +0.218 C 
ATOM     28  O   UNL     1      -0.183  -3.763  -3.017  0.00  0.00    -0.275 OA
ATOM     29  H   UNL     1       2.321  -3.474  -1.237  0.00  0.00    +0.149 HD
BRANCH  26  30
ATOM     30  C   UNL     1       0.400  -2.916  -0.525  0.00  0.00    +0.107 C 
BRANCH  30  31
ATOM     31  C   UNL     1       1.106  -2.535   0.777  0.00  0.00    +0.003 C 
ATOM     32  C   UNL     1       2.059  -1.366   0.517  0.00  0.00    +0.009 C 
BRANCH  31  34
ATOM     33  C   UNL     1       0.759  -1.860   3.158  0.00  0.00    +0.004 C 
ATOM     34  C   UNL     1       0.065  -2.122   1.820  0.00  0.00    +0.001 C 
ENDBRANCH  31  34
ENDBRANCH  30  31
ENDBRANCH  26  30
ENDBRANCH   1  27
TORSDOF 6
