REMARK  Name = ZINC40004270
REMARK  4 active torsions:
REMARK  status: ('A' for Active; 'I' for Inactive)
REMARK    1  A    between atoms: C_1  and  C_2
REMARK    2  A    between atoms: C_3  and  C_21
REMARK    3  A    between atoms: C_12  and  C_13
REMARK    4  A    between atoms: C_21  and  C_22
REMARK                            x       y       z     vdW  Elec       q    Type
REMARK                         _______ _______ _______ _____ _____    ______ ____
ROOT
ATOM      1  C   UNL     1      -0.006   1.623  -0.918  0.00  0.00    +0.064 C 
ATOM      2  C   UNL     1      -0.064   0.128  -1.094  0.00  0.00    +0.035 A 
ATOM      3  C   UNL     1      -1.251  -0.482  -1.209  0.00  0.00    +0.043 A 
ATOM      4  C   UNL     1      -1.308  -1.891  -1.376  0.00  0.00    +0.278 A 
ATOM      5  O   UNL     1      -2.381  -2.465  -1.482  0.00  0.00    -0.265 OA
ATOM      6  N   UNL     1      -0.157  -2.578  -1.414  0.00  0.00    -0.184 NA
ATOM      7  C   UNL     1       0.994  -1.963  -1.300  0.00  0.00    +0.184 A 
ATOM      8  N   UNL     1       1.118  -0.607  -1.142  0.00  0.00    -0.258 N 
ATOM      9  C   UNL     1       2.350  -0.085  -1.041  0.00  0.00    +0.271 A 
ATOM     10  O   UNL     1       2.514   1.112  -0.895  0.00  0.00    -0.266 OA
ATOM     11  C   UNL     1       3.497  -1.001  -1.111  0.00  0.00    +0.081 A 
ATOM     12  C   UNL     1       4.825  -0.730  -1.036  0.00  0.00    +0.028 C 
ATOM     13  S   UNL     1       2.668  -2.571  -1.310  0.00  0.00    -0.046 S 
ENDROOT
BRANCH  12  14
ATOM     14  C   UNL     1       5.808  -1.794  -1.279  0.00  0.00    -0.024 A 
ATOM     15  C   UNL     1       7.166  -1.569  -1.026  0.00  0.00    +0.009 A 
ATOM     16  C   UNL     1       8.081  -2.573  -1.256  0.00  0.00    +0.020 A 
ATOM     17  C   UNL     1       7.660  -3.803  -1.737  0.00  0.00    +0.041 A 
ATOM     18  C   UNL     1       6.318  -4.033  -1.991  0.00  0.00    +0.020 A 
ATOM     19  C   UNL     1       5.389  -3.041  -1.760  0.00  0.00    +0.009 A 
ATOM     20 CL   UNL     1       8.821  -5.061  -2.024  0.00  0.00    -0.084 Cl
ENDBRANCH  12  14
BRANCH   3  21
ATOM     21  C   UNL     1      -2.523   0.325  -1.160  0.00  0.00    +0.077 C 
BRANCH  21  22
ATOM     22  C   UNL     1      -2.943   0.685  -2.562  0.00  0.00    -0.043 A 
ATOM     23  C   UNL     1      -2.434   1.819  -3.167  0.00  0.00    +0.004 A 
ATOM     24  C   UNL     1      -2.819   2.149  -4.453  0.00  0.00    +0.000 A 
ATOM     25  C   UNL     1      -3.714   1.345  -5.134  0.00  0.00    +0.000 A 
ATOM     26  C   UNL     1      -4.223   0.210  -4.529  0.00  0.00    +0.000 A 
ATOM     27  C   UNL     1      -3.834  -0.122  -3.245  0.00  0.00    +0.004 A 
ENDBRANCH  21  22
ENDBRANCH   3  21
TORSDOF 3
