REMARK  Name = ZINC20791977
REMARK  8 active torsions:
REMARK  status: ('A' for Active; 'I' for Inactive)
REMARK    1  A    between atoms: C_1  and  C_2
REMARK    2  A    between atoms: C_2  and  C_3
REMARK    3  A    between atoms: C_2  and  C_4
REMARK    4  A    between atoms: C_7  and  C_10
REMARK    5  A    between atoms: C_19  and  C_27
REMARK    6  A    between atoms: C_20  and  N_26
REMARK    7  A    between atoms: C_21  and  C_22
REMARK    8  A    between atoms: C_21  and  C_24
REMARK                            x       y       z     vdW  Elec       q    Type
REMARK                         _______ _______ _______ _____ _____    ______ ____
ROOT
ATOM      1  C   UNL     1      -0.000   4.258   0.457  0.00  0.00    +0.066 C 
ATOM      2  C   UNL     1       1.032   3.467  -0.349  0.00  0.00    +0.030 C 
ATOM      3  C   UNL     1       2.422   4.039  -0.210  0.00  0.00    +0.009 C 
ATOM      4  C   UNL     1       3.270   3.247   0.783  0.00  0.00    +0.005 C 
ATOM      5  C   UNL     1       3.342   1.791   0.304  0.00  0.00    +0.027 C 
ATOM      6  C   UNL     1       1.939   1.242   0.295  0.00  0.00    -0.022 C 
ATOM      7  C   UNL     1       0.909   2.019   0.022  0.00  0.00    -0.029 C 
ATOM      8  C   UNL     1      -0.465   1.456   0.079  0.00  0.00    +0.074 C 
ATOM      9  C   UNL     1      -1.527   2.301   0.101  0.00  0.00    +0.054 C 
ATOM     10  C   UNL     1      -1.401   3.793   0.057  0.00  0.00    +0.188 C 
ENDROOT
BRANCH   1  14
ATOM     11  C   UNL     1       0.600   3.558   4.628  0.00  0.00    -0.045 A 
ATOM     12  C   UNL     1       1.186   4.652   4.020  0.00  0.00    +0.004 A 
ATOM     13  C   UNL     1       0.992   4.879   2.670  0.00  0.00    +0.004 A 
ATOM     14  C   UNL     1       0.211   4.011   1.929  0.00  0.00    -0.041 A 
ATOM     15  C   UNL     1      -0.379   2.920   2.539  0.00  0.00    +0.004 A 
ATOM     16  C   UNL     1      -0.181   2.691   3.888  0.00  0.00    +0.004 A 
BRANCH  11  18
ATOM     17  C   UNL     1      -0.538   3.324   6.819  0.00  0.00    +0.012 C 
ATOM     18  C   UNL     1       0.812   3.312   6.100  0.00  0.00    +0.013 C 
ATOM     19  C   UNL     1       1.483   1.951   6.297  0.00  0.00    +0.012 C 
ENDBRANCH  11  18
ENDBRANCH   1  14
BRANCH   9  20
ATOM     20  N   UNL     1      -2.780   1.761   0.172  0.00  0.00    -0.358 N 
ATOM     21  H   UNL     1      -3.662   2.418   0.191  0.00  0.00    +0.142 HD
ATOM     22  H   UNL     1      -2.907   0.669   0.210  0.00  0.00    +0.142 HD
ENDBRANCH   9  20
BRANCH  10  23
ATOM     23  C   UNL     1      -2.385   4.389   0.975  0.00  0.00    +0.091 C 
ATOM     24  N   UNL     1      -3.145   4.848   1.684  0.00  0.00    -0.194 NA
ENDBRANCH  10  23
BRANCH  10  25
ATOM     25  C   UNL     1      -1.685   4.252  -1.313  0.00  0.00    +0.091 C 
ATOM     26  N   UNL     1      -1.905   4.606  -2.370  0.00  0.00    -0.194 NA
ENDBRANCH  10  25
BRANCH   8  27
ATOM     27  C   UNL     1      -0.667   0.038   0.105  0.00  0.00    +0.101 C 
ATOM     28  N   UNL     1      -0.827  -1.086   0.126  0.00  0.00    -0.191 NA
ENDBRANCH   8  27
TORSDOF 6
