REMARK  Name = ZINC10156504
REMARK  6 active torsions:
REMARK  status: ('A' for Active; 'I' for Inactive)
REMARK    1  A    between atoms: C_1  and  C_2
REMARK    2  A    between atoms: C_6  and  N_8
REMARK    3  A    between atoms: C_17  and  C_19
REMARK    4  A    between atoms: C_19  and  S_20
REMARK    5  A    between atoms: S_20  and  C_21
REMARK    6  A    between atoms: C_24  and  C_26
REMARK                            x       y       z     vdW  Elec       q    Type
REMARK                         _______ _______ _______ _____ _____    ______ ____
ROOT
ATOM      1  N   UNL     1      -1.816   0.653   0.263  0.00  0.00    -0.328 N 
ATOM      2  C   UNL     1      -1.028   1.678   0.735  0.00  0.00    +0.180 C 
ATOM      3  N   UNL     1       0.079   1.396   1.510  0.00  0.00    -0.298 N 
ATOM      4  C   UNL     1       0.888   2.416   1.949  0.00  0.00    +0.211 A 
ATOM      5  N   UNL     1       1.976   2.125   2.712  0.00  0.00    -0.293 N 
ATOM      6  H   UNL     1       2.175   1.204   2.943  0.00  0.00    +0.172 HD
ATOM      7  C   UNL     1       2.779   3.121   3.142  0.00  0.00    +0.253 A 
ATOM      8  O   UNL     1       3.761   2.877   3.823  0.00  0.00    -0.268 OA
ATOM      9  C   UNL     1       2.458   4.446   2.794  0.00  0.00    +0.094 A 
ATOM     10  C   UNL     1       1.351   4.677   2.031  0.00  0.00    +0.060 A 
ATOM     11  N   UNL     1       0.594   3.659   1.627  0.00  0.00    -0.218 NA
ATOM     12  H   UNL     1      -2.641   0.853  -0.206  0.00  0.00    +0.169 HD
ATOM     13  H   UNL     1      -2.121   3.217  -0.026  0.00  0.00    +0.159 HD
ATOM     14  H   UNL     1       0.288   0.477   1.742  0.00  0.00    +0.172 HD
ATOM     15  N   UNL     1      -1.273   2.953   0.476  0.00  0.00    -0.371 N 
ATOM     16  H   UNL     1      -0.610   3.675   0.781  0.00  0.00    +0.159 HD
ENDROOT
BRANCH   1  22
ATOM     17  C   UNL     1      -3.044  -4.053   0.976  0.00  0.00    +0.044 C 
ATOM     18  C   UNL     1      -2.001  -2.978   0.808  0.00  0.00    -0.049 A 
ATOM     19  C   UNL     1      -0.658  -3.305   0.847  0.00  0.00    +0.003 A 
ATOM     20  C   UNL     1       0.301  -2.322   0.692  0.00  0.00    +0.002 A 
ATOM     21  C   UNL     1      -0.080  -1.009   0.494  0.00  0.00    +0.026 A 
ATOM     22  C   UNL     1      -1.427  -0.676   0.459  0.00  0.00    +0.042 A 
ATOM     23  C   UNL     1      -2.389  -1.667   0.615  0.00  0.00    +0.029 A 
ENDBRANCH   1  22
BRANCH  10  24
ATOM     24  C   UNL     1       0.985   6.087   1.645  0.00  0.00    +0.132 C 
BRANCH  24  25
ATOM     25  S   UNL     1       1.399   6.362  -0.095  0.00  0.00    -0.091 S 
BRANCH  25  26
ATOM     26  C   UNL     1       0.881   8.037  -0.271  0.00  0.00    +0.159 A 
ATOM     27  N   UNL     1       0.341   8.862   0.617  0.00  0.00    -0.135 NA
ATOM     28  N   UNL     1       0.026  10.046   0.319  0.00  0.00    -0.146 NA
ATOM     29  C   UNL     1       0.210  10.539  -0.889  0.00  0.00    +0.100 A 
ATOM     30  S   UNL     1       0.938   9.117  -1.698  0.00  0.00    -0.044 S 
ATOM     31  C   UNL     1      -0.098  11.911  -1.433  0.00  0.00    +0.075 C 
ENDBRANCH  25  26
ENDBRANCH  24  25
ENDBRANCH  10  24
TORSDOF 4
