REMARK  Name = ZINC04223761
REMARK  7 active torsions:
REMARK  status: ('A' for Active; 'I' for Inactive)
REMARK    1  A    between atoms: C_1  and  C_2
REMARK    2  A    between atoms: C_5  and  N_9
REMARK    3  A    between atoms: C_6  and  C_8
REMARK    4  A    between atoms: N_9  and  C_10
REMARK    5  A    between atoms: C_10  and  N_12
REMARK    6  A    between atoms: C_20  and  C_22
REMARK    7  A    between atoms: C_25  and  N_28
REMARK                            x       y       z     vdW  Elec       q    Type
REMARK                         _______ _______ _______ _____ _____    ______ ____
ROOT
ATOM      1  N   UNL     1      -0.027  -0.046  -0.180  0.00  0.00    -0.298 N 
ATOM      2  C   UNL     1       1.089  -0.690  -0.889  0.00  0.00    +0.129 C 
ATOM      3  C   UNL     1       2.410  -0.077  -0.414  0.00  0.00    +0.140 C 
ATOM      4  N   UNL     1       2.286   1.385  -0.396  0.00  0.00    -0.347 N 
ATOM      5  C   UNL     1       3.301   2.292  -0.379  0.00  0.00    +0.086 A 
ATOM      6  C   UNL     1       2.762   3.529  -0.354  0.00  0.00    +0.019 A 
ATOM      7  C   UNL     1       1.359   3.380  -0.358  0.00  0.00    +0.025 A 
ATOM      8  C   UNL     1       1.098   2.064  -0.388  0.00  0.00    +0.044 A 
ATOM      9  C   UNL     1      -0.256   1.393  -0.410  0.00  0.00    +0.152 C 
ENDROOT
BRANCH   9  10
ATOM     10  C   UNL     1      -0.911   1.602  -1.752  0.00  0.00    -0.021 A 
ATOM     11  C   UNL     1      -0.239   1.257  -2.910  0.00  0.00    +0.008 A 
ATOM     12  C   UNL     1      -0.842   1.444  -4.140  0.00  0.00    +0.033 A 
ATOM     13  C   UNL     1      -2.112   1.985  -4.212  0.00  0.00    +0.126 A 
ATOM     14  C   UNL     1      -2.782   2.334  -3.054  0.00  0.00    +0.033 A 
ATOM     15  C   UNL     1      -2.181   2.143  -1.824  0.00  0.00    +0.008 A 
BRANCH  13  16
ATOM     16  N   UNL     1      -2.755   2.191  -5.529  0.00  0.00    +0.056 N 
ATOM     17  O   UNL     1      -3.874   2.667  -5.593  0.00  0.00    -0.126 OA
ATOM     18  O   UNL     1      -2.166   1.883  -6.550  0.00  0.00    -0.126 OA
ENDBRANCH  13  16
ENDBRANCH   9  10
BRANCH   1  19
ATOM     19  C   UNL     1      -0.818  -0.749   0.654  0.00  0.00    +0.138 C 
ATOM     20  S   UNL     1      -2.191  -0.009   1.360  0.00  0.00    -0.018 S 
BRANCH  19  21
ATOM     21  N   UNL     1      -0.528  -2.036   0.932  0.00  0.00    -0.297 N 
ATOM     22  H   UNL     1       0.286  -2.435   0.588  0.00  0.00    +0.154 HD
BRANCH  21  27
ATOM     23  C   UNL     1      -4.071  -5.118   4.114  0.00  0.00    +0.044 C 
ATOM     24  C   UNL     1      -3.131  -4.299   3.269  0.00  0.00    -0.050 A 
ATOM     25  C   UNL     1      -2.776  -3.024   3.669  0.00  0.00    +0.005 A 
ATOM     26  C   UNL     1      -1.910  -2.273   2.899  0.00  0.00    +0.024 A 
ATOM     27  C   UNL     1      -1.403  -2.796   1.716  0.00  0.00    +0.036 A 
ATOM     28  C   UNL     1      -1.761  -4.077   1.317  0.00  0.00    -0.029 A 
ATOM     29  C   UNL     1      -2.623  -4.825   2.095  0.00  0.00    +0.008 A 
ATOM     30  C   UNL     1      -1.209  -4.650   0.038  0.00  0.00    +0.045 C 
ENDBRANCH  21  27
ENDBRANCH  19  21
ENDBRANCH   1  19
TORSDOF 5
