REMARK  Name = ZINC35834650
REMARK  8 active torsions:
REMARK  status: ('A' for Active; 'I' for Inactive)
REMARK    1  A    between atoms: C_1  and  C_2
REMARK    2  A    between atoms: C_7  and  C_8
REMARK    3  A    between atoms: C_8  and  N_9
REMARK    4  A    between atoms: C_16  and  C_18
REMARK    5  A    between atoms: N_20  and  C_21
REMARK    6  A    between atoms: C_21  and  C_23
REMARK    7  A    between atoms: C_21  and  C_24
REMARK    8  A    between atoms: C_32  and  C_34
REMARK                            x       y       z     vdW  Elec       q    Type
REMARK                         _______ _______ _______ _____ _____    ______ ____
ROOT
ATOM      1  N   UNL     1      -1.426  -2.217   4.625  0.00  0.00    -0.292 N 
ATOM      2  C   UNL     1      -1.819  -1.215   3.647  0.00  0.00    +0.110 C 
ATOM      3  C   UNL     1      -2.503  -1.802   2.414  0.00  0.00    +0.042 C 
ATOM      4  C   UNL     1      -3.531  -2.856   2.842  0.00  0.00    +0.146 C 
ATOM      5  N   UNL     1      -4.282  -2.380   4.006  0.00  0.00    -0.258 N 
ATOM      6  C   UNL     1      -3.737  -2.269   5.259  0.00  0.00    +0.124 A 
ATOM      7  C   UNL     1      -4.696  -1.793   6.089  0.00  0.00    +0.067 A 
ATOM      8  C   UNL     1      -5.838  -1.631   5.273  0.00  0.00    +0.148 A 
ATOM      9  N   UNL     1      -5.508  -2.004   4.049  0.00  0.00    -0.166 NA
ATOM     10  C   UNL     1      -2.335  -2.644   5.536  0.00  0.00    +0.265 C 
ATOM     11  O   UNL     1      -2.018  -3.288   6.518  0.00  0.00    -0.268 OA
ENDROOT
BRANCH   8  12
ATOM     12  C   UNL     1      -7.160  -1.135   5.709  0.00  0.00    +0.265 C 
ATOM     13  O   UNL     1      -7.339  -0.822   6.870  0.00  0.00    -0.268 OA
ATOM     14  N   UNL     1      -8.167  -1.030   4.819  0.00  0.00    -0.299 N 
ATOM     15  H   UNL     1      -8.024  -1.280   3.893  0.00  0.00    +0.150 HD
BRANCH  14  16
ATOM     16  C   UNL     1      -9.478  -0.538   5.251  0.00  0.00    +0.156 C 
ATOM     17  C   UNL     1      -9.485   0.991   5.218  0.00  0.00    +0.038 C 
BRANCH  16  18
ATOM     18  C   UNL     1     -10.543  -1.066   4.325  0.00  0.00    +0.236 C 
ATOM     19  O   UNL     1     -10.257  -1.378   3.188  0.00  0.00    -0.274 OA
ATOM     20  N   UNL     1     -11.813  -1.190   4.759  0.00  0.00    -0.297 N 
ATOM     21  C   UNL     1     -12.193  -0.727   6.101  0.00  0.00    +0.127 C 
ATOM     22  C   UNL     1     -13.358   0.262   5.965  0.00  0.00    +0.126 C 
ATOM     23  N   UNL     1     -14.387  -0.339   5.105  0.00  0.00    -0.299 N 
ATOM     24  C   UNL     1     -14.006  -0.803   3.764  0.00  0.00    +0.126 C 
ATOM     25  C   UNL     1     -12.843  -1.786   3.897  0.00  0.00    +0.127 C 
ATOM     26  C   UNL     1     -15.657  -0.464   5.540  0.00  0.00    +0.213 C 
ATOM     27  O   UNL     1     -15.977  -0.006   6.616  0.00  0.00    -0.276 OA
ATOM     28  C   UNL     1     -16.678  -1.172   4.688  0.00  0.00    +0.109 C 
ENDBRANCH  16  18
ENDBRANCH  14  16
ENDBRANCH   8  12
BRANCH   1  29
ATOM     29  C   UNL     1      -0.067  -2.764   4.623  0.00  0.00    +0.143 C 
BRANCH  29  36
ATOM     30  C   UNL     1      -0.964  -5.405   5.374  0.00  0.00    +0.044 C 
ATOM     31  C   UNL     1      -0.412  -5.161   3.993  0.00  0.00    -0.046 A 
ATOM     32  C   UNL     1      -0.341  -6.200   3.084  0.00  0.00    +0.003 A 
ATOM     33  C   UNL     1       0.165  -5.977   1.817  0.00  0.00    +0.000 A 
ATOM     34  C   UNL     1       0.600  -4.714   1.460  0.00  0.00    +0.000 A 
ATOM     35  C   UNL     1       0.527  -3.675   2.368  0.00  0.00    +0.005 A 
ATOM     36  C   UNL     1       0.017  -3.898   3.634  0.00  0.00    -0.027 A 
ENDBRANCH  29  36
ENDBRANCH   1  29
TORSDOF 5
