REMARK  Name = ZINC39525874
REMARK  4 active torsions:
REMARK  status: ('A' for Active; 'I' for Inactive)
REMARK    1  A    between atoms: C_4  and  S_7
REMARK    2  A    between atoms: S_7  and  C_10
REMARK    3  A    between atoms: C_20  and  C_24
REMARK    4  A    between atoms: C_29  and  O_30
REMARK                            x       y       z     vdW  Elec       q    Type
REMARK                         _______ _______ _______ _____ _____    ______ ____
ROOT
ATOM      1  C   UNL     1       4.359  -1.068   1.707  0.00  0.00    +0.138 C 
ATOM      2  C   UNL     1       3.262  -1.885   2.393  0.00  0.00    +0.027 C 
ATOM      3  C   UNL     1       3.621  -2.085   3.867  0.00  0.00    +0.004 C 
ATOM      4  C   UNL     1       4.953  -2.830   3.971  0.00  0.00    +0.023 C 
ATOM      5  C   UNL     1       6.050  -2.011   3.286  0.00  0.00    +0.034 C 
ATOM      6  C   UNL     1       5.691  -1.813   1.812  0.00  0.00    +0.049 C 
ATOM      7  C   UNL     1       6.168  -0.647   3.968  0.00  0.00    +0.023 C 
ATOM      8  C   UNL     1       6.548  -0.847   5.438  0.00  0.00    +0.004 C 
ATOM      9  C   UNL     1       7.860  -1.633   5.516  0.00  0.00    +0.024 C 
ATOM     10  C   UNL     1       7.692  -2.969   4.789  0.00  0.00    +0.101 C 
ATOM     11  N   UNL     1       7.330  -2.724   3.387  0.00  0.00    -0.233 NA
ATOM     12  I   UNL     1       7.282  -4.476   2.323  0.00  0.00    +0.022 I 
ENDROOT
BRANCH  10  13
ATOM     13  C   UNL     1       8.987  -3.738   4.846  0.00  0.00    +0.012 A 
ATOM     14  C   UNL     1       9.887  -3.654   3.801  0.00  0.00    +0.009 A 
ATOM     15  C   UNL     1      11.075  -4.359   3.852  0.00  0.00    +0.001 A 
ATOM     16  C   UNL     1      11.365  -5.150   4.948  0.00  0.00    +0.004 A 
ATOM     17  C   UNL     1      10.469  -5.237   5.995  0.00  0.00    +0.046 A 
ATOM     18  C   UNL     1       9.278  -4.527   5.949  0.00  0.00    +0.122 A 
BRANCH  18  19
ATOM     19  O   UNL     1       8.397  -4.606   6.981  0.00  0.00    -0.506 OA
ATOM     20  H   UNL     1       7.749  -5.319   6.890  0.00  0.00    +0.292 HD
ENDBRANCH  18  19
ENDBRANCH  10  13
BRANCH   1  21
ATOM     21  S   UNL     1       3.934  -0.832  -0.041  0.00  0.00    -0.000 S 
ATOM     22  O   UNL     1       3.641  -2.083  -0.647  0.00  0.00    -0.169 OA
ATOM     23  O   UNL     1       4.846   0.072  -0.648  0.00  0.00    -0.169 OA
BRANCH  21  27
ATOM     24  C   UNL     1      -0.017   1.378   0.010  0.00  0.00    +0.000 A 
ATOM     25  C   UNL     1       1.171   2.086   0.002  0.00  0.00    +0.002 A 
ATOM     26  C   UNL     1       2.377   1.411  -0.013  0.00  0.00    +0.027 A 
ATOM     27  C   UNL     1       2.396   0.029  -0.020  0.00  0.00    +0.088 A 
ATOM     28  C   UNL     1       1.208  -0.679  -0.012  0.00  0.00    +0.027 A 
ATOM     29  C   UNL     1       0.002  -0.004   0.002  0.00  0.00    +0.002 A 
ENDBRANCH  21  27
ENDBRANCH   1  21
TORSDOF 4
