REMARK  Name = ZINC39951385
REMARK  6 active torsions:
REMARK  status: ('A' for Active; 'I' for Inactive)
REMARK    1  A    between atoms: C_1  and  C_2
REMARK    2  A    between atoms: C_2  and  C_3
REMARK    3  A    between atoms: C_2  and  C_4
REMARK    4  A    between atoms: C_9  and  C_24
REMARK    5  A    between atoms: C_15  and  C_17
REMARK    6  A    between atoms: C_20  and  O_23
REMARK                            x       y       z     vdW  Elec       q    Type
REMARK                         _______ _______ _______ _____ _____    ______ ____
ROOT
ATOM      1  C   UNL     1       0.852  -0.065  -1.474  0.00  0.00    +0.043 C 
ATOM      2  C   UNL     1      -0.008   0.173  -2.676  0.00  0.00    -0.003 C 
ATOM      3  C   UNL     1       0.331  -0.629  -3.883  0.00  0.00    -0.075 C 
ATOM      4  N   UNL     1       1.734  -0.879  -4.103  0.00  0.00    +0.393 N 
ATOM      5  C   UNL     1       2.669   0.163  -3.805  0.00  0.00    -0.061 C 
ATOM      6  C   UNL     1       3.216   0.235  -2.390  0.00  0.00    +0.025 C 
ATOM      7  C   UNL     1       2.113   0.742  -1.487  0.00  0.00    +0.146 C 
ATOM      8  O   UNL     1       2.249   1.738  -0.818  0.00  0.00    -0.296 OA
ATOM      9  C   UNL     1       3.544  -1.175  -1.872  0.00  0.00    +0.095 C 
ATOM     10  N   UNL     1       2.337  -1.991  -2.067  0.00  0.00    -0.310 NA
ATOM     11  C   UNL     1       1.183  -1.545  -1.296  0.00  0.00    +0.097 C 
ATOM     12  C   UNL     1       2.087  -2.170  -3.496  0.00  0.00    +0.033 C 
ATOM     13  C   UNL     1       4.440   1.150  -2.328  0.00  0.00    +0.018 C 
ATOM     14  H   UNL     1       1.825  -1.027  -5.097  0.00  0.00    -0.079 HD
ENDROOT
BRANCH  12  15
ATOM     15  C   UNL     1       3.327  -2.713  -4.159  0.00  0.00    -0.047 A 
ATOM     16  C   UNL     1       4.123  -3.625  -3.490  0.00  0.00    +0.007 A 
ATOM     17  C   UNL     1       5.260  -4.124  -4.095  0.00  0.00    +0.045 A 
ATOM     18  C   UNL     1       5.604  -3.709  -5.374  0.00  0.00    +0.117 A 
ATOM     19  C   UNL     1       4.803  -2.794  -6.042  0.00  0.00    +0.045 A 
ATOM     20  C   UNL     1       3.664  -2.302  -5.435  0.00  0.00    +0.007 A 
BRANCH  18  21
ATOM     21  O   UNL     1       6.722  -4.198  -5.971  0.00  0.00    -0.507 OA
ATOM     22  H   UNL     1       6.574  -5.003  -6.485  0.00  0.00    +0.292 HD
ENDBRANCH  18  21
ENDBRANCH  12  15
BRANCH   1  24
ATOM     23  C   UNL     1      -1.215  -0.487  -0.135  0.00  0.00    +0.008 C 
ATOM     24  C   UNL     1       0.048   0.369  -0.246  0.00  0.00    -0.003 C 
ATOM     25  C   UNL     1       0.900   0.188   1.012  0.00  0.00    +0.008 C 
ENDBRANCH   1  24
TORSDOF 3
