REMARK  Name = ZINC38932189
REMARK  8 active torsions:
REMARK  status: ('A' for Active; 'I' for Inactive)
REMARK    1  A    between atoms: C_1  and  C_2
REMARK    2  A    between atoms: C_2  and  C_3
REMARK    3  A    between atoms: C_2  and  C_4
REMARK    4  A    between atoms: C_2  and  C_5
REMARK    5  A    between atoms: C_8  and  C_11
REMARK    6  A    between atoms: N_17  and  N_18
REMARK    7  A    between atoms: C_19  and  C_20
REMARK    8  A    between atoms: C_21  and  C_22
REMARK                            x       y       z     vdW  Elec       q    Type
REMARK                         _______ _______ _______ _____ _____    ______ ____
ROOT
ATOM      1  C   UNL     1       3.646  -2.894  -5.293  0.00  0.00    +0.264 C 
ATOM      2  N   UNL     1       2.994  -3.271  -6.556  0.00  0.00    -0.189 NA
ATOM      3  N   UNL     1       3.349  -2.471  -7.426  0.00  0.00    -0.219 N 
ATOM      4  C   UNL     1       4.205  -1.520  -6.966  0.00  0.00    +0.174 C 
ATOM      5  S   UNL     1       4.880  -0.267  -7.917  0.00  0.00    -0.015 S 
ATOM      6  N   UNL     1       4.447  -1.707  -5.647  0.00  0.00    -0.172 N 
ATOM      7  H   UNL     1       3.049  -2.517  -8.347  0.00  0.00    +0.176 HD
ENDROOT
BRANCH   1  11
ATOM      8  C   UNL     1       0.728  -1.907  -2.333  0.00  0.00    -0.042 A 
ATOM      9  C   UNL     1       0.456  -2.882  -3.275  0.00  0.00    +0.004 A 
ATOM     10  C   UNL     1       1.400  -3.202  -4.232  0.00  0.00    +0.008 A 
ATOM     11  C   UNL     1       2.616  -2.545  -4.250  0.00  0.00    -0.002 A 
ATOM     12  C   UNL     1       2.888  -1.569  -3.309  0.00  0.00    +0.008 A 
ATOM     13  C   UNL     1       1.942  -1.247  -2.354  0.00  0.00    +0.004 A 
BRANCH   8  15
ATOM     14  C   UNL     1      -0.685  -0.084  -1.423  0.00  0.00    +0.015 C 
ATOM     15  C   UNL     1      -0.301  -1.559  -1.289  0.00  0.00    -0.013 C 
ATOM     16  C   UNL     1       0.280  -1.811   0.103  0.00  0.00    +0.015 C 
ATOM     17  C   UNL     1      -1.544  -2.429  -1.488  0.00  0.00    +0.015 C 
ENDBRANCH   8  15
ENDBRANCH   1  11
BRANCH   6  18
ATOM     18  N   UNL     1       5.271  -0.947  -4.806  0.00  0.00    -0.183 NA
ATOM     19  C   UNL     1       5.998   0.014  -5.302  0.00  0.00    +0.146 C 
BRANCH  19  20
ATOM     20  C   UNL     1       6.932   0.693  -4.479  0.00  0.00    +0.038 C 
ATOM     21  C   UNL     1       7.674   1.700  -4.988  0.00  0.00    +0.024 C 
ATOM     22 BR   UNL     1       7.138   0.189  -2.668  0.00  0.00    -0.049 Br
BRANCH  21  23
ATOM     23  C   UNL     1       7.388   2.216  -6.336  0.00  0.00    -0.024 A 
ATOM     24  C   UNL     1       6.065   2.401  -6.752  0.00  0.00    +0.008 A 
ATOM     25  C   UNL     1       5.805   2.885  -8.016  0.00  0.00    +0.001 A 
ATOM     26  C   UNL     1       6.849   3.187  -8.874  0.00  0.00    +0.000 A 
ATOM     27  C   UNL     1       8.160   3.006  -8.470  0.00  0.00    +0.001 A 
ATOM     28  C   UNL     1       8.437   2.529  -7.207  0.00  0.00    +0.008 A 
ENDBRANCH  21  23
ENDBRANCH  19  20
ENDBRANCH   6  18
TORSDOF 5
