REMARK  Name = ZINC47145477
REMARK  2 active torsions:
REMARK  status: ('A' for Active; 'I' for Inactive)
REMARK    1  A    between atoms: C_6  and  C_7
REMARK    2  A    between atoms: N_23  and  C_26
REMARK                            x       y       z     vdW  Elec       q    Type
REMARK                         _______ _______ _______ _____ _____    ______ ____
ROOT
ATOM      1  C   UNL     1      -1.293  -0.775   0.011  0.00  0.00    +0.072 C 
ATOM      2  C   UNL     1      -1.377  -1.547  -1.248  0.00  0.00    +0.033 A 
ATOM      3  C   UNL     1      -1.827  -2.799  -1.457  0.00  0.00    +0.088 A 
ATOM      4  N   UNL     1      -1.818  -3.217  -2.765  0.00  0.00    -0.311 N 
ATOM      5  H   UNL     1      -2.154  -4.097  -2.997  0.00  0.00    +0.170 HD
ATOM      6  C   UNL     1      -1.341  -2.404  -3.726  0.00  0.00    +0.289 A 
ATOM      7  O   UNL     1      -1.252  -2.617  -4.922  0.00  0.00    -0.260 OA
ATOM      8  S   UNL     1      -0.898  -1.021  -2.877  0.00  0.00    -0.030 S 
ATOM      9  S   UNL     1      -2.349  -3.802  -0.089  0.00  0.00    -0.093 S 
ATOM     10  C   UNL     1      -2.447  -2.662   1.283  0.00  0.00    +0.152 C 
ATOM     11  C   UNL     1      -1.354  -1.586   1.302  0.00  0.00    +0.110 C 
ATOM     12  C   UNL     1      -2.043  -0.622   2.295  0.00  0.00    +0.232 C 
ATOM     13  O   UNL     1      -1.496   0.124   3.078  0.00  0.00    -0.274 OA
ATOM     14  N   UNL     1      -3.373  -0.771   2.119  0.00  0.00    -0.209 N 
ATOM     15  C   UNL     1      -3.705  -1.855   1.389  0.00  0.00    +0.240 C 
ATOM     16  O   UNL     1      -4.793  -2.125   0.927  0.00  0.00    -0.274 OA
ENDROOT
BRANCH   1  22
ATOM     17  C   UNL     1      -0.017   1.378   0.010  0.00  0.00    +0.006 A 
ATOM     18  C   UNL     1       1.171   2.086   0.002  0.00  0.00    +0.020 A 
ATOM     19  C   UNL     1       2.378   1.410  -0.013  0.00  0.00    +0.041 A 
ATOM     20  C   UNL     1       2.396   0.027  -0.021  0.00  0.00    +0.020 A 
ATOM     21  C   UNL     1       1.208  -0.679  -0.013  0.00  0.00    +0.006 A 
ATOM     22  C   UNL     1       0.002  -0.004   0.002  0.00  0.00    -0.039 A 
ATOM     23 CL   UNL     1       3.870   2.298  -0.023  0.00  0.00    -0.084 Cl
ENDBRANCH   1  22
BRANCH  14  24
ATOM     24  C   UNL     1      -4.319   0.125   2.635  0.00  0.00    +0.044 A 
ATOM     25  C   UNL     1      -3.904   1.233   3.361  0.00  0.00    +0.025 A 
ATOM     26  C   UNL     1      -4.838   2.115   3.868  0.00  0.00    +0.017 A 
ATOM     27  C   UNL     1      -6.187   1.895   3.653  0.00  0.00    +0.018 A 
ATOM     28  C   UNL     1      -6.604   0.792   2.930  0.00  0.00    +0.017 A 
ATOM     29  C   UNL     1      -5.673  -0.090   2.416  0.00  0.00    +0.025 A 
ATOM     30 BR   UNL     1      -7.463   3.104   4.349  0.00  0.00    -0.050 Br
ENDBRANCH  14  24
TORSDOF 2
