REMARK  Name = ZINC41840378
REMARK  8 active torsions:
REMARK  status: ('A' for Active; 'I' for Inactive)
REMARK    1  A    between atoms: C_1  and  C_2
REMARK    2  A    between atoms: C_4  and  C_21
REMARK    3  A    between atoms: C_5  and  C_9
REMARK    4  A    between atoms: C_6  and  C_8
REMARK    5  A    between atoms: C_9  and  C_10
REMARK    6  A    between atoms: C_9  and  C_11
REMARK    7  A    between atoms: C_9  and  N_14
REMARK    8  A    between atoms: C_17  and  C_20
REMARK                            x       y       z     vdW  Elec       q    Type
REMARK                         _______ _______ _______ _____ _____    ______ ____
ROOT
ATOM      1  C   UNL     1       1.734  -3.496  -0.591  0.00  0.00    +0.061 C 
ATOM      2  C   UNL     1       2.439  -3.321  -1.937  0.00  0.00    +0.007 C 
ENDROOT
BRANCH   1   7
ATOM      3  C   UNL     1      -1.365   1.236   0.593  0.00  0.00    +0.044 C 
ATOM      4  C   UNL     1      -0.557   0.002   0.284  0.00  0.00    -0.050 A 
ATOM      5  C   UNL     1      -0.232  -0.302  -1.025  0.00  0.00    +0.007 A 
ATOM      6  C   UNL     1       0.509  -1.434  -1.308  0.00  0.00    -0.048 A 
ATOM      7  C   UNL     1       0.926  -2.261  -0.282  0.00  0.00    -0.042 A 
ATOM      8  C   UNL     1       0.603  -1.957   1.027  0.00  0.00    -0.048 A 
ATOM      9  C   UNL     1      -0.135  -0.823   1.310  0.00  0.00    +0.007 A 
ATOM     10  C   UNL     1       1.057  -2.859   2.145  0.00  0.00    +0.044 C 
ATOM     11  C   UNL     1       0.862  -1.766  -2.735  0.00  0.00    +0.044 C 
ENDBRANCH   1   7
BRANCH   1  12
ATOM     12  N   UNL     1       0.842  -4.661  -0.653  0.00  0.00    +0.393 N 
ATOM     13  C   UNL     1       1.633  -5.866  -0.934  0.00  0.00    -0.077 C 
ATOM     14  C   UNL     1       0.720  -7.094  -0.920  0.00  0.00    -0.015 C 
ATOM     15  C   UNL     1      -0.363  -6.931  -1.991  0.00  0.00    -0.018 C 
ATOM     16  C   UNL     1      -1.133  -5.633  -1.731  0.00  0.00    -0.015 C 
ATOM     17  C   UNL     1      -0.151  -4.459  -1.715  0.00  0.00    -0.077 C 
ATOM     18  C   UNL     1      -1.326  -8.118  -1.929  0.00  0.00    +0.007 C 
ATOM     19  H   UNL     1       0.370  -4.770   0.232  0.00  0.00    -0.080 HD
ENDBRANCH   1  12
BRANCH   1  20
ATOM     20  C   UNL     1       2.762  -3.707   0.491  0.00  0.00    +0.350 C 
ATOM     21  O   UNL     1       2.727  -4.715   1.176  0.00  0.00    -0.248 OA
ATOM     22  O   UNL     1       3.628  -2.871   0.681  0.00  0.00    -0.248 OA
ENDBRANCH   1  20
TORSDOF 3
