REMARK  Name = ZINC00799548
REMARK  2 active torsions:
REMARK  status: ('A' for Active; 'I' for Inactive)
REMARK    1  A    between atoms: N_13  and  N_16
REMARK    2  A    between atoms: N_16  and  C_17
REMARK                            x       y       z     vdW  Elec       q    Type
REMARK                         _______ _______ _______ _____ _____    ______ ____
ROOT
ATOM      1  C   UNL     1       2.423   4.142  -0.001  0.00  0.00    +0.001 A 
ATOM      2  C   UNL     1       1.224   3.487   0.007  0.00  0.00    +0.008 A 
ATOM      3  C   UNL     1       1.191   2.082   0.002  0.00  0.00    -0.015 A 
ATOM      4  C   UNL     1      -0.016   1.362   0.009  0.00  0.00    +0.023 A 
ATOM      5  C   UNL     1       0.002  -0.004   0.002  0.00  0.00    +0.019 A 
ATOM      6  C   UNL     1       1.197  -0.716  -0.013  0.00  0.00    +0.029 A 
ATOM      7  C   UNL     1       2.409  -0.043  -0.022  0.00  0.00    +0.048 A 
ATOM      8  C   UNL     1       2.409   1.371  -0.014  0.00  0.00    +0.007 A 
ATOM      9  C   UNL     1       3.639   2.066  -0.023  0.00  0.00    +0.047 A 
ATOM     10  C   UNL     1       3.629   3.453  -0.016  0.00  0.00    +0.014 A 
ATOM     11  C   UNL     1       4.888   1.290  -0.039  0.00  0.00    +0.270 C 
ATOM     12  O   UNL     1       5.959   1.867  -0.046  0.00  0.00    -0.268 OA
ATOM     13  N   UNL     1       4.854  -0.056  -0.046  0.00  0.00    -0.149 N 
ATOM     14  C   UNL     1       3.699  -0.749  -0.039  0.00  0.00    +0.270 C 
ATOM     15  O   UNL     1       3.723  -1.964  -0.045  0.00  0.00    -0.268 OA
ATOM     16 BR   UNL     1      -1.636  -0.949   0.012  0.00  0.00    -0.050 Br
ENDROOT
BRANCH  13  17
ATOM     17  N   UNL     1       6.064  -0.762  -0.062  0.00  0.00    -0.255 N 
ATOM     18  H   UNL     1       6.381  -1.199   0.743  0.00  0.00    +0.171 HD
BRANCH  17  19
ATOM     19  C   UNL     1       6.813  -0.837  -1.240  0.00  0.00    +0.045 A 
ATOM     20  C   UNL     1       6.357  -0.216  -2.396  0.00  0.00    +0.026 A 
ATOM     21  C   UNL     1       7.103  -0.287  -3.556  0.00  0.00    +0.022 A 
ATOM     22  C   UNL     1       8.298  -0.985  -3.570  0.00  0.00    +0.041 A 
ATOM     23  C   UNL     1       8.752  -1.609  -2.422  0.00  0.00    +0.022 A 
ATOM     24  C   UNL     1       8.013  -1.536  -1.257  0.00  0.00    +0.026 A 
ATOM     25 CL   UNL     1       9.229  -1.077  -5.032  0.00  0.00    -0.084 Cl
ENDBRANCH  17  19
ENDBRANCH  13  17
TORSDOF 2
