REMARK  Name = ZINC39724061
REMARK  6 active torsions:
REMARK  status: ('A' for Active; 'I' for Inactive)
REMARK    1  A    between atoms: C_1  and  C_2
REMARK    2  A    between atoms: C_5  and  S_8
REMARK    3  A    between atoms: S_8  and  C_9
REMARK    4  A    between atoms: C_9  and  C_11
REMARK    5  A    between atoms: C_9  and  C_12
REMARK    6  A    between atoms: C_18  and  C_20
REMARK                            x       y       z     vdW  Elec       q    Type
REMARK                         _______ _______ _______ _____ _____    ______ ____
ROOT
ATOM      1  C   UNL     1       0.528  -6.449   1.877  0.00  0.00    +0.232 C 
ATOM      2  O   UNL     1       0.260  -7.217   0.977  0.00  0.00    -0.274 OA
ATOM      3  N   UNL     1       1.094  -6.910   3.010  0.00  0.00    -0.262 N 
ATOM      4  C   UNL     1       1.369  -8.265   3.147  0.00  0.00    +0.188 A 
ATOM      5  N   UNL     1       1.167  -9.266   2.301  0.00  0.00    -0.125 NA
ATOM      6  N   UNL     1       1.480 -10.454   2.586  0.00  0.00    -0.140 NA
ATOM      7  C   UNL     1       2.030 -10.774   3.751  0.00  0.00    +0.134 A 
ATOM      8  S   UNL     1       2.105  -9.156   4.515  0.00  0.00    -0.030 S 
ATOM      9  H   UNL     1       1.309  -6.296   3.729  0.00  0.00    +0.157 HD
ENDROOT
BRANCH   7  10
ATOM     10  C   UNL     1       2.461 -12.089   4.269  0.00  0.00    +0.009 A 
ATOM     11  C   UNL     1       3.018 -12.192   5.545  0.00  0.00    +0.012 A 
ATOM     12  C   UNL     1       3.419 -13.423   6.022  0.00  0.00    +0.016 A 
ATOM     13  C   UNL     1       3.271 -14.554   5.239  0.00  0.00    +0.018 A 
ATOM     14  C   UNL     1       2.720 -14.459   3.972  0.00  0.00    +0.016 A 
ATOM     15  C   UNL     1       2.309 -13.235   3.486  0.00  0.00    +0.012 A 
ATOM     16 BR   UNL     1       3.823 -16.237   5.901  0.00  0.00    -0.050 Br
ENDBRANCH   7  10
BRANCH   1  17
ATOM     17  C   UNL     1       0.230  -4.979   1.727  0.00  0.00    +0.134 C 
ATOM     18  C   UNL     1      -1.067  -4.645   2.466  0.00  0.00    +0.029 C 
BRANCH  17  19
ATOM     19  S   UNL     1       0.046  -4.575  -0.032  0.00  0.00    -0.113 S 
BRANCH  19  24
ATOM     20  C   UNL     1      -0.397   1.444  -0.111  0.00  0.00    +0.044 C 
ATOM     21  C   UNL     1      -0.286  -0.059  -0.091  0.00  0.00    -0.050 A 
ATOM     22  C   UNL     1       0.960  -0.658  -0.065  0.00  0.00    +0.004 A 
ATOM     23  C   UNL     1       1.065  -2.035  -0.046  0.00  0.00    +0.015 A 
ATOM     24  C   UNL     1      -0.083  -2.818  -0.054  0.00  0.00    +0.009 A 
ATOM     25  C   UNL     1      -1.334  -2.212  -0.080  0.00  0.00    +0.015 A 
ATOM     26  C   UNL     1      -1.431  -0.835  -0.093  0.00  0.00    +0.004 A 
ENDBRANCH  19  24
ENDBRANCH  17  19
ENDBRANCH   1  17
TORSDOF 4
