REMARK  Name = ZINC43736878
REMARK  7 active torsions:
REMARK  status: ('A' for Active; 'I' for Inactive)
REMARK    1  A    between atoms: C_1  and  C_2
REMARK    2  A    between atoms: C_13  and  O_15
REMARK    3  A    between atoms: N_21  and  O_22
REMARK    4  A    between atoms: O_22  and  C_23
REMARK    5  A    between atoms: C_23  and  C_24
REMARK    6  A    between atoms: N_26  and  C_27
REMARK    7  A    between atoms: C_38  and  C_39
REMARK                            x       y       z     vdW  Elec       q    Type
REMARK                         _______ _______ _______ _____ _____    ______ ____
ROOT
ATOM      1  C   UNL     1      -0.024   1.525  -0.044  0.00  0.00    +0.014 C 
ATOM      2  C   UNL     1      -0.002  -0.007  -0.048  0.00  0.00    -0.003 C 
ATOM      3  C   UNL     1       0.637  -0.471  -1.333  0.00  0.00    +0.010 C 
ATOM      4  C   UNL     1       0.954  -1.956  -1.363  0.00  0.00    +0.005 C 
ATOM      5  C   UNL     1       1.655  -2.461  -0.112  0.00  0.00    +0.002 C 
ATOM      6  C   UNL     1       0.955  -2.002   1.150  0.00  0.00    -0.003 C 
ATOM      7  C   UNL     1       0.729  -0.494   1.216  0.00  0.00    +0.001 C 
ATOM      8  C   UNL     1      -0.348  -0.253   2.316  0.00  0.00    +0.007 C 
ATOM      9  C   UNL     1      -1.684  -0.610   1.631  0.00  0.00    +0.032 C 
ATOM     10  C   UNL     1      -1.441  -0.517   0.112  0.00  0.00    +0.121 C 
ATOM     11  C   UNL     1       1.635  -2.489   2.426  0.00  0.00    +0.008 C 
ATOM     12  C   UNL     1       3.114  -2.084   2.438  0.00  0.00    +0.031 C 
ATOM     13  C   UNL     1       3.735  -2.694   1.192  0.00  0.00    -0.062 C 
ATOM     14  C   UNL     1       4.745  -3.535   1.325  0.00  0.00    +0.026 C 
ATOM     15  C   UNL     1       5.306  -4.189   0.128  0.00  0.00    +0.080 C 
ATOM     16  N   UNL     1       6.503  -4.679   0.096  0.00  0.00    -0.089 NA
ATOM     17  C   UNL     1       4.365  -4.289  -1.060  0.00  0.00    +0.059 C 
ATOM     18  C   UNL     1       3.807  -2.898  -1.337  0.00  0.00    +0.017 C 
ATOM     19  C   UNL     1       3.155  -2.262  -0.126  0.00  0.00    -0.007 C 
ATOM     20  C   UNL     1       3.486  -0.774  -0.245  0.00  0.00    +0.016 C 
ENDROOT
BRANCH  10  21
ATOM     21  O   UNL     1      -2.360   0.401  -0.481  0.00  0.00    -0.391 OA
ATOM     22  H   UNL     1      -3.286   0.131  -0.412  0.00  0.00    +0.210 HD
ENDBRANCH  10  21
BRANCH  16  23
ATOM     23  O   UNL     1       7.331  -4.598   1.242  0.00  0.00    -0.384 OA
BRANCH  23  24
ATOM     24  C   UNL     1       8.625  -5.179   1.065  0.00  0.00    +0.358 C 
BRANCH  24  25
ATOM     25  C   UNL     1       9.417  -5.037   2.339  0.00  0.00    +0.254 C 
ATOM     26  O   UNL     1       8.922  -4.493   3.304  0.00  0.00    -0.272 OA
ATOM     27  N   UNL     1      10.675  -5.516   2.408  0.00  0.00    -0.301 N 
ATOM     28  H   UNL     1      11.071  -5.951   1.636  0.00  0.00    +0.150 HD
BRANCH  27  29
ATOM     29  C   UNL     1      11.445  -5.378   3.646  0.00  0.00    +0.159 C 
ATOM     30  C   UNL     1      12.519  -6.467   3.708  0.00  0.00    +0.032 C 
ATOM     31  C   UNL     1      12.914  -6.753   5.145  0.00  0.00    +0.004 C 
ATOM     32  C   UNL     1      13.626  -5.598   5.826  0.00  0.00    +0.019 C 
ATOM     33  C   UNL     1      12.681  -4.410   6.015  0.00  0.00    +0.104 C 
ATOM     34  N   UNL     1      12.706  -3.589   4.793  0.00  0.00    -0.314 N 
ATOM     35  C   UNL     1      12.124  -4.025   3.676  0.00  0.00    +0.233 C 
ATOM     36  O   UNL     1      12.144  -3.337   2.677  0.00  0.00    -0.274 OA
ATOM     37  H   UNL     1      13.145  -2.725   4.802  0.00  0.00    +0.149 HD
ENDBRANCH  27  29
ENDBRANCH  24  25
ENDBRANCH  23  24
ENDBRANCH  16  23
TORSDOF 5
