REMARK  Name = ZINC39545127
REMARK  6 active torsions:
REMARK  status: ('A' for Active; 'I' for Inactive)
REMARK    1  A    between atoms: C_4  and  N_7
REMARK    2  A    between atoms: N_7  and  C_8
REMARK    3  A    between atoms: C_13  and  O_14
REMARK    4  A    between atoms: C_15  and  C_17
REMARK    5  A    between atoms: C_20  and  S_31
REMARK    6  A    between atoms: S_31  and  C_34
REMARK                            x       y       z     vdW  Elec       q    Type
REMARK                         _______ _______ _______ _____ _____    ______ ____
ROOT
ATOM      1  C   UNL     1       4.866  -2.892   0.050  0.00  0.00    +0.151 C 
ATOM      2  C   UNL     1       5.731  -2.612  -1.195  0.00  0.00    +0.088 C 
ATOM      3  C   UNL     1       5.800  -3.946  -1.903  0.00  0.00    +0.107 C 
ATOM      4  C   UNL     1       5.126  -4.837  -1.221  0.00  0.00    +0.097 C 
ATOM      5  N   UNL     1       4.932  -6.182  -1.583  0.00  0.00    -0.302 N 
ATOM      6  C   UNL     1       3.667  -6.704  -1.261  0.00  0.00    +0.037 A 
ATOM      7  C   UNL     1       3.323  -7.983  -1.674  0.00  0.00    +0.023 A 
ATOM      8  C   UNL     1       2.084  -8.499  -1.349  0.00  0.00    +0.002 A 
ATOM      9  C   UNL     1       1.193  -7.739  -0.614  0.00  0.00    +0.000 A 
ATOM     10  C   UNL     1       1.533  -6.463  -0.208  0.00  0.00    +0.007 A 
ATOM     11  C   UNL     1       2.772  -5.934  -0.532  0.00  0.00    -0.010 A 
ATOM     12  C   UNL     1       3.105  -4.532  -0.096  0.00  0.00    +0.124 C 
ATOM     13  N   UNL     1       4.557  -4.328  -0.042  0.00  0.00    -0.369 NA
ATOM     14  H   UNL     1       5.618  -6.710  -2.021  0.00  0.00    +0.153 HD
ATOM     15  H   UNL     1       4.939  -4.810   0.758  0.00  0.00    +0.129 HD
ENDROOT
BRANCH   1  17
ATOM     16  N   UNL     1       3.200  -1.396   1.100  0.00  0.00    -0.235 N 
ATOM     17  C   UNL     1       3.600  -2.075   0.007  0.00  0.00    +0.244 C 
ATOM     18  O   UNL     1       2.942  -2.030  -1.011  0.00  0.00    -0.273 OA
BRANCH  16  22
ATOM     19  C   UNL     1      -0.451   0.614   1.080  0.00  0.00    +0.000 A 
ATOM     20  C   UNL     1       0.583   1.052   0.273  0.00  0.00    +0.002 A 
ATOM     21  C   UNL     1       1.794   0.389   0.277  0.00  0.00    +0.024 A 
ATOM     22  C   UNL     1       1.973  -0.720   1.093  0.00  0.00    +0.041 A 
ATOM     23  C   UNL     1       0.934  -1.158   1.904  0.00  0.00    +0.024 A 
ATOM     24  C   UNL     1      -0.275  -0.490   1.895  0.00  0.00    +0.002 A 
ENDBRANCH  16  22
BRANCH  16  25
ATOM     25  C   UNL     1       4.011  -1.365   2.243  0.00  0.00    +0.083 A 
ATOM     26  C   UNL     1       3.872  -2.339   3.220  0.00  0.00    +0.027 A 
ATOM     27  C   UNL     1       4.673  -2.307   4.346  0.00  0.00    +0.002 A 
ATOM     28  C   UNL     1       5.614  -1.305   4.501  0.00  0.00    +0.004 A 
ATOM     29  C   UNL     1       5.758  -0.331   3.531  0.00  0.00    +0.047 A 
ATOM     30  C   UNL     1       4.963  -0.359   2.397  0.00  0.00    +0.138 A 
BRANCH  30  31
ATOM     31  O   UNL     1       5.107   0.595   1.439  0.00  0.00    -0.505 OA
ATOM     32  H   UNL     1       4.551   1.374   1.572  0.00  0.00    +0.292 HD
ENDBRANCH  30  31
ENDBRANCH  16  25
ENDBRANCH   1  17
BRANCH   3  33
ATOM     33  S   UNL     1       6.654  -4.253  -3.413  0.00  0.00    +0.024 S 
ATOM     34  O   UNL     1       7.955  -3.704  -3.263  0.00  0.00    -0.165 OA
ATOM     35  O   UNL     1       6.437  -5.621  -3.732  0.00  0.00    -0.165 OA
BRANCH  33  36
ATOM     36  C   UNL     1       5.851  -3.311  -4.667  0.00  0.00    +0.093 A 
ATOM     37  C   UNL     1       4.802  -3.861  -5.380  0.00  0.00    +0.027 A 
ATOM     38  C   UNL     1       4.172  -3.122  -6.364  0.00  0.00    +0.002 A 
ATOM     39  C   UNL     1       4.590  -1.832  -6.634  0.00  0.00    +0.000 A 
ATOM     40  C   UNL     1       5.638  -1.282  -5.920  0.00  0.00    +0.002 A 
ATOM     41  C   UNL     1       6.265  -2.020  -4.934  0.00  0.00    +0.027 A 
ENDBRANCH  33  36
ENDBRANCH   3  33
TORSDOF 6
