REMARK  Name = ZINC66861920
REMARK  3 active torsions:
REMARK  status: ('A' for Active; 'I' for Inactive)
REMARK    1  A    between atoms: C_5  and  N_7
REMARK    2  A    between atoms: N_10  and  C_13
REMARK    3  A    between atoms: C_13  and  C_14
REMARK                            x       y       z     vdW  Elec       q    Type
REMARK                         _______ _______ _______ _____ _____    ______ ____
ROOT
ATOM      1  N   UNL     1       1.260  -2.020  -0.248  0.00  0.00    -0.325 N 
ATOM      2  C   UNL     1       1.476  -2.651   1.062  0.00  0.00    +0.120 C 
ATOM      3  C   UNL     1       2.638  -3.643   0.939  0.00  0.00    +0.104 C 
ATOM      4  N   UNL     1       2.366  -4.576  -0.163  0.00  0.00    -0.291 NA
ATOM      5  C   UNL     1       2.291  -3.873  -1.451  0.00  0.00    +0.104 C 
ATOM      6  C   UNL     1       1.109  -2.891  -1.424  0.00  0.00    +0.120 C 
ENDROOT
BRANCH   1  11
ATOM      7  C   UNL     1      -0.091   1.397  -0.376  0.00  0.00    +0.002 A 
ATOM      8  C   UNL     1       1.059   2.126  -0.619  0.00  0.00    +0.003 A 
ATOM      9  C   UNL     1       2.277   1.482  -0.740  0.00  0.00    +0.040 A 
ATOM     10  C   UNL     1       2.348   0.106  -0.617  0.00  0.00    +0.144 A 
ATOM     11  C   UNL     1       1.193  -0.628  -0.373  0.00  0.00    +0.065 A 
ATOM     12  C   UNL     1      -0.028   0.023  -0.253  0.00  0.00    +0.026 A 
ATOM     13  F   UNL     1       3.538  -0.523  -0.735  0.00  0.00    -0.204 F 
ENDBRANCH   1  11
BRANCH   4  14
ATOM     14  C   UNL     1       3.370  -5.647  -0.205  0.00  0.00    +0.180 C 
BRANCH  14  15
ATOM     15  C   UNL     1       2.929  -6.711  -1.178  0.00  0.00    +0.230 C 
ATOM     16  O   UNL     1       1.882  -6.588  -1.777  0.00  0.00    -0.274 OA
ATOM     17  N   UNL     1       3.699  -7.798  -1.382  0.00  0.00    -0.297 N 
ATOM     18  C   UNL     1       4.914  -8.020  -0.584  0.00  0.00    +0.108 C 
ATOM     19  C   UNL     1       6.095  -8.245  -1.533  0.00  0.00    +0.019 C 
ATOM     20  C   UNL     1       5.761  -9.378  -2.506  0.00  0.00    +0.007 C 
ATOM     21  C   UNL     1       4.539  -8.982  -3.343  0.00  0.00    +0.010 C 
ATOM     22  C   UNL     1       3.341  -8.790  -2.402  0.00  0.00    +0.079 C 
ATOM     23  C   UNL     1       2.119  -8.321  -3.186  0.00  0.00    +0.023 C 
ATOM     24  C   UNL     1       2.434  -7.010  -3.908  0.00  0.00    +0.002 C 
ATOM     25  C   UNL     1       3.604  -7.233  -4.869  0.00  0.00    +0.000 C 
ATOM     26  C   UNL     1       4.850  -7.679  -4.084  0.00  0.00    +0.005 C 
ENDBRANCH  14  15
ENDBRANCH   4  14
TORSDOF 3
