REMARK  Name = ZINC51698313
REMARK  5 active torsions:
REMARK  status: ('A' for Active; 'I' for Inactive)
REMARK    1  A    between atoms: C_1  and  N_2
REMARK    2  A    between atoms: N_2  and  C_3
REMARK    3  A    between atoms: C_5  and  C_15
REMARK    4  A    between atoms: C_15  and  O_16
REMARK    5  A    between atoms: O_16  and  C_17
REMARK                            x       y       z     vdW  Elec       q    Type
REMARK                         _______ _______ _______ _____ _____    ______ ____
ROOT
ATOM      1  C   UNL     1       0.602  -0.683  -1.047  0.00  0.00    +0.039 A 
ATOM      2  C   UNL     1       1.103  -0.003  -2.146  0.00  0.00    +0.049 A 
ATOM      3  C   UNL     1       1.698  -0.712  -3.181  0.00  0.00    +0.069 A 
ATOM      4  N   UNL     1       1.804  -2.020  -3.153  0.00  0.00    -0.248 NA
ATOM      5  C   UNL     1       1.343  -2.740  -2.125  0.00  0.00    +0.093 A 
ATOM      6  C   UNL     1       0.727  -2.093  -1.028  0.00  0.00    +0.041 A 
ATOM      7  C   UNL     1       0.249  -2.853   0.050  0.00  0.00    +0.052 A 
ATOM      8  C   UNL     1       0.388  -4.210   0.032  0.00  0.00    +0.022 A 
ATOM      9  C   UNL     1       0.998  -4.850  -1.044  0.00  0.00    +0.023 A 
ATOM     10  C   UNL     1       1.463  -4.142  -2.111  0.00  0.00    +0.067 A 
ATOM     11 CL   UNL     1       2.220  -4.964  -3.439  0.00  0.00    -0.081 Cl
ATOM     12 CL   UNL     1      -0.513  -2.072   1.400  0.00  0.00    -0.083 Cl
ENDROOT
BRANCH   1  14
ATOM     13  C   UNL     1      -0.976   1.052  -0.273  0.00  0.00    +0.125 C 
ATOM     14  N   UNL     1       0.002  -0.004   0.002  0.00  0.00    -0.346 N 
ATOM     15  H   UNL     1       0.230  -0.228   0.918  0.00  0.00    +0.146 HD
ENDBRANCH   1  14
BRANCH   3  16
ATOM     16  C   UNL     1       2.238   0.042  -4.369  0.00  0.00    +0.214 C 
BRANCH  16  17
ATOM     17  O   UNL     1       2.016   1.442  -4.186  0.00  0.00    -0.377 OA
ATOM     18  C   UNL     1       2.494   2.252  -5.262  0.00  0.00    +0.194 C 
ENDBRANCH  16  17
ENDBRANCH   3  16
TORSDOF 3
