REMARK  Name = ZINC50845815
REMARK  2 active torsions:
REMARK  status: ('A' for Active; 'I' for Inactive)
REMARK    1  A    between atoms: C_9  and  C_12
REMARK    2  A    between atoms: C_18  and  C_21
REMARK                            x       y       z     vdW  Elec       q    Type
REMARK                         _______ _______ _______ _____ _____    ______ ____
ROOT
ATOM      1  C   UNL     1       6.001   0.842  -0.053  0.00  0.00    +0.265 C 
ATOM      2  O   UNL     1       6.658  -0.178   0.039  0.00  0.00    -0.268 OA
ATOM      3  N   UNL     1       6.620   2.035  -0.154  0.00  0.00    -0.291 N 
ATOM      4  C   UNL     1       5.853   3.291  -0.136  0.00  0.00    +0.136 C 
ATOM      5  C   UNL     1       6.484   4.228   0.900  0.00  0.00    +0.180 C 
ATOM      6  O   UNL     1       7.885   4.343   0.639  0.00  0.00    -0.364 OA
ATOM      7  C   UNL     1       8.606   3.115   0.757  0.00  0.00    +0.221 C 
ATOM      8  C   UNL     1       8.084   2.121  -0.281  0.00  0.00    +0.149 C 
ENDROOT
BRANCH   1  17
ATOM      9  C   UNL     1       0.029   0.378   0.745  0.00  0.00    +0.017 A 
ATOM     10  C   UNL     1       1.241   0.281   1.392  0.00  0.00    +0.027 A 
ATOM     11  C   UNL     1       2.422   0.502   0.687  0.00  0.00    +0.049 A 
ATOM     12  C   UNL     1       2.357   0.822  -0.683  0.00  0.00    +0.020 A 
ATOM     13  C   UNL     1       1.114   0.914  -1.319  0.00  0.00    +0.026 A 
ATOM     14  C   UNL     1      -0.030   0.694  -0.607  0.00  0.00    +0.019 A 
ATOM     15 BR   UNL     1      -1.710   0.819  -1.468  0.00  0.00    -0.050 Br
ATOM     16  C   UNL     1       3.736   0.992  -1.133  0.00  0.00    +0.078 A 
ATOM     17  C   UNL     1       4.534   0.774  -0.052  0.00  0.00    +0.122 A 
ATOM     18  N   UNL     1       3.748   0.479   1.046  0.00  0.00    -0.349 N 
ATOM     19  H   UNL     1       4.083   0.285   1.935  0.00  0.00    +0.166 HD
ATOM     20 CL   UNL     1       4.257   1.394  -2.740  0.00  0.00    -0.081 Cl
ENDBRANCH   1  17
BRANCH   7  21
ATOM     21  C   UNL     1      10.073   3.367   0.523  0.00  0.00    +0.241 C 
ATOM     22  O   UNL     1      10.453   4.470   0.190  0.00  0.00    -0.273 OA
ATOM     23  N   UNL     1      10.963   2.368   0.684  0.00  0.00    -0.327 N 
ATOM     24  H   UNL     1      10.659   1.486   0.951  0.00  0.00    +0.145 HD
ATOM     25  H   UNL     1      11.907   2.530   0.533  0.00  0.00    +0.145 HD
ENDBRANCH   7  21
TORSDOF 2
