REMARK  Name = ZINC62824394
REMARK  5 active torsions:
REMARK  status: ('A' for Active; 'I' for Inactive)
REMARK    1  A    between atoms: C_1  and  C_2
REMARK    2  A    between atoms: C_2  and  C_3
REMARK    3  A    between atoms: C_3  and  N_4
REMARK    4  A    between atoms: C_8  and  C_9
REMARK    5  A    between atoms: C_14  and  N_15
REMARK                            x       y       z     vdW  Elec       q    Type
REMARK                         _______ _______ _______ _____ _____    ______ ____
ROOT
ATOM      1  C   UNL     1      -0.949  -2.415   2.470  0.00  0.00    +0.041 A 
ATOM      2  C   UNL     1      -1.791  -1.493   3.093  0.00  0.00    +0.027 A 
ATOM      3  C   UNL     1      -1.550  -1.113   4.397  0.00  0.00    +0.014 A 
ATOM      4  C   UNL     1      -0.475  -1.641   5.092  0.00  0.00    +0.016 A 
ATOM      5  C   UNL     1       0.366  -2.555   4.487  0.00  0.00    +0.024 A 
ATOM      6  C   UNL     1       0.134  -2.953   3.178  0.00  0.00    +0.035 A 
ATOM      7  I   UNL     1      -2.815   0.273   5.329  0.00  0.00    -0.044 I 
ENDROOT
BRANCH   1  12
ATOM      8  N   UNL     1      -1.438  -1.999   0.009  0.00  0.00    -0.313 N 
ATOM      9  C   UNL     1      -1.609  -2.817  -1.066  0.00  0.00    +0.225 A 
ATOM     10  N   UNL     1      -1.485  -4.047  -0.646  0.00  0.00    -0.138 NA
ATOM     11  N   UNL     1      -1.248  -4.060   0.618  0.00  0.00    -0.129 NA
ATOM     12  C   UNL     1      -1.202  -2.828   1.073  0.00  0.00    +0.166 A 
BRANCH   8  13
ATOM     13  C   UNL     1      -1.488  -0.535   0.023  0.00  0.00    +0.124 C 
BRANCH  13  15
ATOM     14  C   UNL     1      -0.120   1.554  -0.051  0.00  0.00    +0.005 C 
ATOM     15  C   UNL     1      -0.067   0.025  -0.066  0.00  0.00    +0.018 C 
ENDBRANCH  13  15
ENDBRANCH   8  13
ENDBRANCH   1  12
BRANCH   6  16
ATOM     16  N   UNL     1       0.979  -3.878   2.568  0.00  0.00    -0.357 N 
ATOM     17  H   UNL     1       0.818  -4.152   1.651  0.00  0.00    +0.142 HD
ATOM     18  H   UNL     1       1.728  -4.249   3.060  0.00  0.00    +0.142 HD
ENDBRANCH   6  16
TORSDOF 4
