REMARK  Name = ZINC05130177
REMARK  4 active torsions:
REMARK  status: ('A' for Active; 'I' for Inactive)
REMARK    1  A    between atoms: C_3  and  C_21
REMARK    2  A    between atoms: C_6  and  C_7
REMARK    3  A    between atoms: C_8  and  C_9
REMARK    4  A    between atoms: C_13  and  N_18
REMARK                            x       y       z     vdW  Elec       q    Type
REMARK                         _______ _______ _______ _____ _____    ______ ____
ROOT
ATOM      1  C   UNL     1       1.123  -0.699  -0.012  0.00  0.00    +0.102 A 
ATOM      2  N   UNL     1       0.002  -0.004   0.002  0.00  0.00    -0.240 NA
ATOM      3  C   UNL     1      -0.016   1.336   0.009  0.00  0.00    +0.081 A 
ATOM      4  C   UNL     1      -1.142   2.195   0.030  0.00  0.00    +0.061 A 
ATOM      5  C   UNL     1      -0.989   3.545   0.031  0.00  0.00    +0.128 A 
ATOM      6  C   UNL     1       0.268   4.137   0.022  0.00  0.00    +0.034 A 
ATOM      7  C   UNL     1       1.394   3.335   0.007  0.00  0.00    +0.019 A 
ATOM      8  C   UNL     1       1.251   1.969   0.001  0.00  0.00    +0.040 A 
ATOM      9  S   UNL     1       2.365   0.586  -0.017  0.00  0.00    -0.068 S 
ENDROOT
BRANCH   5  10
ATOM     10  N   UNL     1      -2.191   4.408   0.048  0.00  0.00    +0.056 N 
ATOM     11  O   UNL     1      -2.071   5.620   0.054  0.00  0.00    -0.126 OA
ATOM     12  O   UNL     1      -3.301   3.906   0.056  0.00  0.00    -0.126 OA
ENDBRANCH   5  10
BRANCH   1  14
ATOM     13  C   UNL     1       2.544  -2.679  -0.036  0.00  0.00    +0.010 C 
ATOM     14  C   UNL     1       1.304  -2.155  -0.021  0.00  0.00    +0.035 C 
BRANCH  13  20
ATOM     15  C   UNL     1       1.609  -4.983  -0.033  0.00  0.00    +0.009 A 
ATOM     16  C   UNL     1       1.778  -6.338  -0.047  0.00  0.00    +0.019 A 
ATOM     17  C   UNL     1       3.066  -6.883  -0.063  0.00  0.00    +0.052 A 
ATOM     18  C   UNL     1       4.182  -6.040  -0.069  0.00  0.00    +0.019 A 
ATOM     19  C   UNL     1       4.015  -4.684  -0.061  0.00  0.00    +0.009 A 
ATOM     20  C   UNL     1       2.726  -4.139  -0.045  0.00  0.00    -0.025 A 
BRANCH  17  21
ATOM     21  C   UNL     1       3.243  -8.304  -0.071  0.00  0.00    +0.099 C 
ATOM     22  N   UNL     1       3.383  -9.431  -0.078  0.00  0.00    -0.191 NA
ENDBRANCH  17  21
ENDBRANCH  13  20
ENDBRANCH   1  14
TORSDOF 4
