REMARK  Name = ZINC53147250
REMARK  7 active torsions:
REMARK  status: ('A' for Active; 'I' for Inactive)
REMARK    1  A    between atoms: C_1  and  O_2
REMARK    2  A    between atoms: O_2  and  C_3
REMARK    3  A    between atoms: C_5  and  C_12
REMARK    4  A    between atoms: C_8  and  O_9
REMARK    5  A    between atoms: O_9  and  C_10
REMARK    6  A    between atoms: C_12  and  C_14
REMARK    7  A    between atoms: C_12  and  N_22
REMARK                            x       y       z     vdW  Elec       q    Type
REMARK                         _______ _______ _______ _____ _____    ______ ____
ROOT
ATOM      1  C   UNL     1       2.402   0.381  -4.230  0.00  0.00    -0.013 C 
ENDROOT
BRANCH   1   2
ATOM      2  C   UNL     1       1.459   0.447  -5.404  0.00  0.00    -0.056 A 
ATOM      3  C   UNL     1       1.386  -0.609  -6.293  0.00  0.00    +0.004 A 
ATOM      4  C   UNL     1       0.522  -0.549  -7.369  0.00  0.00    +0.021 A 
ATOM      5  C   UNL     1      -0.272   0.568  -7.558  0.00  0.00    +0.059 A 
ATOM      6  C   UNL     1      -0.199   1.626  -6.667  0.00  0.00    +0.059 A 
ATOM      7  C   UNL     1       0.663   1.562  -5.587  0.00  0.00    +0.023 A 
ATOM      8 CL   UNL     1      -1.194   3.029  -6.903  0.00  0.00    -0.082 Cl
ATOM      9 CL   UNL     1      -1.357   0.645  -8.911  0.00  0.00    -0.082 Cl
ENDBRANCH   1   2
BRANCH   1  12
ATOM     10  C   UNL     1       0.606  -0.608  -1.056  0.00  0.00    +0.163 A 
ATOM     11  C   UNL     1       1.173   0.159  -2.062  0.00  0.00    +0.051 A 
ATOM     12  C   UNL     1       1.787  -0.455  -3.138  0.00  0.00    -0.053 A 
ATOM     13  C   UNL     1       1.837  -1.835  -3.214  0.00  0.00    +0.026 A 
ATOM     14  C   UNL     1       1.273  -2.606  -2.213  0.00  0.00    +0.086 A 
ATOM     15  C   UNL     1       0.662  -1.996  -1.129  0.00  0.00    +0.180 A 
ATOM     16 CL   UNL     1       1.337  -4.338  -2.312  0.00  0.00    -0.080 Cl
BRANCH  10  18
ATOM     17  C   UNL     1      -0.017   1.425   0.010  0.00  0.00    +0.277 C 
ATOM     18  O   UNL     1       0.002  -0.004   0.002  0.00  0.00    -0.491 OA
ENDBRANCH  10  18
BRANCH  15  19
ATOM     19  O   UNL     1       0.112  -2.752  -0.141  0.00  0.00    -0.490 OA
ATOM     20  C   UNL     1      -1.259  -3.125  -0.296  0.00  0.00    +0.277 C 
ENDBRANCH  15  19
ENDBRANCH   1  12
BRANCH   1  21
ATOM     21  N   UNL     1       3.671  -0.226  -4.655  0.00  0.00    +0.385 N 
ATOM     22  H   UNL     1       4.083   0.334  -5.387  0.00  0.00    -0.089 HD
ATOM     23  H   UNL     1       4.302  -0.271  -3.870  0.00  0.00    -0.089 HD
ATOM     24  H   UNL     1       3.498  -1.158  -5.002  0.00  0.00    -0.089 HD
ENDBRANCH   1  21
TORSDOF 5
