REMARK  Name = ZINC06717698
REMARK  15 active torsions:
REMARK  status: ('A' for Active; 'I' for Inactive)
REMARK    1  A    between atoms: C_1  and  N_75
REMARK    2  A    between atoms: C_2  and  N_75
REMARK    3  A    between atoms: C_3  and  C_4
REMARK    4  A    between atoms: C_3  and  N_75
REMARK    5  A    between atoms: C_4  and  N_5
REMARK    6  A    between atoms: N_5  and  C_6
REMARK    7  A    between atoms: C_6  and  C_7
REMARK    8  A    between atoms: C_10  and  C_13
REMARK    9  A    between atoms: C_16  and  C_19
REMARK   10  A    between atoms: C_19  and  N_77
REMARK   11  A    between atoms: C_20  and  C_21
REMARK   12  A    between atoms: C_20  and  N_77
REMARK   13  A    between atoms: C_21  and  C_22
REMARK   14  A    between atoms: C_28  and  C_30
REMARK   15  A    between atoms: C_31  and  C_32
REMARK                            x       y       z     vdW  Elec       q    Type
REMARK                         _______ _______ _______ _____ _____    ______ ____
ROOT
ATOM      1  C   UNL     1       3.593  -1.338  10.423  0.00  0.00    -0.012 A 
ATOM      2  C   UNL     1       2.572  -2.127   9.910  0.00  0.00    +0.009 A 
ATOM      3  C   UNL     1       1.865  -1.661   8.815  0.00  0.00    +0.029 A 
ATOM      4  C   UNL     1       2.208  -0.430   8.261  0.00  0.00    +0.071 A 
ATOM      5  N   UNL     1       3.190   0.293   8.782  0.00  0.00    -0.255 NA
ATOM      6  C   UNL     1       3.875  -0.123   9.828  0.00  0.00    +0.116 A 
ENDROOT
BRANCH   4   7
ATOM      7  C   UNL     1       1.464   0.080   7.083  0.00  0.00    +0.000 A 
ATOM      8  C   UNL     1       1.796   1.313   6.526  0.00  0.00    +0.010 A 
ATOM      9  C   UNL     1       1.101   1.782   5.430  0.00  0.00    +0.002 A 
ATOM     10  C   UNL     1       0.076   1.030   4.884  0.00  0.00    -0.064 A 
ATOM     11  C   UNL     1      -0.261  -0.192   5.436  0.00  0.00    +0.002 A 
ATOM     12  C   UNL     1       0.430  -0.673   6.529  0.00  0.00    +0.010 A 
BRANCH  10  13
ATOM     13  C   UNL     1      -0.679   1.548   3.687  0.00  0.00    -0.047 C 
BRANCH  13  14
ATOM     14  N   UNL     1      -0.009   1.087   2.457  0.00  0.00    +0.382 N 
ATOM     15  H   UNL     1       0.004   0.060   2.443  0.00  0.00    -0.085 HD
ATOM     16  H   UNL     1       0.954   1.442   2.442  0.00  0.00    -0.085 HD
BRANCH  14  17
ATOM     17  C   UNL     1      -0.729   1.579   1.267  0.00  0.00    -0.077 C 
BRANCH  17  18
ATOM     18  C   UNL     1      -0.013   1.086   0.008  0.00  0.00    +0.016 C 
BRANCH  18  19
ATOM     19  C   UNL     1      -0.742   1.585  -1.213  0.00  0.00    -0.049 A 
ATOM     20  C   UNL     1      -1.750   0.825  -1.775  0.00  0.00    +0.003 A 
ATOM     21  C   UNL     1      -2.422   1.285  -2.892  0.00  0.00    +0.000 A 
ATOM     22  C   UNL     1      -2.079   2.501  -3.453  0.00  0.00    +0.000 A 
ATOM     23  C   UNL     1      -1.066   3.259  -2.894  0.00  0.00    +0.000 A 
ATOM     24  C   UNL     1      -0.398   2.801  -1.774  0.00  0.00    +0.003 A 
ENDBRANCH  18  19
ENDBRANCH  17  18
ENDBRANCH  14  17
ENDBRANCH  13  14
ENDBRANCH  10  13
ENDBRANCH   4   7
BRANCH   1  25
ATOM     25  C   UNL     1       4.384  -1.802  11.619  0.00  0.00    +0.144 C 
BRANCH  25  26
ATOM     26  N   UNL     1       3.738  -1.331  12.846  0.00  0.00    -0.295 N 
ATOM     27  C   UNL     1       2.805  -2.092  13.451  0.00  0.00    +0.240 C 
ATOM     28  O   UNL     1       2.500  -3.171  12.979  0.00  0.00    -0.271 OA
BRANCH  27  29
ATOM     29  C   UNL     1       2.158  -1.621  14.678  0.00  0.00    +0.068 C 
ATOM     30  C   UNL     1       1.225  -2.382  15.283  0.00  0.00    +0.013 C 
BRANCH  30  31
ATOM     31  C   UNL     1       0.576  -1.909  16.516  0.00  0.00    -0.025 A 
ATOM     32  C   UNL     1       0.927  -0.671  17.065  0.00  0.00    +0.008 A 
ATOM     33  C   UNL     1       0.310  -0.232  18.218  0.00  0.00    +0.001 A 
ATOM     34  C   UNL     1      -0.647  -1.017  18.837  0.00  0.00    +0.000 A 
ATOM     35  C   UNL     1      -0.997  -2.245  18.302  0.00  0.00    +0.001 A 
ATOM     36  C   UNL     1      -0.393  -2.696  17.147  0.00  0.00    +0.008 A 
ENDBRANCH  30  31
ENDBRANCH  27  29
BRANCH  26  37
ATOM     37  C   UNL     1       4.105  -0.031  13.414  0.00  0.00    +0.090 C 
BRANCH  37  38
ATOM     38  C   UNL     1       3.203   1.056  12.826  0.00  0.00    -0.060 C 
BRANCH  38  41
ATOM     39  C   UNL     1       2.896   3.454  12.687  0.00  0.00    -0.097 C 
ATOM     40  C   UNL     1       3.280   2.405  14.835  0.00  0.00    -0.097 C 
ATOM     41  N   UNL     1       3.600   2.362  13.393  0.00  0.00    +0.377 N 
ATOM     42  H   UNL     1       4.612   2.485  13.272  0.00  0.00    -0.083 HD
ENDBRANCH  38  41
ENDBRANCH  37  38
ENDBRANCH  26  37
ENDBRANCH  25  26
ENDBRANCH   1  25
TORSDOF 13
