REMARK  Name = ZINC20466539
REMARK  10 active torsions:
REMARK  status: ('A' for Active; 'I' for Inactive)
REMARK    1  A    between atoms: C_1  and  C_2
REMARK    2  A    between atoms: C_4  and  N_33
REMARK    3  A    between atoms: C_8  and  C_32
REMARK    4  A    between atoms: C_11  and  O_31
REMARK    5  A    between atoms: C_13  and  C_17
REMARK    6  A    between atoms: C_17  and  C_19
REMARK    7  A    between atoms: C_17  and  C_20
REMARK    8  A    between atoms: N_22  and  C_23
REMARK    9  A    between atoms: C_23  and  C_24
REMARK   10  A    between atoms: C_34  and  C_36
REMARK                            x       y       z     vdW  Elec       q    Type
REMARK                         _______ _______ _______ _____ _____    ______ ____
ROOT
ATOM      1  C   UNL     1       0.707  -2.598  -0.660  0.00  0.00    +0.010 C 
ATOM      2  C   UNL     1       0.797  -1.086  -0.879  0.00  0.00    +0.012 C 
ATOM      3  C   UNL     1       2.211  -0.606  -0.547  0.00  0.00    +0.076 C 
ATOM      4  C   UNL     1       2.300   0.906  -0.766  0.00  0.00    +0.023 C 
ATOM      5  C   UNL     1       1.295   1.613   0.145  0.00  0.00    +0.009 C 
ATOM      6  C   UNL     1      -0.119   1.133  -0.186  0.00  0.00    -0.027 C 
ATOM      7  C   UNL     1      -0.209  -0.379   0.033  0.00  0.00    +0.028 C 
ATOM      8  C   UNL     1      -1.623  -0.860  -0.299  0.00  0.00    +0.122 C 
ATOM      9  C   UNL     1      -2.628  -0.152   0.613  0.00  0.00    +0.029 C 
ATOM     10  C   UNL     1      -2.539   1.359   0.394  0.00  0.00    +0.007 C 
ATOM     11  C   UNL     1      -1.125   1.840   0.725  0.00  0.00    +0.007 C 
ATOM     12  C   UNL     1      -0.439   1.457  -1.647  0.00  0.00    +0.011 C 
ENDROOT
BRANCH   3  13
ATOM     13  N   UNL     1       3.174  -1.283  -1.420  0.00  0.00    -0.312 N 
ATOM     14  C   UNL     1       4.453  -1.432  -1.024  0.00  0.00    +0.216 C 
ATOM     15  O   UNL     1       4.808  -1.005   0.054  0.00  0.00    -0.276 OA
ATOM     16  H   UNL     1       2.852  -1.670  -2.398  0.00  0.00    +0.149 HD
BRANCH  14  17
ATOM     17  C   UNL     1       5.443  -2.128  -1.922  0.00  0.00    +0.075 C 
ATOM     18  C   UNL     1       4.971  -3.558  -2.189  0.00  0.00    +0.013 C 
ATOM     19  C   UNL     1       5.976  -4.266  -3.100  0.00  0.00    +0.001 C 
ATOM     20  C   UNL     1       7.346  -4.300  -2.419  0.00  0.00    +0.000 C 
ATOM     21  C   UNL     1       7.818  -2.870  -2.151  0.00  0.00    +0.001 C 
ATOM     22  C   UNL     1       6.813  -2.163  -1.240  0.00  0.00    +0.013 C 
ENDBRANCH  14  17
ENDBRANCH   3  13
BRANCH   9  23
ATOM     23  C   UNL     1      -4.043  -0.633   0.281  0.00  0.00    +0.077 C 
ATOM     24  C   UNL     1      -4.421  -0.172  -1.127  0.00  0.00    +0.017 C 
BRANCH  23  25
ATOM     25  C   UNL     1      -5.015  -0.056   1.277  0.00  0.00    +0.216 C 
ATOM     26  O   UNL     1      -4.611   0.632   2.191  0.00  0.00    -0.276 OA
ATOM     27  N   UNL     1      -6.334  -0.304   1.153  0.00  0.00    -0.311 N 
ATOM     28  H   UNL     1      -6.700  -0.929   0.325  0.00  0.00    +0.149 HD
BRANCH  27  29
ATOM     29  C   UNL     1      -7.280   0.257   2.121  0.00  0.00    +0.139 C 
BRANCH  29  30
ATOM     30  C   UNL     1      -8.680  -0.168   1.760  0.00  0.00    -0.030 A 
ATOM     31  C   UNL     1      -9.443   0.617   0.916  0.00  0.00    +0.008 A 
ATOM     32  C   UNL     1     -10.725   0.226   0.579  0.00  0.00    +0.038 A 
ATOM     33  C   UNL     1     -11.249  -0.947   1.097  0.00  0.00    +0.123 A 
ATOM     34  C   UNL     1     -10.486  -1.729   1.947  0.00  0.00    +0.038 A 
ATOM     35  C   UNL     1      -9.202  -1.339   2.277  0.00  0.00    +0.008 A 
ATOM     36  F   UNL     1     -12.505  -1.327   0.774  0.00  0.00    -0.205 F 
ENDBRANCH  29  30
ENDBRANCH  27  29
ENDBRANCH  23  25
ENDBRANCH   9  23
BRANCH   8  37
ATOM     37  O   UNL     1      -1.706  -2.272  -0.095  0.00  0.00    -0.391 OA
ATOM     38  H   UNL     1      -2.653  -2.800  -0.283  0.00  0.00    +0.210 HD
ENDBRANCH   8  37
TORSDOF 7
