REMARK  Name = ZINC08827153
REMARK  18 active torsions:
REMARK  status: ('A' for Active; 'I' for Inactive)
REMARK    1  A    between atoms: C_1  and  C_2
REMARK    2  A    between atoms: C_2  and  O_3
REMARK    3  A    between atoms: O_3  and  C_4
REMARK    4  A    between atoms: C_4  and  C_6
REMARK    5  A    between atoms: C_7  and  C_36
REMARK    6  A    between atoms: C_8  and  C_13
REMARK    7  A    between atoms: C_9  and  C_12
REMARK    8  A    between atoms: C_13  and  C_15
REMARK    9  A    between atoms: C_16  and  O_35
REMARK   10  A    between atoms: N_19  and  C_30
REMARK   11  A    between atoms: C_20  and  C_22
REMARK   12  A    between atoms: C_26  and  O_28
REMARK   13  A    between atoms: O_28  and  C_29
REMARK   14  A    between atoms: C_30  and  C_31
REMARK   15  A    between atoms: C_31  and  C_32
REMARK   16  A    between atoms: C_32  and  N_68
REMARK   17  A    between atoms: C_33  and  N_68
REMARK   18  A    between atoms: C_34  and  N_68
REMARK                            x       y       z     vdW  Elec       q    Type
REMARK                         _______ _______ _______ _____ _____    ______ ____
ROOT
ATOM      1  C   UNL     1      -4.963   0.737  -4.397  0.00  0.00    +0.071 C 
ATOM      2  C   UNL     1      -4.358  -0.353  -4.923  0.00  0.00    +0.188 C 
ATOM      3  C   UNL     1      -3.871  -1.215  -3.827  0.00  0.00    +0.282 C 
ATOM      4  O   UNL     1      -3.284  -2.268  -3.976  0.00  0.00    -0.267 OA
ATOM      5  N   UNL     1      -4.174  -0.662  -2.638  0.00  0.00    -0.284 N 
ATOM      6  C   UNL     1      -4.884   0.597  -2.895  0.00  0.00    +0.145 C 
ENDROOT
BRANCH   6   7
ATOM      7  C   UNL     1      -4.116   1.754  -2.309  0.00  0.00    -0.019 A 
ATOM      8  C   UNL     1      -2.758   1.870  -2.542  0.00  0.00    +0.006 A 
ATOM      9  C   UNL     1      -2.051   2.931  -2.007  0.00  0.00    +0.004 A 
ATOM     10  C   UNL     1      -2.700   3.877  -1.237  0.00  0.00    +0.045 A 
ATOM     11  C   UNL     1      -4.062   3.762  -1.001  0.00  0.00    +0.120 A 
ATOM     12  C   UNL     1      -4.771   2.699  -1.544  0.00  0.00    +0.051 A 
BRANCH  11  13
ATOM     13  O   UNL     1      -4.703   4.691  -0.245  0.00  0.00    -0.495 OA
ATOM     14  C   UNL     1      -3.912   5.761   0.276  0.00  0.00    +0.277 C 
ENDBRANCH  11  13
ENDBRANCH   6   7
BRANCH   1  15
ATOM     15  C   UNL     1      -5.582   1.839  -5.142  0.00  0.00    +0.197 C 
ATOM     16  O   UNL     1      -4.972   2.880  -5.306  0.00  0.00    -0.287 OA
BRANCH  15  19
ATOM     17  C   UNL     1      -8.850   2.076  -6.782  0.00  0.00    +0.128 A 
ATOM     18  C   UNL     1      -7.631   2.619  -6.496  0.00  0.00    -0.008 A 
ATOM     19  C   UNL     1      -6.941   1.686  -5.691  0.00  0.00    +0.046 A 
ATOM     20  C   UNL     1      -7.784   0.604  -5.510  0.00  0.00    +0.025 A 
ATOM     21  N   UNL     1      -8.930   0.844  -6.168  0.00  0.00    -0.352 N 
ATOM     22  H   UNL     1      -9.692   0.246  -6.205  0.00  0.00    +0.166 HD
ATOM     23  C   UNL     1      -7.470  -0.635  -4.711  0.00  0.00    +0.064 C 
ATOM     24  C   UNL     1      -7.118   3.959  -6.956  0.00  0.00    +0.047 C 
BRANCH  17  25
ATOM     25  C   UNL     1      -9.898   2.699  -7.596  0.00  0.00    +0.356 C 
ATOM     26  O   UNL     1      -9.714   3.796  -8.089  0.00  0.00    -0.243 OA
BRANCH  25  27
ATOM     27  O   UNL     1     -11.066   2.056  -7.798  0.00  0.00    -0.460 OA
BRANCH  27  29
ATOM     28  C   UNL     1     -13.307   1.856  -8.732  0.00  0.00    +0.048 C 
ATOM     29  C   UNL     1     -12.058   2.733  -8.615  0.00  0.00    +0.229 C 
ENDBRANCH  27  29
ENDBRANCH  25  27
ENDBRANCH  17  25
ENDBRANCH  15  19
ENDBRANCH   1  15
BRANCH   2  30
ATOM     30  O   UNL     1      -4.220  -0.611  -6.244  0.00  0.00    -0.502 OA
ATOM     31  H   UNL     1      -3.737  -1.478  -6.366  0.00  0.00    +0.292 HD
ENDBRANCH   2  30
BRANCH   5  32
ATOM     32  C   UNL     1      -3.856  -1.220  -1.321  0.00  0.00    +0.107 C 
BRANCH  32  33
ATOM     33  C   UNL     1      -2.486  -0.711  -0.869  0.00  0.00    +0.000 C 
BRANCH  33  34
ATOM     34  C   UNL     1      -2.155  -1.294   0.507  0.00  0.00    -0.078 C 
BRANCH  34  37
ATOM     35  C   UNL     1      -0.866   0.644   1.173  0.00  0.00    -0.097 C 
ATOM     36  C   UNL     1      -0.381  -1.522   2.139  0.00  0.00    -0.097 C 
ATOM     37  N   UNL     1      -0.821  -0.811   0.920  0.00  0.00    +0.376 N 
ATOM     38  H   UNL     1      -0.150  -0.997   0.165  0.00  0.00    -0.083 HD
ENDBRANCH  34  37
ENDBRANCH  33  34
ENDBRANCH  32  33
ENDBRANCH   5  32
TORSDOF 12
