REMARK  Name = ZINC07671661
REMARK  8 active torsions:
REMARK  status: ('A' for Active; 'I' for Inactive)
REMARK    1  A    between atoms: C_1  and  C_2
REMARK    2  A    between atoms: C_3  and  C_26
REMARK    3  A    between atoms: C_4  and  C_25
REMARK    4  A    between atoms: C_5  and  S_10
REMARK    5  A    between atoms: C_6  and  C_9
REMARK    6  A    between atoms: C_7  and  C_8
REMARK    7  A    between atoms: S_10  and  N_13
REMARK    8  A    between atoms: C_19  and  C_21
REMARK                            x       y       z     vdW  Elec       q    Type
REMARK                         _______ _______ _______ _____ _____    ______ ____
ROOT
ATOM      1  S   UNL     1      -5.811   3.065   4.375  0.00  0.00    +0.061 S 
ATOM      2  O   UNL     1      -5.287   4.383   4.473  0.00  0.00    -0.153 OA
ATOM      3  O   UNL     1      -7.160   2.807   4.010  0.00  0.00    -0.153 OA
ENDROOT
BRANCH   1   8
ATOM      4  C   UNL     1      -4.954   0.464   9.752  0.00  0.00    +0.044 C 
ATOM      5  C   UNL     1      -5.168   1.114   8.409  0.00  0.00    -0.044 A 
ATOM      6  C   UNL     1      -5.996   0.517   7.476  0.00  0.00    -0.043 A 
ATOM      7  C   UNL     1      -6.192   1.113   6.245  0.00  0.00    -0.021 A 
ATOM      8  C   UNL     1      -5.561   2.306   5.946  0.00  0.00    +0.112 A 
ATOM      9  C   UNL     1      -4.729   2.900   6.876  0.00  0.00    -0.021 A 
ATOM     10  C   UNL     1      -4.536   2.306   8.110  0.00  0.00    -0.043 A 
ATOM     11  C   UNL     1      -3.634   2.957   9.126  0.00  0.00    +0.044 C 
ATOM     12  C   UNL     1      -4.037   4.197   6.548  0.00  0.00    +0.046 C 
ATOM     13  C   UNL     1      -7.094   0.462   5.228  0.00  0.00    +0.046 C 
ATOM     14  C   UNL     1      -6.684  -0.783   7.803  0.00  0.00    +0.044 C 
ENDBRANCH   1   8
BRANCH   1  15
ATOM     15  N   UNL     1      -4.862   2.258   3.284  0.00  0.00    -0.174 NA
ATOM     16  C   UNL     1      -5.412   1.152   2.489  0.00  0.00    +0.128 C 
ATOM     17  C   UNL     1      -4.538  -0.089   2.706  0.00  0.00    +0.125 C 
ATOM     18  N   UNL     1      -3.131   0.288   2.515  0.00  0.00    -0.299 N 
ATOM     19  C   UNL     1      -2.579   1.391   3.314  0.00  0.00    +0.125 C 
ATOM     20  C   UNL     1      -3.455   2.636   3.094  0.00  0.00    +0.128 C 
ATOM     21  C   UNL     1      -2.358  -0.368   1.627  0.00  0.00    +0.219 C 
ATOM     22  O   UNL     1      -2.823  -1.280   0.977  0.00  0.00    -0.275 OA
BRANCH  21  23
ATOM     23  C   UNL     1      -0.917   0.030   1.442  0.00  0.00    +0.075 C 
ATOM     24  C   UNL     1      -0.173  -0.815   0.395  0.00  0.00    +0.013 C 
ATOM     25  C   UNL     1      -0.644   0.208  -0.653  0.00  0.00    +0.001 C 
ATOM     26  C   UNL     1      -0.725   1.228   0.494  0.00  0.00    +0.013 C 
ENDBRANCH  21  23
ENDBRANCH   1  15
TORSDOF 3
