REMARK  Name = ZINC39965363
REMARK  8 active torsions:
REMARK  status: ('A' for Active; 'I' for Inactive)
REMARK    1  A    between atoms: C_1  and  C_2
REMARK    2  A    between atoms: C_4  and  C_28
REMARK    3  A    between atoms: C_6  and  N_8
REMARK    4  A    between atoms: C_9  and  C_11
REMARK    5  A    between atoms: C_11  and  S_12
REMARK    6  A    between atoms: S_12  and  C_13
REMARK    7  A    between atoms: C_16  and  C_19
REMARK    8  A    between atoms: N_17  and  C_18
REMARK                            x       y       z     vdW  Elec       q    Type
REMARK                         _______ _______ _______ _____ _____    ______ ____
ROOT
ATOM      1  C   UNL     1       0.673  -2.649   7.756  0.00  0.00    +0.192 A 
ATOM      2  N   UNL     1       0.689  -3.951   7.582  0.00  0.00    -0.122 NA
ATOM      3  N   UNL     1       0.627  -4.549   8.718  0.00  0.00    -0.128 NA
ATOM      4  C   UNL     1       0.566  -3.666   9.687  0.00  0.00    +0.165 A 
ATOM      5  N   UNL     1       0.600  -2.421   9.101  0.00  0.00    -0.305 N 
ATOM      6  C   UNL     1       0.563  -1.123   9.778  0.00  0.00    +0.153 C 
ENDROOT
BRANCH   4   7
ATOM      7  C   UNL     1       0.484  -3.953  11.135  0.00  0.00    +0.023 A 
ATOM      8  C   UNL     1       0.829  -5.216  11.618  0.00  0.00    +0.015 A 
ATOM      9  C   UNL     1       0.752  -5.483  12.969  0.00  0.00    +0.050 A 
ATOM     10  C   UNL     1       0.332  -4.498  13.852  0.00  0.00    +0.166 A 
ATOM     11  C   UNL     1      -0.014  -3.235  13.376  0.00  0.00    +0.167 A 
ATOM     12  C   UNL     1       0.066  -2.960  12.023  0.00  0.00    +0.061 A 
ATOM     13  O   UNL     1      -0.389  -2.458  14.434  0.00  0.00    -0.453 OA
ATOM     14  C   UNL     1      -0.660  -3.377  15.508  0.00  0.00    +0.466 C 
ATOM     15  O   UNL     1       0.174  -4.511  15.208  0.00  0.00    -0.453 OA
ENDBRANCH   4   7
BRANCH   1  16
ATOM     16  S   UNL     1       0.740  -1.425   6.491  0.00  0.00    -0.077 S 
BRANCH  16  17
ATOM     17  C   UNL     1       0.824  -2.386   4.954  0.00  0.00    +0.173 C 
BRANCH  17  19
ATOM     18  N   UNL     1       0.955  -1.940   2.525  0.00  0.00    -0.285 N 
ATOM     19  C   UNL     1       0.887  -1.447   3.777  0.00  0.00    +0.227 C 
ATOM     20  O   UNL     1       0.876  -0.248   3.957  0.00  0.00    -0.275 OA
ATOM     21  H   UNL     1       0.889  -2.897   2.376  0.00  0.00    +0.155 HD
BRANCH  18  27
ATOM     22  C   UNL     1       0.034  -0.814  -2.171  0.00  0.00    +0.044 C 
ATOM     23  C   UNL     1       0.686  -0.503  -0.849  0.00  0.00    -0.048 A 
ATOM     24  C   UNL     1       1.449   0.642  -0.707  0.00  0.00    +0.006 A 
ATOM     25  C   UNL     1       2.049   0.931   0.505  0.00  0.00    -0.048 A 
ATOM     26  C   UNL     1       1.887   0.077   1.579  0.00  0.00    +0.026 A 
ATOM     27  C   UNL     1       1.121  -1.073   1.440  0.00  0.00    +0.034 A 
ATOM     28  C   UNL     1       0.516  -1.358   0.222  0.00  0.00    +0.026 A 
ATOM     29  C   UNL     1       2.880   2.179   0.655  0.00  0.00    +0.044 C 
ENDBRANCH  18  27
ENDBRANCH  17  19
ENDBRANCH  16  17
ENDBRANCH   1  16
TORSDOF 5
