REMARK  Name = ZINC39621054
REMARK  6 active torsions:
REMARK  status: ('A' for Active; 'I' for Inactive)
REMARK    1  A    between atoms: C_3  and  C_6
REMARK    2  A    between atoms: C_8  and  S_12
REMARK    3  A    between atoms: S_12  and  C_13
REMARK    4  A    between atoms: C_13  and  C_14
REMARK    5  A    between atoms: N_16  and  C_17
REMARK    6  A    between atoms: C_19  and  C_28
REMARK                            x       y       z     vdW  Elec       q    Type
REMARK                         _______ _______ _______ _____ _____    ______ ____
ROOT
ATOM      1  C   UNL     1       8.770  -1.254  -0.616  0.00  0.00    +0.224 C 
ATOM      2  O   UNL     1       9.705  -0.631  -1.074  0.00  0.00    -0.275 OA
ATOM      3  N   UNL     1       8.963  -2.494  -0.125  0.00  0.00    -0.302 N 
ATOM      4  H   UNL     1       8.215  -2.992   0.241  0.00  0.00    +0.150 HD
ENDROOT
BRANCH   3   5
ATOM      5  C   UNL     1      10.301  -3.090  -0.145  0.00  0.00    +0.151 C 
ATOM      6  C   UNL     1      10.492  -4.094   1.017  0.00  0.00    +0.132 C 
ATOM      7  C   UNL     1      11.884  -4.020   1.592  0.00  0.00    -0.046 C 
ATOM      8  C   UNL     1      12.596  -2.927   1.342  0.00  0.00    -0.013 C 
ATOM      9  S   UNL     1      11.594  -1.865   0.325  0.00  0.00    -0.106 S 
ATOM     10  C   UNL     1      13.989  -2.627   1.818  0.00  0.00    +0.042 C 
ATOM     11  C   UNL     1      14.350  -3.606   2.942  0.00  0.00    +0.005 C 
ATOM     12  C   UNL     1      13.980  -5.022   2.489  0.00  0.00    +0.005 C 
ATOM     13  C   UNL     1      12.459  -5.158   2.434  0.00  0.00    +0.032 C 
BRANCH   6  14
ATOM     14  C   UNL     1       9.496  -3.785   2.104  0.00  0.00    +0.220 C 
ATOM     15  O   UNL     1       9.750  -2.942   2.938  0.00  0.00    -0.275 OA
ATOM     16  N   UNL     1       8.322  -4.445   2.150  0.00  0.00    -0.329 N 
ATOM     17  H   UNL     1       8.148  -5.169   1.528  0.00  0.00    +0.145 HD
ATOM     18  H   UNL     1       7.651  -4.197   2.806  0.00  0.00    +0.145 HD
ENDBRANCH   6  14
ENDBRANCH   3   5
BRANCH   1  19
ATOM     19  C   UNL     1       7.394  -0.641  -0.596  0.00  0.00    +0.173 C 
BRANCH  19  20
ATOM     20  S   UNL     1       7.461   1.021  -1.321  0.00  0.00    -0.077 S 
BRANCH  20  23
ATOM     21  C   UNL     1       3.666   1.675  -0.821  0.00  0.00    +0.189 A 
ATOM     22  N   UNL     1       4.778   0.929  -0.731  0.00  0.00    -0.200 NA
ATOM     23  C   UNL     1       5.798   1.595  -1.225  0.00  0.00    +0.185 A 
ATOM     24  N   UNL     1       5.349   2.798  -1.647  0.00  0.00    -0.253 N 
ATOM     25  H   UNL     1       5.875   3.503  -2.057  0.00  0.00    +0.191 HD
ATOM     26  N   UNL     1       3.970   2.825  -1.382  0.00  0.00    -0.151 NA
BRANCH  21  29
ATOM     27  C   UNL     1      -0.004   1.373   0.057  0.00  0.00    +0.008 A 
ATOM     28  C   UNL     1       1.141   1.964  -0.432  0.00  0.00    +0.019 A 
ATOM     29  C   UNL     1       2.318   1.268  -0.370  0.00  0.00    +0.058 A 
ATOM     30  S   UNL     1       1.802  -0.261   0.396  0.00  0.00    -0.093 S 
ATOM     31  C   UNL     1       0.069   0.123   0.582  0.00  0.00    +0.046 A 
ENDBRANCH  21  29
ENDBRANCH  20  23
ENDBRANCH  19  20
ENDBRANCH   1  19
TORSDOF 6
