REMARK  Name = ZINC35889279
REMARK  11 active torsions:
REMARK  status: ('A' for Active; 'I' for Inactive)
REMARK    1  A    between atoms: C_1  and  C_2
REMARK    2  A    between atoms: C_2  and  C_3
REMARK    3  A    between atoms: C_12  and  C_13
REMARK    4  A    between atoms: C_13  and  C_15
REMARK    5  A    between atoms: C_13  and  C_30
REMARK    6  A    between atoms: C_15  and  C_16
REMARK    7  A    between atoms: N_18  and  C_19
REMARK    8  A    between atoms: C_19  and  C_20
REMARK    9  A    between atoms: C_20  and  C_21
REMARK   10  A    between atoms: C_21  and  N_22
REMARK   11  A    between atoms: C_27  and  C_29
REMARK                            x       y       z     vdW  Elec       q    Type
REMARK                         _______ _______ _______ _____ _____    ______ ____
ROOT
ATOM      1  C   UNL     1      -5.233  -1.635  -3.040  0.00  0.00    +0.060 C 
ENDROOT
BRANCH   1  11
ATOM      2  C   UNL     1      -1.412  -0.526   0.013  0.00  0.00    -0.024 A 
ATOM      3  C   UNL     1      -2.015  -0.863   1.205  0.00  0.00    +0.005 A 
ATOM      4  C   UNL     1      -3.316  -1.345   1.228  0.00  0.00    +0.001 A 
ATOM      5  C   UNL     1      -4.023  -1.492   0.067  0.00  0.00    +0.010 A 
ATOM      6  C   UNL     1      -3.432  -1.155  -1.151  0.00  0.00    +0.004 A 
ATOM      7  C   UNL     1      -2.114  -0.662  -1.180  0.00  0.00    +0.050 A 
ATOM      8  N   UNL     1      -1.802  -0.414  -2.498  0.00  0.00    -0.360 N 
ATOM      9  H   UNL     1      -0.952  -0.069  -2.814  0.00  0.00    +0.165 HD
ATOM     10  C   UNL     1      -2.869  -0.725  -3.295  0.00  0.00    +0.088 A 
ATOM     11  C   UNL     1      -3.883  -1.186  -2.545  0.00  0.00    -0.015 A 
BRANCH   2  13
ATOM     12  C   UNL     1      -0.019   1.526   0.010  0.00  0.00    +0.009 C 
ATOM     13  C   UNL     1       0.002  -0.004   0.002  0.00  0.00    +0.034 C 
ENDBRANCH   2  13
ENDBRANCH   1  11
BRANCH   1  14
ATOM     14  C   UNL     1      -5.908  -0.496  -3.761  0.00  0.00    -0.037 A 
ATOM     15  C   UNL     1      -5.315   0.062  -4.879  0.00  0.00    +0.004 A 
ATOM     16  C   UNL     1      -5.933   1.106  -5.541  0.00  0.00    +0.003 A 
ATOM     17  C   UNL     1      -7.143   1.594  -5.086  0.00  0.00    +0.038 A 
ATOM     18  C   UNL     1      -7.737   1.036  -3.967  0.00  0.00    +0.124 A 
ATOM     19  C   UNL     1      -7.121  -0.014  -3.308  0.00  0.00    +0.042 A 
ATOM     20  F   UNL     1      -8.920   1.513  -3.521  0.00  0.00    -0.205 F 
ENDBRANCH   1  14
BRANCH   1  21
ATOM     21  C   UNL     1      -5.058  -2.814  -4.000  0.00  0.00    +0.108 C 
BRANCH  21  22
ATOM     22  C   UNL     1      -6.412  -3.341  -4.399  0.00  0.00    +0.214 C 
ATOM     23  O   UNL     1      -7.418  -2.825  -3.960  0.00  0.00    -0.276 OA
ATOM     24  N   UNL     1      -6.506  -4.386  -5.245  0.00  0.00    -0.315 N 
ATOM     25  H   UNL     1      -5.701  -4.799  -5.596  0.00  0.00    +0.149 HD
BRANCH  24  26
ATOM     26  C   UNL     1      -7.822  -4.899  -5.633  0.00  0.00    +0.102 C 
BRANCH  26  27
ATOM     27  C   UNL     1      -7.647  -6.078  -6.593  0.00  0.00    +0.000 C 
BRANCH  27  28
ATOM     28  C   UNL     1      -9.021  -6.614  -6.998  0.00  0.00    -0.077 C 
BRANCH  28  29
ATOM     29  N   UNL     1      -8.854  -7.746  -7.920  0.00  0.00    +0.381 N 
ATOM     30  C   UNL     1      -8.189  -8.851  -7.218  0.00  0.00    -0.078 C 
ATOM     31  C   UNL     1      -7.938 -10.002  -8.195  0.00  0.00    -0.019 C 
ATOM     32  C   UNL     1      -9.277 -10.486  -8.759  0.00  0.00    -0.003 C 
ATOM     33  C   UNL     1      -9.996  -9.308  -9.423  0.00  0.00    -0.016 C 
ATOM     34  C   UNL     1     -10.170  -8.182  -8.401  0.00  0.00    -0.072 C 
ATOM     35  C   UNL     1     -10.888  -7.002  -9.060  0.00  0.00    -0.013 C 
ATOM     36  H   UNL     1      -8.288  -7.459  -8.704  0.00  0.00    -0.081 HD
ENDBRANCH  28  29
ENDBRANCH  27  28
ENDBRANCH  26  27
ENDBRANCH  24  26
ENDBRANCH  21  22
ENDBRANCH   1  21
TORSDOF 9
