REMARK  Name = ZINC40065230
REMARK  7 active torsions:
REMARK  status: ('A' for Active; 'I' for Inactive)
REMARK    1  A    between atoms: C_1  and  C_2
REMARK    2  A    between atoms: C_12  and  C_13
REMARK    3  A    between atoms: C_17  and  C_19
REMARK    4  A    between atoms: C_23  and  O_25
REMARK    5  A    between atoms: C_28  and  C_34
REMARK    6  A    between atoms: C_29  and  C_31
REMARK    7  A    between atoms: C_31  and  C_33
REMARK                            x       y       z     vdW  Elec       q    Type
REMARK                         _______ _______ _______ _____ _____    ______ ____
ROOT
ATOM      1  C   UNL     1      -0.018   1.503   0.010  0.00  0.00    +0.044 C 
ATOM      2  C   UNL     1       0.002  -0.004   0.002  0.00  0.00    -0.044 A 
ATOM      3  C   UNL     1       0.005  -0.683  -1.209  0.00  0.00    +0.004 A 
ATOM      4  C   UNL     1       0.021  -2.050  -1.231  0.00  0.00    +0.015 A 
ATOM      5  C   UNL     1       0.033  -2.761  -0.032  0.00  0.00    +0.065 A 
ATOM      6  C   UNL     1       0.036  -4.246  -0.038  0.00  0.00    +0.199 A 
ATOM      7  O   UNL     1       0.200  -4.908  -1.048  0.00  0.00    -0.287 OA
ATOM      8  C   UNL     1      -0.176  -4.839   1.286  0.00  0.00    +0.072 A 
ATOM      9  C   UNL     1      -0.158  -4.068   2.414  0.00  0.00    +0.199 A 
ATOM     10  O   UNL     1       0.060  -2.739   2.383  0.00  0.00    -0.449 OA
ATOM     11  C   UNL     1       0.036  -2.085   1.199  0.00  0.00    +0.143 A 
ATOM     12  C   UNL     1       0.023  -0.690   1.195  0.00  0.00    -0.005 A 
ATOM     13  C   UNL     1       0.025   0.066   2.499  0.00  0.00    +0.048 C 
ATOM     14  C   UNL     1      -0.407  -4.941   3.574  0.00  0.00    +0.289 C 
ATOM     15  O   UNL     1      -0.459  -4.566   4.729  0.00  0.00    -0.266 OA
ATOM     16  N   UNL     1      -0.571  -6.216   3.168  0.00  0.00    -0.232 N 
ATOM     17  C   UNL     1      -0.436  -6.249   1.703  0.00  0.00    +0.152 C 
ATOM     18  C   UNL     1      -0.820  -7.302   3.985  0.00  0.00    +0.169 A 
ATOM     19  N   UNL     1      -0.980  -8.567   3.636  0.00  0.00    -0.229 NA
ATOM     20  C   UNL     1      -1.212  -9.497   4.524  0.00  0.00    +0.058 A 
ATOM     21  C   UNL     1      -1.280  -9.079   5.852  0.00  0.00    +0.078 A 
ATOM     22  S   UNL     1      -0.984  -7.328   5.659  0.00  0.00    -0.049 S 
ATOM     23  C   UNL     1      -1.396 -10.941   4.134  0.00  0.00    +0.067 C 
ENDROOT
BRANCH  17  24
ATOM     24  C   UNL     1       0.721  -7.130   1.306  0.00  0.00    -0.019 A 
ATOM     25  C   UNL     1       1.863  -7.162   2.084  0.00  0.00    +0.006 A 
ATOM     26  C   UNL     1       2.926  -7.969   1.724  0.00  0.00    +0.004 A 
ATOM     27  C   UNL     1       2.849  -8.745   0.583  0.00  0.00    +0.045 A 
ATOM     28  C   UNL     1       1.704  -8.715  -0.199  0.00  0.00    +0.117 A 
ATOM     29  C   UNL     1       0.636  -7.909   0.169  0.00  0.00    +0.051 A 
BRANCH  28  30
ATOM     30  O   UNL     1       1.626  -9.478  -1.321  0.00  0.00    -0.507 OA
ATOM     31  H   UNL     1       1.262 -10.361  -1.172  0.00  0.00    +0.292 HD
ENDBRANCH  28  30
ENDBRANCH  17  24
BRANCH  21  32
ATOM     32  C   UNL     1      -1.512  -9.829   7.021  0.00  0.00    +0.168 C 
ATOM     33  O   UNL     1      -1.690 -11.029   6.948  0.00  0.00    -0.292 OA
ATOM     34  C   UNL     1      -1.540  -9.144   8.363  0.00  0.00    +0.092 C 
ENDBRANCH  21  32
TORSDOF 3
