REMARK  Name = ZINC24092348
REMARK  5 active torsions:
REMARK  status: ('A' for Active; 'I' for Inactive)
REMARK    1  A    between atoms: C_1  and  C_2
REMARK    2  A    between atoms: C_2  and  C_4
REMARK    3  A    between atoms: C_2  and  O_17
REMARK    4  A    between atoms: N_6  and  C_7
REMARK    5  A    between atoms: O_17  and  C_18
REMARK                            x       y       z     vdW  Elec       q    Type
REMARK                         _______ _______ _______ _____ _____    ______ ____
ROOT
ATOM      1  C   UNL     1       1.330   4.049   3.577  0.00  0.00    +0.254 C 
ATOM      2  O   UNL     1       0.529   4.940   3.767  0.00  0.00    -0.272 OA
ATOM      3  N   UNL     1       1.504   3.553   2.336  0.00  0.00    -0.309 N 
ATOM      4  H   UNL     1       2.231   2.745   2.163  0.00  0.00    +0.149 HD
ENDROOT
BRANCH   3   5
ATOM      5  C   UNL     1       0.727   4.090   1.216  0.00  0.00    +0.079 C 
ATOM      6  C   UNL     1       1.487   3.858  -0.091  0.00  0.00    +0.010 C 
ATOM      7  C   UNL     1       1.706   2.358  -0.295  0.00  0.00    +0.009 C 
ATOM      8  C   UNL     1       0.351   1.649  -0.360  0.00  0.00    -0.010 C 
ATOM      9  C   UNL     1      -0.461   2.210  -1.530  0.00  0.00    +0.007 C 
ATOM     10  C   UNL     1      -0.680   3.710  -1.325  0.00  0.00    -0.010 C 
ATOM     11  C   UNL     1       0.675   4.419  -1.260  0.00  0.00    +0.009 C 
ATOM     12  C   UNL     1      -1.440   3.942  -0.018  0.00  0.00    +0.009 C 
ATOM     13  C   UNL     1      -0.628   3.381   1.151  0.00  0.00    +0.010 C 
ATOM     14  C   UNL     1      -0.409   1.881   0.947  0.00  0.00    +0.009 C 
ENDBRANCH   3   5
BRANCH   1  16
ATOM     15  C   UNL     1       1.746   2.035   4.962  0.00  0.00    +0.062 C 
ATOM     16  C   UNL     1       2.131   3.497   4.728  0.00  0.00    +0.255 C 
BRANCH  16  17
ATOM     17  O   UNL     1       1.855   4.256   5.907  0.00  0.00    -0.480 OA
BRANCH  17  18
ATOM     18  C   UNL     1       2.813   4.268   6.871  0.00  0.00    +0.122 A 
ATOM     19  C   UNL     1       2.666   5.078   7.987  0.00  0.00    +0.047 A 
ATOM     20  C   UNL     1       3.638   5.084   8.969  0.00  0.00    +0.019 A 
ATOM     21  C   UNL     1       4.763   4.292   8.834  0.00  0.00    +0.018 A 
ATOM     22  C   UNL     1       4.916   3.488   7.718  0.00  0.00    +0.019 A 
ATOM     23  C   UNL     1       3.943   3.474   6.737  0.00  0.00    +0.047 A 
ATOM     24 BR   UNL     1       6.096   4.307  10.175  0.00  0.00    -0.050 Br
ENDBRANCH  17  18
ENDBRANCH  16  17
ENDBRANCH   1  16
TORSDOF 4
