REMARK  Name = ZINC21039854
REMARK  9 active torsions:
REMARK  status: ('A' for Active; 'I' for Inactive)
REMARK    1  A    between atoms: C_1  and  O_2
REMARK    2  A    between atoms: O_2  and  C_3
REMARK    3  A    between atoms: C_6  and  C_9
REMARK    4  A    between atoms: N_10  and  N_11
REMARK    5  A    between atoms: C_14  and  S_17
REMARK    6  A    between atoms: S_17  and  C_18
REMARK    7  A    between atoms: C_18  and  C_19
REMARK    8  A    between atoms: C_19  and  C_20
REMARK    9  A    between atoms: N_22  and  C_23
REMARK                            x       y       z     vdW  Elec       q    Type
REMARK                         _______ _______ _______ _____ _____    ______ ____
ROOT
ATOM      1  N   UNL     1      -5.966  -2.973  -0.024  0.00  0.00    -0.205 N 
ATOM      2  C   UNL     1      -5.940  -1.579  -0.020  0.00  0.00    +0.235 A 
ATOM      3  N   UNL     1      -4.836  -0.822  -0.021  0.00  0.00    -0.303 N 
ATOM      4  C   UNL     1      -5.172   0.451  -0.013  0.00  0.00    +0.190 A 
ATOM      5  N   UNL     1      -6.521   0.526  -0.016  0.00  0.00    -0.121 NA
ATOM      6  N   UNL     1      -6.992  -0.797  -0.021  0.00  0.00    -0.111 NA
ATOM      7  H   UNL     1      -5.024  -3.541  -0.023  0.00  0.00    +0.177 HD
ATOM      8  H   UNL     1      -3.844  -1.297  -0.028  0.00  0.00    +0.171 HD
ENDROOT
BRANCH   1  10
ATOM      9  C   UNL     1      -7.217  -4.949  -0.033  0.00  0.00    +0.138 C 
ATOM     10  N   UNL     1      -7.192  -3.650  -0.029  0.00  0.00    -0.188 NA
BRANCH   9  14
ATOM     11  C   UNL     1     -10.933  -7.001  -0.047  0.00  0.00    +0.120 A 
ATOM     12  C   UNL     1      -9.745  -7.720  -0.047  0.00  0.00    +0.046 A 
ATOM     13  C   UNL     1      -8.536  -7.058  -0.043  0.00  0.00    +0.013 A 
ATOM     14  C   UNL     1      -8.507  -5.661  -0.038  0.00  0.00    -0.005 A 
ATOM     15  C   UNL     1      -9.705  -4.942  -0.033  0.00  0.00    +0.013 A 
ATOM     16  C   UNL     1     -10.909  -5.613  -0.043  0.00  0.00    +0.046 A 
BRANCH  11  18
ATOM     17  C   UNL     1     -13.306  -6.857  -0.050  0.00  0.00    +0.277 C 
ATOM     18  O   UNL     1     -12.123  -7.658  -0.050  0.00  0.00    -0.495 OA
ENDBRANCH  11  18
ENDBRANCH   9  14
ENDBRANCH   1  10
BRANCH   4  19
ATOM     19  S   UNL     1      -4.059   1.816  -0.007  0.00  0.00    -0.086 S 
BRANCH  19  20
ATOM     20  C   UNL     1      -2.478   0.933  -0.005  0.00  0.00    +0.086 C 
BRANCH  20  21
ATOM     21  C   UNL     1      -1.330   1.944   0.001  0.00  0.00    +0.107 C 
BRANCH  21  22
ATOM     22  C   UNL     1      -0.014   1.208   0.002  0.00  0.00    +0.218 C 
ATOM     23  O   UNL     1       0.003  -0.004  -0.001  0.00  0.00    -0.275 OA
ATOM     24  N   UNL     1       1.143   1.898   0.001  0.00  0.00    -0.284 N 
ATOM     25  H   UNL     1       1.129   2.996  -0.071  0.00  0.00    +0.155 HD
BRANCH  24  26
ATOM     26  C   UNL     1       2.364   1.218   0.092  0.00  0.00    +0.053 A 
ATOM     27  C   UNL     1       2.513  -0.025  -0.508  0.00  0.00    +0.044 A 
ATOM     28  C   UNL     1       3.721  -0.692  -0.421  0.00  0.00    +0.043 A 
ATOM     29  C   UNL     1       4.777  -0.125   0.271  0.00  0.00    +0.021 A 
ATOM     30  C   UNL     1       4.630   1.110   0.874  0.00  0.00    +0.023 A 
ATOM     31  C   UNL     1       3.426   1.784   0.786  0.00  0.00    +0.062 A 
ATOM     32 CL   UNL     1       3.242   3.336   1.543  0.00  0.00    -0.082 Cl
ATOM     33 CL   UNL     1       3.911  -2.244  -1.175  0.00  0.00    -0.083 Cl
ENDBRANCH  24  26
ENDBRANCH  21  22
ENDBRANCH  20  21
ENDBRANCH  19  20
ENDBRANCH   4  19
TORSDOF 8
