REMARK  Name = ZINC35712136
REMARK  11 active torsions:
REMARK  status: ('A' for Active; 'I' for Inactive)
REMARK    1  A    between atoms: C_1  and  N_2
REMARK    2  A    between atoms: N_2  and  C_3
REMARK    3  A    between atoms: N_2  and  C_4
REMARK    4  A    between atoms: C_4  and  C_5
REMARK    5  A    between atoms: C_5  and  N_6
REMARK    6  A    between atoms: N_6  and  C_7
REMARK    7  A    between atoms: C_7  and  C_8
REMARK    8  A    between atoms: C_19  and  C_22
REMARK    9  A    between atoms: C_26  and  O_28
REMARK   10  A    between atoms: O_28  and  C_29
REMARK   11  A    between atoms: C_30  and  C_32
REMARK                            x       y       z     vdW  Elec       q    Type
REMARK                         _______ _______ _______ _____ _____    ______ ____
ROOT
ATOM      1  C   UNL     1      -3.480  -3.924  -1.956  0.00  0.00    +0.233 C 
ATOM      2  O   UNL     1      -2.811  -4.790  -1.434  0.00  0.00    -0.274 OA
ATOM      3  N   UNL     1      -4.136  -4.179  -3.105  0.00  0.00    -0.297 N 
ATOM      4  C   UNL     1      -4.945  -3.137  -3.752  0.00  0.00    +0.126 C 
ATOM      5  C   UNL     1      -4.459  -2.964  -5.196  0.00  0.00    +0.125 C 
ATOM      6  N   UNL     1      -4.378  -4.290  -5.825  0.00  0.00    -0.311 N 
ATOM      7  C   UNL     1      -3.568  -5.332  -5.179  0.00  0.00    +0.125 C 
ATOM      8  C   UNL     1      -4.050  -5.503  -3.737  0.00  0.00    +0.126 C 
ATOM      9  C   UNL     1      -5.054  -4.553  -7.011  0.00  0.00    +0.144 A 
ATOM     10  C   UNL     1      -5.819  -3.554  -7.615  0.00  0.00    +0.047 A 
ATOM     11  C   UNL     1      -6.474  -3.862  -8.794  0.00  0.00    +0.033 A 
ATOM     12  C   UNL     1      -6.329  -5.156  -9.307  0.00  0.00    +0.094 A 
ATOM     13  N   UNL     1      -5.580  -6.040  -8.662  0.00  0.00    -0.147 NA
ATOM     14  N   UNL     1      -4.969  -5.751  -7.571  0.00  0.00    -0.134 NA
ENDROOT
BRANCH  12  15
ATOM     15  C   UNL     1      -7.011  -5.537 -10.567  0.00  0.00    +0.006 A 
ATOM     16  C   UNL     1      -7.794  -4.606 -11.248  0.00  0.00    +0.010 A 
ATOM     17  C   UNL     1      -8.428  -4.963 -12.421  0.00  0.00    +0.004 A 
ATOM     18  C   UNL     1      -8.289  -6.244 -12.924  0.00  0.00    +0.045 A 
ATOM     19  C   UNL     1      -7.511  -7.177 -12.252  0.00  0.00    +0.121 A 
ATOM     20  C   UNL     1      -6.867  -6.825 -11.078  0.00  0.00    +0.055 A 
BRANCH  19  21
ATOM     21  O   UNL     1      -7.378  -8.434 -12.750  0.00  0.00    -0.495 OA
ATOM     22  C   UNL     1      -8.066  -8.726 -13.968  0.00  0.00    +0.277 C 
ENDBRANCH  19  21
ENDBRANCH  12  15
BRANCH   1  23
ATOM     23  C   UNL     1      -3.578  -2.562  -1.319  0.00  0.00    +0.203 C 
BRANCH  23  24
ATOM     24  N   UNL     1      -2.781  -2.539  -0.089  0.00  0.00    -0.290 N 
ATOM     25  C   UNL     1      -3.316  -2.977   1.068  0.00  0.00    +0.254 C 
ATOM     26  O   UNL     1      -2.692  -2.865   2.107  0.00  0.00    -0.269 OA
BRANCH  25  27
ATOM     27  C   UNL     1      -4.648  -3.587   1.075  0.00  0.00    +0.074 A 
ATOM     28  C   UNL     1      -5.415  -3.999   2.155  0.00  0.00    +0.021 A 
ATOM     29  C   UNL     1      -6.639  -4.542   1.845  0.00  0.00    +0.008 A 
ATOM     30  C   UNL     1      -7.007  -4.637   0.543  0.00  0.00    +0.046 A 
ATOM     31  S   UNL     1      -5.709  -3.986  -0.301  0.00  0.00    -0.092 S 
ENDBRANCH  25  27
BRANCH  24  32
ATOM     32  C   UNL     1      -1.404  -2.041  -0.118  0.00  0.00    +0.090 C 
BRANCH  32  33
ATOM     33  C   UNL     1      -1.409  -0.518   0.032  0.00  0.00    -0.060 C 
BRANCH  33  35
ATOM     34  C   UNL     1      -0.038   1.451   0.027  0.00  0.00    -0.097 C 
ATOM     35  N   UNL     1      -0.028  -0.018   0.004  0.00  0.00    +0.377 N 
ATOM     36  C   UNL     1       0.699  -0.522   1.176  0.00  0.00    -0.097 C 
ATOM     37  H   UNL     1       0.428  -0.338  -0.838  0.00  0.00    -0.083 HD
ENDBRANCH  33  35
ENDBRANCH  32  33
ENDBRANCH  24  32
ENDBRANCH  23  24
ENDBRANCH   1  23
TORSDOF 8
