REMARK  Name = ZINC20834762
REMARK  7 active torsions:
REMARK  status: ('A' for Active; 'I' for Inactive)
REMARK    1  A    between atoms: C_11  and  C_13
REMARK    2  A    between atoms: C_13  and  C_14
REMARK    3  A    between atoms: C_14  and  S_15
REMARK    4  A    between atoms: S_15  and  C_16
REMARK    5  A    between atoms: N_21  and  N_22
REMARK    6  A    between atoms: C_23  and  C_24
REMARK    7  A    between atoms: C_29  and  O_30
REMARK                            x       y       z     vdW  Elec       q    Type
REMARK                         _______ _______ _______ _____ _____    ______ ____
ROOT
ATOM      1  C   UNL     1       0.045   1.043  -2.809  0.00  0.00    +0.210 A 
ATOM      2  N   UNL     1      -0.226   1.228  -4.135  0.00  0.00    -0.186 NA
ATOM      3  C   UNL     1       0.731   0.570  -4.858  0.00  0.00    +0.232 A 
ATOM      4  N   UNL     1       1.558   0.004  -4.013  0.00  0.00    -0.245 N 
ATOM      5  N   UNL     1       1.127   0.307  -2.715  0.00  0.00    -0.144 NA
ATOM      6  N   UNL     1       0.812   0.513  -6.241  0.00  0.00    -0.205 N 
ATOM      7  H   UNL     1       0.060   1.027  -6.858  0.00  0.00    +0.177 HD
ATOM      8  H   UNL     1       2.409  -0.585  -4.387  0.00  0.00    +0.192 HD
ENDROOT
BRANCH   6   9
ATOM      9  N   UNL     1       1.851  -0.201  -6.853  0.00  0.00    -0.187 NA
ATOM     10  C   UNL     1       1.926  -0.255  -8.149  0.00  0.00    +0.142 C 
BRANCH  10  11
ATOM     11  C   UNL     1       3.019  -1.005  -8.792  0.00  0.00    +0.037 A 
ATOM     12  C   UNL     1       3.104  -1.065 -10.185  0.00  0.00    +0.033 A 
ATOM     13  C   UNL     1       4.131  -1.770 -10.781  0.00  0.00    +0.042 A 
ATOM     14  C   UNL     1       5.077  -2.417 -10.004  0.00  0.00    +0.023 A 
ATOM     15  C   UNL     1       5.003  -2.363  -8.624  0.00  0.00    +0.047 A 
ATOM     16  C   UNL     1       3.982  -1.657  -8.010  0.00  0.00    +0.126 A 
ATOM     17 CL   UNL     1       4.236  -1.845 -12.512  0.00  0.00    -0.084 Cl
BRANCH  16  18
ATOM     18  O   UNL     1       3.912  -1.600  -6.654  0.00  0.00    -0.506 OA
ATOM     19  H   UNL     1       4.669  -2.112  -6.043  0.00  0.00    +0.292 HD
ENDBRANCH  16  18
ENDBRANCH  10  11
ENDBRANCH   6   9
BRANCH   1  20
ATOM     20  S   UNL     1      -0.890   1.687  -1.462  0.00  0.00    -0.084 S 
BRANCH  20  21
ATOM     21  C   UNL     1      -0.013   1.086   0.008  0.00  0.00    +0.086 C 
BRANCH  21  22
ATOM     22  C   UNL     1      -0.729   1.579   1.267  0.00  0.00    +0.107 C 
BRANCH  22  33
ATOM     23  C   UNL     1       1.347   0.161   9.389  0.00  0.00    +0.002 A 
ATOM     24  C   UNL     1       2.433  -0.586   8.957  0.00  0.00    +0.001 A 
ATOM     25  C   UNL     1       2.654  -0.739   7.601  0.00  0.00    +0.017 A 
ATOM     26  C   UNL     1       1.798  -0.151   6.704  0.00  0.00    +0.041 A 
ATOM     27  C   UNL     1       0.681   0.617   7.107  0.00  0.00    +0.080 A 
ATOM     28  C   UNL     1       0.486   0.752   8.501  0.00  0.00    +0.029 A 
ATOM     29  N   UNL     1      -0.067   1.131   6.107  0.00  0.00    -0.225 NA
ATOM     30  C   UNL     1       0.217   0.934   4.840  0.00  0.00    +0.165 A 
ATOM     31  S   UNL     1       1.684  -0.083   4.932  0.00  0.00    -0.052 S 
ATOM     32  N   UNL     1      -0.453   1.393   3.718  0.00  0.00    -0.265 N 
ATOM     33  C   UNL     1       0.000   1.080   2.488  0.00  0.00    +0.219 C 
ATOM     34  O   UNL     1       0.994   0.397   2.363  0.00  0.00    -0.275 OA
ATOM     35  H   UNL     1      -1.355   2.012   3.831  0.00  0.00    +0.157 HD
ENDBRANCH  22  33
ENDBRANCH  21  22
ENDBRANCH  20  21
ENDBRANCH   1  20
TORSDOF 7
