REMARK  Name = ZINC04733652
REMARK  4 active torsions:
REMARK  status: ('A' for Active; 'I' for Inactive)
REMARK    1  A    between atoms: C_9  and  C_11
REMARK    2  A    between atoms: C_12  and  C_13
REMARK    3  A    between atoms: C_13  and  C_15
REMARK    4  A    between atoms: C_20  and  O_21
REMARK                            x       y       z     vdW  Elec       q    Type
REMARK                         _______ _______ _______ _____ _____    ______ ____
ROOT
ATOM      1  C   UNL     1       4.996  -2.551  -0.060  0.00  0.00    +0.031 C 
ATOM      2  C   UNL     1       6.120  -1.807  -0.067  0.00  0.00    +0.053 C 
ENDROOT
BRANCH   1  11
ATOM      3  C   UNL     1      -0.016   1.358   0.009  0.00  0.00    +0.001 A 
ATOM      4  C   UNL     1       1.170   2.090   0.002  0.00  0.00    +0.002 A 
ATOM      5  C   UNL     1       2.379   1.467  -0.013  0.00  0.00    +0.028 A 
ATOM      6  C   UNL     1       2.440   0.061  -0.021  0.00  0.00    +0.072 A 
ATOM      7  C   UNL     1       1.231  -0.682  -0.013  0.00  0.00    +0.000 A 
ATOM      8  C   UNL     1       0.002  -0.004   0.002  0.00  0.00    +0.010 A 
ATOM      9  C   UNL     1       1.289  -2.089  -0.021  0.00  0.00    +0.012 A 
ATOM     10  C   UNL     1       2.515  -2.686  -0.037  0.00  0.00    +0.028 A 
ATOM     11  C   UNL     1       3.677  -1.895  -0.044  0.00  0.00    +0.065 A 
ATOM     12  N   UNL     1       3.612  -0.574  -0.036  0.00  0.00    -0.247 NA
ENDBRANCH   1  11
BRANCH   2  13
ATOM     13  C   UNL     1       7.432  -2.460  -0.083  0.00  0.00    +0.190 C 
ATOM     14  O   UNL     1       7.507  -3.675  -0.090  0.00  0.00    -0.287 OA
BRANCH  13  15
ATOM     15  C   UNL     1       8.662  -1.645  -0.091  0.00  0.00    +0.064 A 
ATOM     16  C   UNL     1       8.581  -0.250  -0.078  0.00  0.00    +0.030 A 
ATOM     17  C   UNL     1       9.734   0.505  -0.085  0.00  0.00    +0.019 A 
ATOM     18  C   UNL     1      10.975  -0.113  -0.106  0.00  0.00    +0.019 A 
ATOM     19  C   UNL     1      11.069  -1.490  -0.120  0.00  0.00    +0.047 A 
ATOM     20  C   UNL     1       9.919  -2.266  -0.107  0.00  0.00    +0.128 A 
ATOM     21 BR   UNL     1       9.623   2.393  -0.068  0.00  0.00    -0.050 Br
BRANCH  20  22
ATOM     22  O   UNL     1      10.011  -3.620  -0.114  0.00  0.00    -0.506 OA
ATOM     23  H   UNL     1      10.029  -4.008  -1.000  0.00  0.00    +0.292 HD
ENDBRANCH  20  22
ENDBRANCH  13  15
ENDBRANCH   2  13
TORSDOF 4
