REMARK  Name = ZINC06927875
REMARK  5 active torsions:
REMARK  status: ('A' for Active; 'I' for Inactive)
REMARK    1  A    between atoms: C_4  and  C_7
REMARK    2  A    between atoms: C_12  and  O_13
REMARK    3  A    between atoms: O_13  and  C_14
REMARK    4  A    between atoms: C_14  and  C_15
REMARK    5  A    between atoms: N_17  and  N_18
REMARK                            x       y       z     vdW  Elec       q    Type
REMARK                         _______ _______ _______ _____ _____    ______ ____
ROOT
ATOM      1  C   UNL     1       2.154  -3.345   3.627  0.00  0.00    +0.270 C 
ATOM      2  O   UNL     1       1.149  -2.674   3.524  0.00  0.00    -0.270 OA
ATOM      3  N   UNL     1       2.230  -4.302   4.574  0.00  0.00    -0.203 N 
ATOM      4  H   UNL     1       3.034  -4.839   4.657  0.00  0.00    +0.177 HD
ENDROOT
BRANCH   3   5
ATOM      5  N   UNL     1       1.149  -4.520   5.438  0.00  0.00    -0.174 NA
ATOM      6  C   UNL     1       1.224  -5.451   6.359  0.00  0.00    +0.152 C 
ATOM      7  C   UNL     1       0.187  -5.825   7.349  0.00  0.00    +0.028 A 
ATOM      8  C   UNL     1      -1.095  -5.356   7.608  0.00  0.00    +0.012 A 
ATOM      9  C   UNL     1      -1.839  -5.920   8.625  0.00  0.00    +0.001 A 
ATOM     10  C   UNL     1      -1.307  -6.950   9.383  0.00  0.00    +0.002 A 
ATOM     11  C   UNL     1      -0.035  -7.423   9.133  0.00  0.00    +0.024 A 
ATOM     12  C   UNL     1       0.729  -6.867   8.113  0.00  0.00    +0.043 A 
ATOM     13  N   UNL     1       2.013  -7.150   7.660  0.00  0.00    -0.280 N 
ATOM     14  C   UNL     1       2.357  -6.359   6.630  0.00  0.00    +0.269 C 
ATOM     15  O   UNL     1       3.415  -6.383   6.030  0.00  0.00    -0.268 OA
ATOM     16  H   UNL     1       2.586  -7.836   8.038  0.00  0.00    +0.155 HD
ENDBRANCH   3   5
BRANCH   1  17
ATOM     17  C   UNL     1       3.316  -3.111   2.698  0.00  0.00    +0.326 C 
BRANCH  17  18
ATOM     18  O   UNL     1       2.995  -2.054   1.792  0.00  0.00    -0.482 OA
BRANCH  18  24
ATOM     19  C   UNL     1       3.698  -0.688  -0.038  0.00  0.00    +0.024 A 
ATOM     20  C   UNL     1       4.679  -0.343  -0.966  0.00  0.00    +0.012 A 
ATOM     21  C   UNL     1       5.883  -1.017  -0.978  0.00  0.00    +0.001 A 
ATOM     22  C   UNL     1       6.121  -2.036  -0.071  0.00  0.00    +0.004 A 
ATOM     23  C   UNL     1       5.155  -2.386   0.853  0.00  0.00    +0.046 A 
ATOM     24  C   UNL     1       3.943  -1.714   0.880  0.00  0.00    +0.129 A 
BRANCH  19  28
ATOM     25  C   UNL     1      -0.017   1.379   0.010  0.00  0.00    +0.000 A 
ATOM     26  C   UNL     1       1.169   2.092   0.002  0.00  0.00    +0.001 A 
ATOM     27  C   UNL     1       2.377   1.426  -0.013  0.00  0.00    +0.008 A 
ATOM     28  C   UNL     1       2.402   0.033  -0.021  0.00  0.00    -0.014 A 
ATOM     29  C   UNL     1       1.205  -0.680  -0.013  0.00  0.00    +0.008 A 
ATOM     30  C   UNL     1       0.002  -0.004   0.002  0.00  0.00    +0.001 A 
ENDBRANCH  19  28
ENDBRANCH  18  24
ENDBRANCH  17  18
ENDBRANCH   1  17
TORSDOF 5
