REMARK  Name = ZINC25151004
REMARK  5 active torsions:
REMARK  status: ('A' for Active; 'I' for Inactive)
REMARK    1  A    between atoms: C_4  and  N_7
REMARK    2  A    between atoms: N_14  and  O_15
REMARK    3  A    between atoms: O_15  and  C_16
REMARK    4  A    between atoms: C_16  and  C_17
REMARK    5  A    between atoms: C_20  and  C_22
REMARK                            x       y       z     vdW  Elec       q    Type
REMARK                         _______ _______ _______ _____ _____    ______ ____
ROOT
ATOM      1  N   UNL     1       9.509  11.092  -0.914  0.00  0.00    -0.269 N 
ATOM      2  C   UNL     1       8.469  11.634  -1.578  0.00  0.00    +0.306 C 
ATOM      3  O   UNL     1       8.594  12.710  -2.130  0.00  0.00    -0.252 OA
ATOM      4  N   UNL     1       7.289  10.984  -1.629  0.00  0.00    -0.285 N 
ATOM      5  C   UNL     1       6.119  11.616  -2.250  0.00  0.00    +0.115 C 
ATOM      6  C   UNL     1       4.986  11.681  -1.218  0.00  0.00    +0.073 C 
ATOM      7  C   UNL     1       4.830  10.313  -0.592  0.00  0.00    +0.061 C 
ATOM      8  N   UNL     1       3.691   9.731  -0.564  0.00  0.00    -0.094 NA
ATOM      9  C   UNL     1       6.053   9.652   0.006  0.00  0.00    +0.073 C 
ATOM     10  C   UNL     1       7.160   9.635  -1.063  0.00  0.00    +0.115 C 
ATOM     11  H   UNL     1       9.438  10.067  -0.522  0.00  0.00    +0.156 HD
ENDROOT
BRANCH   1  15
ATOM     12  C   UNL     1      12.995  13.301  -0.346  0.00  0.00    +0.000 A 
ATOM     13  C   UNL     1      13.066  11.929  -0.502  0.00  0.00    +0.002 A 
ATOM     14  C   UNL     1      11.912  11.194  -0.690  0.00  0.00    +0.023 A 
ATOM     15  C   UNL     1      10.680  11.834  -0.723  0.00  0.00    +0.035 A 
ATOM     16  C   UNL     1      10.613  13.213  -0.571  0.00  0.00    +0.023 A 
ATOM     17  C   UNL     1      11.770  13.942  -0.377  0.00  0.00    +0.002 A 
ENDBRANCH   1  15
BRANCH   8  18
ATOM     18  O   UNL     1       3.565   8.450   0.027  0.00  0.00    -0.387 OA
BRANCH  18  19
ATOM     19  C   UNL     1       2.238   7.921  -0.012  0.00  0.00    +0.321 C 
BRANCH  19  20
ATOM     20  C   UNL     1       2.220   6.562   0.640  0.00  0.00    +0.120 A 
ATOM     21  C   UNL     1       3.276   5.929   1.180  0.00  0.00    +0.224 A 
ATOM     22  O   UNL     1       2.837   4.745   1.654  0.00  0.00    -0.443 OA
ATOM     23  C   UNL     1       1.518   4.668   1.399  0.00  0.00    +0.234 A 
ATOM     24  N   UNL     1       1.148   5.767   0.780  0.00  0.00    -0.210 NA
BRANCH  23  25
ATOM     25  C   UNL     1       0.641   3.541   1.747  0.00  0.00    +0.074 A 
ATOM     26  C   UNL     1       0.956   2.357   2.388  0.00  0.00    +0.021 A 
ATOM     27  C   UNL     1      -0.049   1.442   2.605  0.00  0.00    +0.008 A 
ATOM     28  C   UNL     1      -1.310   1.728   2.186  0.00  0.00    +0.046 A 
ATOM     29  S   UNL     1      -1.109   3.344   1.453  0.00  0.00    -0.092 S 
ENDBRANCH  23  25
ENDBRANCH  19  20
ENDBRANCH  18  19
ENDBRANCH   8  18
TORSDOF 5
