REMARK  Name = ZINC27532440
REMARK  7 active torsions:
REMARK  status: ('A' for Active; 'I' for Inactive)
REMARK    1  A    between atoms: C_1  and  C_2
REMARK    2  A    between atoms: C_2  and  O_3
REMARK    3  A    between atoms: O_3  and  C_4
REMARK    4  A    between atoms: C_6  and  C_20
REMARK    5  A    between atoms: C_9  and  O_10
REMARK    6  A    between atoms: O_10  and  C_11
REMARK    7  A    between atoms: C_11  and  C_12
REMARK                            x       y       z     vdW  Elec       q    Type
REMARK                         _______ _______ _______ _____ _____    ______ ____
ROOT
ATOM      1  C   UNL     1      -0.809  -2.159  -0.554  0.00  0.00    +0.164 A 
ATOM      2  C   UNL     1      -0.961  -0.826  -0.236  0.00  0.00    +0.057 A 
ATOM      3  C   UNL     1       0.137   0.043  -0.326  0.00  0.00    -0.019 A 
ATOM      4  C   UNL     1       1.382  -0.449  -0.747  0.00  0.00    +0.027 A 
ATOM      5  C   UNL     1       1.524  -1.782  -1.057  0.00  0.00    +0.064 A 
ATOM      6  C   UNL     1       0.434  -2.642  -0.966  0.00  0.00    +0.176 A 
ATOM      7 BR   UNL     1       3.204  -2.446  -1.616  0.00  0.00    -0.046 Br
ENDROOT
BRANCH   3   8
ATOM      8  C   UNL     1      -0.018   1.458   0.010  0.00  0.00    +0.026 C 
ATOM      9  C   UNL     1       0.920   2.085   0.808  0.00  0.00    +0.101 C 
ATOM     10  C   UNL     1       1.961   1.319   1.521  0.00  0.00    +0.276 C 
ATOM     11  O   UNL     1       2.022   0.108   1.425  0.00  0.00    -0.268 OA
ATOM     12  N   UNL     1       2.847   1.999   2.278  0.00  0.00    -0.123 NA
ATOM     13  C   UNL     1       2.787   3.333   2.398  0.00  0.00    +0.333 C 
ATOM     14  O   UNL     1       3.612   3.884   3.101  0.00  0.00    -0.250 OA
ATOM     15  N   UNL     1       1.868   4.091   1.786  0.00  0.00    -0.234 N 
ATOM     16  C   UNL     1       0.921   3.550   0.991  0.00  0.00    +0.257 C 
ATOM     17  O   UNL     1       0.093   4.249   0.441  0.00  0.00    -0.270 OA
ATOM     18  H   UNL     1       1.873   5.183   1.926  0.00  0.00    +0.159 HD
ENDBRANCH   3   8
BRANCH   1  19
ATOM     19  O   UNL     1      -1.871  -3.004  -0.468  0.00  0.00    -0.489 OA
BRANCH  19  21
ATOM     20  C   UNL     1      -4.182  -3.537  -0.005  0.00  0.00    +0.048 C 
ATOM     21  C   UNL     1      -3.113  -2.443  -0.040  0.00  0.00    +0.226 C 
ENDBRANCH  19  21
ENDBRANCH   1  19
BRANCH   6  22
ATOM     22  O   UNL     1       0.581  -3.954  -1.279  0.00  0.00    -0.483 OA
BRANCH  22  23
ATOM     23  C   UNL     1       0.348  -4.327  -2.639  0.00  0.00    +0.264 C 
BRANCH  23  24
ATOM     24  C   UNL     1       0.556  -5.811  -2.795  0.00  0.00    -0.010 A 
ATOM     25  C   UNL     1       1.806  -6.303  -3.121  0.00  0.00    +0.008 A 
ATOM     26  C   UNL     1       1.998  -7.665  -3.260  0.00  0.00    +0.020 A 
ATOM     27  C   UNL     1       0.937  -8.535  -3.083  0.00  0.00    +0.041 A 
ATOM     28  C   UNL     1      -0.315  -8.041  -2.762  0.00  0.00    +0.020 A 
ATOM     29  C   UNL     1      -0.505  -6.680  -2.619  0.00  0.00    +0.008 A 
ATOM     30 CL   UNL     1       1.176 -10.245  -3.263  0.00  0.00    -0.084 Cl
ENDBRANCH  23  24
ENDBRANCH  22  23
ENDBRANCH   6  22
TORSDOF 6
