REMARK  Name = ZINC22278760
REMARK  4 active torsions:
REMARK  status: ('A' for Active; 'I' for Inactive)
REMARK    1  A    between atoms: C_7  and  C_11
REMARK    2  A    between atoms: C_11  and  C_12
REMARK    3  A    between atoms: N_14  and  N_15
REMARK    4  A    between atoms: C_16  and  C_18
REMARK                            x       y       z     vdW  Elec       q    Type
REMARK                         _______ _______ _______ _____ _____    ______ ____
ROOT
ATOM      1  N   UNL     1       3.582   2.393  -0.021  0.00  0.00    -0.230 N 
ATOM      2  C   UNL     1       2.488   1.604  -0.014  0.00  0.00    +0.261 C 
ATOM      3  O   UNL     1       2.611   0.395  -0.023  0.00  0.00    -0.269 OA
ATOM      4  H   UNL     1       3.471   3.487  -0.013  0.00  0.00    +0.173 HD
ENDROOT
BRANCH   2   5
ATOM      5  C   UNL     1       1.144   2.209   0.003  0.00  0.00    +0.046 A 
ATOM      6  C   UNL     1       0.984   3.591   0.013  0.00  0.00    +0.014 A 
ATOM      7  C   UNL     1      -0.273   4.187   0.029  0.00  0.00    +0.005 A 
ATOM      8  C   UNL     1      -1.404   3.424   0.035  0.00  0.00    -0.039 A 
ATOM      9  C   UNL     1      -1.266   2.039   0.031  0.00  0.00    -0.011 A 
ATOM     10  C   UNL     1      -0.017   1.396   0.010  0.00  0.00    -0.005 A 
ATOM     11  C   UNL     1       0.002  -0.004   0.002  0.00  0.00    +0.009 A 
ATOM     12  C   UNL     1      -1.185  -0.680   0.010  0.00  0.00    +0.001 A 
ATOM     13  C   UNL     1      -2.417  -0.022   0.026  0.00  0.00    +0.004 A 
ATOM     14  C   UNL     1      -2.469   1.339   0.034  0.00  0.00    -0.039 A 
ATOM     15  C   UNL     1      -3.584   2.356   0.051  0.00  0.00    +0.040 C 
ATOM     16  C   UNL     1      -2.882   3.731   0.051  0.00  0.00    +0.040 C 
ENDBRANCH   2   5
BRANCH   1  19
ATOM     17  C   UNL     1       5.953   2.606  -0.043  0.00  0.00    +0.233 C 
ATOM     18  O   UNL     1       5.830   3.813  -0.035  0.00  0.00    -0.274 OA
ATOM     19  N   UNL     1       4.859   1.818  -0.037  0.00  0.00    -0.234 N 
ATOM     20  H   UNL     1       4.970   0.724  -0.045  0.00  0.00    +0.173 HD
BRANCH  17  21
ATOM     21  C   UNL     1       7.327   1.988  -0.061  0.00  0.00    +0.134 C 
BRANCH  21  28
ATOM     22  C   UNL     1       9.361   4.492   3.340  0.00  0.00    +0.001 A 
ATOM     23  C   UNL     1      10.286   5.408   2.858  0.00  0.00    +0.002 A 
ATOM     24  C   UNL     1      10.530   5.515   1.506  0.00  0.00    +0.026 A 
ATOM     25  C   UNL     1       9.844   4.698   0.614  0.00  0.00    +0.047 A 
ATOM     26  C   UNL     1       8.907   3.772   1.107  0.00  0.00    +0.003 A 
ATOM     27  C   UNL     1       8.675   3.680   2.481  0.00  0.00    +0.010 A 
ATOM     28  C   UNL     1       8.368   3.078  -0.065  0.00  0.00    -0.014 A 
ATOM     29  C   UNL     1       8.981   3.593  -1.142  0.00  0.00    +0.087 A 
ATOM     30  N   UNL     1       9.862   4.566  -0.757  0.00  0.00    -0.360 N 
ATOM     31  H   UNL     1      10.527   5.201  -1.362  0.00  0.00    +0.165 HD
ENDBRANCH  21  28
ENDBRANCH  17  21
ENDBRANCH   1  19
TORSDOF 4
