REMARK  Name = ZINC60351279
REMARK  6 active torsions:
REMARK  status: ('A' for Active; 'I' for Inactive)
REMARK    1  A    between atoms: C_1  and  N_2
REMARK    2  A    between atoms: C_6  and  S_7
REMARK    3  A    between atoms: S_7  and  C_8
REMARK    4  A    between atoms: C_13  and  N_14
REMARK    5  A    between atoms: C_15  and  C_17
REMARK    6  A    between atoms: C_22  and  N_23
REMARK                            x       y       z     vdW  Elec       q    Type
REMARK                         _______ _______ _______ _____ _____    ______ ____
ROOT
ATOM      1  C   UNL     1       0.064  -1.756   3.753  0.00  0.00    +0.037 A 
ATOM      2  C   UNL     1       0.188  -3.052   3.224  0.00  0.00    +0.018 A 
ATOM      3  C   UNL     1       0.268  -4.124   4.059  0.00  0.00    +0.021 A 
ATOM      4  C   UNL     1       0.229  -3.951   5.444  0.00  0.00    +0.043 A 
ATOM      5  C   UNL     1       0.108  -2.687   5.990  0.00  0.00    +0.044 A 
ATOM      6  C   UNL     1       0.030  -1.577   5.159  0.00  0.00    +0.049 A 
ATOM      7 CL   UNL     1       0.333  -5.333   6.488  0.00  0.00    -0.083 Cl
ENDROOT
BRANCH   6   8
ATOM      8  N   UNL     1      -0.086  -0.308   5.698  0.00  0.00    -0.280 N 
ATOM      9  C   UNL     1      -0.607  -0.144   6.930  0.00  0.00    +0.251 C 
ATOM     10  O   UNL     1      -1.062  -1.099   7.529  0.00  0.00    -0.270 OA
ATOM     11  H   UNL     1       0.209   0.464   5.190  0.00  0.00    +0.155 HD
BRANCH   9  12
ATOM     12  C   UNL     1      -0.626   1.196   7.552  0.00  0.00    +0.069 A 
ATOM     13  C   UNL     1       0.564   1.904   7.729  0.00  0.00    +0.035 A 
ATOM     14  C   UNL     1       0.539   3.156   8.311  0.00  0.00    +0.042 A 
ATOM     15  C   UNL     1      -0.664   3.709   8.718  0.00  0.00    +0.022 A 
ATOM     16  C   UNL     1      -1.846   3.012   8.545  0.00  0.00    +0.035 A 
ATOM     17  C   UNL     1      -1.835   1.762   7.960  0.00  0.00    +0.138 A 
ATOM     18 CL   UNL     1       2.017   4.038   8.532  0.00  0.00    -0.084 Cl
BRANCH  17  19
ATOM     19  N   UNL     1      -3.103   1.021   7.771  0.00  0.00    +0.057 N 
ATOM     20  O   UNL     1      -4.249   1.583   8.094  0.00  0.00    -0.126 OA
ATOM     21  O   UNL     1      -3.084  -0.201   7.280  0.00  0.00    -0.126 OA
ENDBRANCH  17  19
ENDBRANCH   9  12
ENDBRANCH   6   8
BRANCH   1  22
ATOM     22  S   UNL     1      -0.035  -0.445   2.740  0.00  0.00    -0.050 S 
BRANCH  22  28
ATOM     23  C   UNL     1      -1.487   2.083   1.381  0.00  0.00    +0.151 C 
ATOM     24  N   UNL     1      -2.195   1.083   2.183  0.00  0.00    -0.328 N 
ATOM     25  C   UNL     1      -3.512   1.067   2.459  0.00  0.00    +0.107 A 
ATOM     26  C   UNL     1      -3.749  -0.070   3.256  0.00  0.00    +0.131 A 
ATOM     27  N   UNL     1      -2.604  -0.687   3.433  0.00  0.00    -0.230 NA
ATOM     28  C   UNL     1      -1.638  -0.018   2.791  0.00  0.00    +0.173 A 
ENDBRANCH  22  28
ENDBRANCH   1  22
TORSDOF 5
