REMARK  Name = ZINC16464044
REMARK  8 active torsions:
REMARK  status: ('A' for Active; 'I' for Inactive)
REMARK    1  A    between atoms: C_1  and  C_2
REMARK    2  A    between atoms: C_2  and  S_3
REMARK    3  A    between atoms: S_3  and  N_6
REMARK    4  A    between atoms: C_13  and  C_15
REMARK    5  A    between atoms: C_15  and  C_17
REMARK    6  A    between atoms: C_17  and  N_18
REMARK    7  A    between atoms: C_21  and  C_25
REMARK    8  A    between atoms: C_21  and  C_26
REMARK                            x       y       z     vdW  Elec       q    Type
REMARK                         _______ _______ _______ _____ _____    ______ ____
ROOT
ATOM      1  C   UNL     1       3.421   6.395   2.841  0.00  0.00    +0.197 C 
ENDROOT
BRANCH   1   2
ATOM      2  N   UNL     1       3.210   5.375   1.811  0.00  0.00    -0.216 N 
ATOM      3  C   UNL     1       2.314   5.484   0.810  0.00  0.00    +0.251 C 
ATOM      4  O   UNL     1       1.560   6.409   0.600  0.00  0.00    -0.272 OA
ATOM      5  C   UNL     1       2.448   4.209   0.001  0.00  0.00    +0.135 C 
ATOM      6  N   UNL     1       3.502   3.460   0.706  0.00  0.00    -0.281 N 
ATOM      7  C   UNL     1       3.884   4.221   1.747  0.00  0.00    +0.310 C 
ATOM      8  O   UNL     1       4.745   3.896   2.542  0.00  0.00    -0.252 OA
ATOM      9  C   UNL     1       2.877   4.521  -1.434  0.00  0.00    +0.047 C 
ATOM     10  H   UNL     1       3.852   2.587   0.466  0.00  0.00    +0.152 HD
BRANCH   5  11
ATOM     11  C   UNL     1       1.153   3.438   0.010  0.00  0.00    -0.013 A 
ATOM     12  C   UNL     1      -0.053   4.113   0.025  0.00  0.00    +0.009 A 
ATOM     13  C   UNL     1      -1.242   3.408   0.032  0.00  0.00    +0.041 A 
ATOM     14  C   UNL     1      -1.226   2.024   0.019  0.00  0.00    +0.158 A 
ATOM     15  C   UNL     1      -0.016   1.347   0.009  0.00  0.00    +0.159 A 
ATOM     16  C   UNL     1       1.172   2.056   0.002  0.00  0.00    +0.047 A 
ATOM     17  F   UNL     1       0.002  -0.004   0.002  0.00  0.00    -0.202 F 
ATOM     18  F   UNL     1      -2.387   1.335   0.021  0.00  0.00    -0.202 F 
ENDBRANCH   5  11
ENDBRANCH   1   2
BRANCH   1  19
ATOM     19  C   UNL     1       4.479   7.364   2.380  0.00  0.00    +0.181 C 
ATOM     20  O   UNL     1       5.005   7.217   1.296  0.00  0.00    -0.290 OA
BRANCH  19  28
ATOM     21  N   UNL     1       6.126  11.722   5.523  0.00  0.00    -0.207 N 
ATOM     22  C   UNL     1       7.146  12.377   4.701  0.00  0.00    +0.136 C 
ATOM     23  C   UNL     1       7.231  11.536   3.417  0.00  0.00    +0.058 C 
ATOM     24  C   UNL     1       6.217  10.432   3.622  0.00  0.00    -0.023 A 
ATOM     25  C   UNL     1       5.619  10.609   4.865  0.00  0.00    +0.054 A 
ATOM     26  C   UNL     1       4.636   9.704   5.288  0.00  0.00    +0.026 A 
ATOM     27  C   UNL     1       4.264   8.664   4.490  0.00  0.00    +0.013 A 
ATOM     28  C   UNL     1       4.872   8.486   3.240  0.00  0.00    +0.019 A 
ATOM     29  C   UNL     1       5.855   9.390   2.817  0.00  0.00    +0.017 A 
BRANCH  21  30
ATOM     30  S   UNL     1       5.646  12.235   7.023  0.00  0.00    +0.045 S 
ATOM     31  O   UNL     1       5.168  11.063   7.671  0.00  0.00    -0.155 OA
ATOM     32  O   UNL     1       6.764  12.943   7.539  0.00  0.00    -0.155 OA
BRANCH  30  34
ATOM     33  C   UNL     1       3.745  13.920   8.037  0.00  0.00    +0.030 C 
ATOM     34  C   UNL     1       4.273  13.378   6.707  0.00  0.00    +0.185 C 
ENDBRANCH  30  34
ENDBRANCH  21  30
ENDBRANCH  19  28
ENDBRANCH   1  19
TORSDOF 6
