REMARK  Name = ZINC06591568
REMARK  5 active torsions:
REMARK  status: ('A' for Active; 'I' for Inactive)
REMARK    1  A    between atoms: C_5  and  C_7
REMARK    2  A    between atoms: C_7  and  N_8
REMARK    3  A    between atoms: N_8  and  C_9
REMARK    4  A    between atoms: C_9  and  C_10
REMARK    5  A    between atoms: N_17  and  C_18
REMARK                            x       y       z     vdW  Elec       q    Type
REMARK                         _______ _______ _______ _____ _____    ______ ____
ROOT
ATOM      1  N   UNL     1       1.606  -2.677   1.306  0.00  0.00    -0.274 N 
ATOM      2  C   UNL     1       2.907  -2.790   1.638  0.00  0.00    +0.303 C 
ATOM      3  O   UNL     1       3.766  -2.400   0.871  0.00  0.00    -0.253 OA
ATOM      4  N   UNL     1       3.257  -3.336   2.820  0.00  0.00    -0.296 N 
ATOM      5  H   UNL     1       2.571  -3.647   3.431  0.00  0.00    +0.151 HD
ENDROOT
BRANCH   4   6
ATOM      6  C   UNL     1       4.671  -3.459   3.180  0.00  0.00    +0.074 C 
ATOM      7  C   UNL     1       5.153  -2.150   3.809  0.00  0.00    +0.022 C 
ATOM      8  C   UNL     1       6.630  -2.278   4.185  0.00  0.00    +0.002 C 
ATOM      9  C   UNL     1       6.803  -3.420   5.189  0.00  0.00    +0.000 C 
ATOM     10  C   UNL     1       6.322  -4.729   4.561  0.00  0.00    +0.002 C 
ATOM     11  C   UNL     1       4.844  -4.600   4.184  0.00  0.00    +0.022 C 
ENDBRANCH   4   6
BRANCH   1  12
ATOM     12  C   UNL     1       1.228  -2.165  -0.014  0.00  0.00    +0.146 C 
BRANCH  12  17
ATOM     13  C   UNL     1      -0.714   1.046   0.398  0.00  0.00    +0.000 A 
ATOM     14  C   UNL     1       0.288   1.992   0.287  0.00  0.00    +0.001 A 
ATOM     15  C   UNL     1       1.595   1.594   0.079  0.00  0.00    +0.020 A 
ATOM     16  C   UNL     1       1.900   0.247  -0.019  0.00  0.00    +0.046 A 
ATOM     17  C   UNL     1       0.897  -0.699   0.093  0.00  0.00    -0.012 A 
ATOM     18  C   UNL     1      -0.410  -0.299   0.301  0.00  0.00    +0.006 A 
ATOM     19 CL   UNL     1       3.541  -0.254  -0.282  0.00  0.00    -0.083 Cl
ENDBRANCH  12  17
ENDBRANCH   1  12
BRANCH   1  20
ATOM     20  C   UNL     1       0.569  -3.066   2.265  0.00  0.00    +0.183 C 
BRANCH  20  21
ATOM     21  C   UNL     1       0.231  -4.522   2.075  0.00  0.00    +0.122 A 
ATOM     22  C   UNL     1       0.821  -5.556   2.703  0.00  0.00    +0.046 A 
ATOM     23  C   UNL     1       0.198  -6.733   2.229  0.00  0.00    +0.041 A 
ATOM     24  C   UNL     1      -0.736  -6.349   1.340  0.00  0.00    +0.195 A 
ATOM     25  O   UNL     1      -0.715  -5.009   1.255  0.00  0.00    -0.466 OA
ENDBRANCH  20  21
ENDBRANCH   1  20
TORSDOF 5
