REMARK  Name = ZINC08757808
REMARK  8 active torsions:
REMARK  status: ('A' for Active; 'I' for Inactive)
REMARK    1  A    between atoms: C_3  and  S_21
REMARK    2  A    between atoms: C_6  and  C_7
REMARK    3  A    between atoms: C_7  and  N_8
REMARK    4  A    between atoms: C_9  and  C_11
REMARK    5  A    between atoms: C_11  and  O_12
REMARK    6  A    between atoms: O_12  and  C_13
REMARK    7  A    between atoms: C_13  and  C_15
REMARK    8  A    between atoms: S_21  and  N_24
REMARK                            x       y       z     vdW  Elec       q    Type
REMARK                         _______ _______ _______ _____ _____    ______ ____
ROOT
ATOM      1  N   UNL     1       8.358   1.131  -0.072  0.00  0.00    -0.308 N 
ATOM      2  C   UNL     1       7.027   1.340  -0.058  0.00  0.00    +0.251 C 
ATOM      3  O   UNL     1       6.591   2.472  -0.048  0.00  0.00    -0.272 OA
ATOM      4  H   UNL     1       8.707   0.226  -0.080  0.00  0.00    +0.149 HD
ENDROOT
BRANCH   1   5
ATOM      5  C   UNL     1       9.279   2.271  -0.074  0.00  0.00    +0.139 C 
BRANCH   5  11
ATOM      6  C   UNL     1      11.365   1.538   1.099  0.00  0.00    +0.007 A 
ATOM      7  C   UNL     1      12.666   1.073   1.084  0.00  0.00    +0.029 A 
ATOM      8  C   UNL     1      13.306   0.849  -0.120  0.00  0.00    +0.105 A 
ATOM      9  C   UNL     1      12.643   1.085  -1.310  0.00  0.00    +0.029 A 
ATOM     10  C   UNL     1      11.340   1.546  -1.295  0.00  0.00    +0.007 A 
ATOM     11  C   UNL     1      10.700   1.769  -0.091  0.00  0.00    -0.030 A 
BRANCH   8  12
ATOM     12  S   UNL     1      14.967   0.261  -0.140  0.00  0.00    +0.056 S 
ATOM     13  O   UNL     1      15.179  -0.400   1.101  0.00  0.00    -0.153 OA
ATOM     14  O   UNL     1      15.154  -0.388  -1.390  0.00  0.00    -0.153 OA
BRANCH  12  15
ATOM     15  N   UNL     1      15.957   1.589  -0.143  0.00  0.00    -0.204 NA
ATOM     16  H   UNL     1      16.834   1.541   0.268  0.00  0.00    +0.144 HD
ATOM     17  H   UNL     1      15.659   2.414  -0.556  0.00  0.00    +0.144 HD
ENDBRANCH  12  15
ENDBRANCH   8  12
ENDBRANCH   5  11
ENDBRANCH   1   5
BRANCH   2  18
ATOM     18  C   UNL     1       6.080   0.168  -0.055  0.00  0.00    +0.328 C 
BRANCH  18  19
ATOM     19  O   UNL     1       4.733   0.644  -0.040  0.00  0.00    -0.451 OA
BRANCH  19  20
ATOM     20  C   UNL     1       3.755  -0.286  -0.035  0.00  0.00    +0.346 C 
ATOM     21  O   UNL     1       4.040  -1.468  -0.044  0.00  0.00    -0.244 OA
BRANCH  20  22
ATOM     22  C   UNL     1       2.352   0.129  -0.020  0.00  0.00    +0.097 A 
ATOM     23  C   UNL     1       1.208  -0.657  -0.013  0.00  0.00    +0.024 A 
ATOM     24  C   UNL     1       0.002  -0.004   0.002  0.00  0.00    +0.024 A 
ATOM     25  C   UNL     1      -0.016   1.357   0.009  0.00  0.00    +0.056 A 
ATOM     26  S   UNL     1       1.666   1.775  -0.004  0.00  0.00    -0.075 S 
ATOM     27 BR   UNL     1      -1.514   2.511   0.023  0.00  0.00    -0.043 Br
ENDBRANCH  20  22
ENDBRANCH  19  20
ENDBRANCH  18  19
ENDBRANCH   2  18
TORSDOF 8
