REMARK  Name = ZINC09590419
REMARK  16 active torsions:
REMARK  status: ('A' for Active; 'I' for Inactive)
REMARK    1  A    between atoms: C_1  and  C_2
REMARK    2  A    between atoms: C_2  and  O_3
REMARK    3  A    between atoms: O_3  and  C_4
REMARK    4  A    between atoms: C_4  and  C_6
REMARK    5  A    between atoms: C_6  and  C_7
REMARK    6  A    between atoms: C_7  and  N_8
REMARK    7  A    between atoms: C_10  and  O_34
REMARK    8  A    between atoms: C_13  and  O_32
REMARK    9  A    between atoms: N_17  and  C_18
REMARK   10  A    between atoms: C_18  and  C_20
REMARK   11  A    between atoms: C_23  and  S_26
REMARK   12  A    between atoms: S_26  and  N_29
REMARK   13  A    between atoms: N_29  and  C_30
REMARK   14  A    between atoms: N_29  and  C_31
REMARK   15  A    between atoms: O_32  and  C_33
REMARK   16  A    between atoms: O_34  and  C_35
REMARK                            x       y       z     vdW  Elec       q    Type
REMARK                         _______ _______ _______ _____ _____    ______ ____
ROOT
ATOM      1  N   UNL     1       2.209   0.781  -0.030  0.00  0.00    -0.318 N 
ATOM      2  C   UNL     1       1.375  -0.323  -0.050  0.00  0.00    +0.103 A 
ATOM      3  C   UNL     1       1.731  -1.686  -0.072  0.00  0.00    +0.145 A 
ATOM      4  C   UNL     1       0.764  -2.667  -0.092  0.00  0.00    +0.051 A 
ATOM      5  C   UNL     1      -0.584  -2.346  -0.089  0.00  0.00    +0.050 A 
ATOM      6  C   UNL     1      -0.962  -1.012  -0.067  0.00  0.00    +0.136 A 
ATOM      7  C   UNL     1       0.006  -0.030  -0.048  0.00  0.00    +0.084 A 
ATOM      8  S   UNL     1      -0.030   1.745  -0.018  0.00  0.00    -0.048 S 
ATOM      9  C   UNL     1       1.679   2.034  -0.009  0.00  0.00    +0.167 A 
ATOM     10  N   UNL     1       2.319   3.199   0.011  0.00  0.00    -0.152 NA
ENDROOT
BRANCH  10  11
ATOM     11  C   UNL     1       1.625   4.341   0.029  0.00  0.00    +0.269 C 
ATOM     12  O   UNL     1       0.407   4.315   0.026  0.00  0.00    -0.268 OA
BRANCH  11  13
ATOM     13  C   UNL     1       2.338   5.640   0.051  0.00  0.00    +0.039 A 
ATOM     14  C   UNL     1       3.732   5.673   0.060  0.00  0.00    +0.015 A 
ATOM     15  C   UNL     1       4.390   6.886   0.077  0.00  0.00    +0.029 A 
ATOM     16  C   UNL     1       3.670   8.067   0.095  0.00  0.00    +0.105 A 
ATOM     17  C   UNL     1       2.286   8.040   0.091  0.00  0.00    +0.029 A 
ATOM     18  C   UNL     1       1.617   6.834   0.070  0.00  0.00    +0.015 A 
BRANCH  16  19
ATOM     19  S   UNL     1       4.517   9.612   0.123  0.00  0.00    +0.060 S 
ATOM     20  O   UNL     1       5.806   9.378  -0.428  0.00  0.00    -0.153 OA
ATOM     21  O   UNL     1       3.622  10.576  -0.413  0.00  0.00    -0.153 OA
BRANCH  19  22
ATOM     22  N   UNL     1       4.749  10.014   1.713  0.00  0.00    -0.183 NA
ATOM     23  C   UNL     1       5.964   9.582   2.408  0.00  0.00    +0.131 C 
ATOM     24  C   UNL     1       3.739  10.802   2.424  0.00  0.00    +0.131 C 
ENDBRANCH  19  22
ENDBRANCH  16  19
ENDBRANCH  11  13
ENDBRANCH  10  11
BRANCH   6  25
ATOM     25  O   UNL     1      -2.280  -0.674  -0.064  0.00  0.00    -0.494 OA
ATOM     26  C   UNL     1      -3.225  -1.747  -0.085  0.00  0.00    +0.277 C 
ENDBRANCH   6  25
BRANCH   3  27
ATOM     27  O   UNL     1       3.046  -2.038  -0.076  0.00  0.00    -0.493 OA
ATOM     28  C   UNL     1       3.344  -3.435  -0.100  0.00  0.00    +0.277 C 
ENDBRANCH   3  27
BRANCH   1  29
ATOM     29  C   UNL     1       3.663   0.601  -0.030  0.00  0.00    +0.135 C 
BRANCH  29  30
ATOM     30  C   UNL     1       4.314   1.711  -0.857  0.00  0.00    +0.142 C 
BRANCH  30  31
ATOM     31  C   UNL     1       5.793   1.447  -0.975  0.00  0.00    +0.309 C 
ATOM     32  O   UNL     1       6.277   0.472  -0.451  0.00  0.00    -0.251 OA
BRANCH  31  33
ATOM     33  O   UNL     1       6.574   2.296  -1.663  0.00  0.00    -0.465 OA
BRANCH  33  35
ATOM     34  C   UNL     1       8.710   3.052  -2.553  0.00  0.00    +0.048 C 
ATOM     35  C   UNL     1       7.989   1.979  -1.735  0.00  0.00    +0.229 C 
ENDBRANCH  33  35
ENDBRANCH  31  33
ENDBRANCH  30  31
ENDBRANCH  29  30
ENDBRANCH   1  29
TORSDOF 11
