REMARK  Name = ZINC60582922
REMARK  8 active torsions:
REMARK  status: ('A' for Active; 'I' for Inactive)
REMARK    1  A    between atoms: C_3  and  O_9
REMARK    2  A    between atoms: O_9  and  C_10
REMARK    3  A    between atoms: C_10  and  C_11
REMARK    4  A    between atoms: C_11  and  S_12
REMARK    5  A    between atoms: S_12  and  C_13
REMARK    6  A    between atoms: C_14  and  C_22
REMARK    7  A    between atoms: C_16  and  C_20
REMARK    8  A    between atoms: C_17  and  N_19
REMARK                            x       y       z     vdW  Elec       q    Type
REMARK                         _______ _______ _______ _____ _____    ______ ____
ROOT
ATOM      1  C   UNL     1       6.419   6.484  -0.027  0.00  0.00    +0.117 A 
ATOM      2  C   UNL     1       6.708   7.864  -0.017  0.00  0.00    +0.085 A 
ATOM      3  C   UNL     1       8.042   8.278  -0.028  0.00  0.00    +0.043 A 
ATOM      4  C   UNL     1       9.040   7.301  -0.048  0.00  0.00    +0.092 A 
ATOM      5  C   UNL     1       8.668   5.942  -0.057  0.00  0.00    +0.135 A 
ATOM      6  N   UNL     1       7.394   5.587  -0.041  0.00  0.00    -0.224 NA
ENDROOT
BRANCH   5   7
ATOM      7  N   UNL     1       9.646   4.968  -0.078  0.00  0.00    -0.342 N 
ATOM      8  H   UNL     1      10.583   5.221  -0.086  0.00  0.00    +0.144 HD
ATOM      9  H   UNL     1       9.397   4.030  -0.084  0.00  0.00    +0.144 HD
ENDBRANCH   5   7
BRANCH   4  10
ATOM     10  C   UNL     1      10.422   7.675  -0.061  0.00  0.00    +0.103 C 
ATOM     11  N   UNL     1      11.519   7.972  -0.070  0.00  0.00    -0.191 NA
ENDBRANCH   4  10
BRANCH   2  12
ATOM     12  C   UNL     1       5.649   8.827   0.004  0.00  0.00    +0.102 C 
ATOM     13  N   UNL     1       4.809   9.591   0.020  0.00  0.00    -0.191 NA
ENDBRANCH   2  12
BRANCH   1  14
ATOM     14  S   UNL     1       4.741   5.947  -0.013  0.00  0.00    -0.101 S 
BRANCH  14  15
ATOM     15  C   UNL     1       4.860   4.136  -0.024  0.00  0.00    +0.117 C 
BRANCH  15  16
ATOM     16  C   UNL     1       3.454   3.533  -0.013  0.00  0.00    +0.240 C 
BRANCH  16  17
ATOM     17  O   UNL     1       3.548   2.107  -0.021  0.00  0.00    -0.490 OA
BRANCH  17  20
ATOM     18  C   UNL     1      -0.017   1.379   0.010  0.00  0.00    +0.023 A 
ATOM     19  C   UNL     1       1.170   2.088   0.002  0.00  0.00    +0.048 A 
ATOM     20  C   UNL     1       2.380   1.411  -0.013  0.00  0.00    +0.139 A 
ATOM     21  C   UNL     1       2.398   0.023  -0.021  0.00  0.00    +0.084 A 
ATOM     22  C   UNL     1       1.209  -0.682  -0.013  0.00  0.00    +0.043 A 
ATOM     23  C   UNL     1       0.002  -0.004   0.002  0.00  0.00    +0.043 A 
ATOM     24 CL   UNL     1      -1.490  -0.891   0.012  0.00  0.00    -0.083 Cl
ATOM     25 CL   UNL     1       3.911  -0.827  -0.040  0.00  0.00    -0.080 Cl
ENDBRANCH  17  20
ENDBRANCH  16  17
ENDBRANCH  15  16
ENDBRANCH  14  15
ENDBRANCH   1  14
TORSDOF 8
