REMARK  Name = ZINC35664082
REMARK  8 active torsions:
REMARK  status: ('A' for Active; 'I' for Inactive)
REMARK    1  A    between atoms: C_2  and  C_3
REMARK    2  A    between atoms: C_3  and  N_4
REMARK    3  A    between atoms: N_4  and  C_5
REMARK    4  A    between atoms: C_5  and  C_6
REMARK    5  A    between atoms: N_8  and  C_9
REMARK    6  A    between atoms: C_12  and  N_15
REMARK    7  A    between atoms: N_23  and  C_24
REMARK    8  A    between atoms: C_30  and  C_32
REMARK                            x       y       z     vdW  Elec       q    Type
REMARK                         _______ _______ _______ _____ _____    ______ ____
ROOT
ATOM      1  C   UNL     1      -2.721  -6.122   0.005  0.00  0.00    +0.034 A 
ATOM      2  C   UNL     1      -4.000  -5.590   0.101  0.00  0.00    +0.025 A 
ATOM      3  C   UNL     1      -5.065  -6.406   0.426  0.00  0.00    +0.025 A 
ATOM      4  C   UNL     1      -4.857  -7.759   0.658  0.00  0.00    +0.030 A 
ATOM      5  C   UNL     1      -3.578  -8.291   0.562  0.00  0.00    +0.025 A 
ATOM      6  C   UNL     1      -2.514  -7.476   0.232  0.00  0.00    +0.025 A 
ENDROOT
BRANCH   4   7
ATOM      7  N   UNL     1      -5.936  -8.586   0.988  0.00  0.00    -0.327 N 
ATOM      8  C   UNL     1      -5.716  -9.991   1.360  0.00  0.00    +0.124 C 
ATOM      9  C   UNL     1      -6.353 -10.240   2.733  0.00  0.00    +0.128 C 
ATOM     10  N   UNL     1      -7.728  -9.719   2.713  0.00  0.00    -0.283 N 
ATOM     11  C   UNL     1      -7.948  -8.315   2.341  0.00  0.00    +0.128 C 
ATOM     12  C   UNL     1      -7.310  -8.064   0.974  0.00  0.00    +0.124 C 
ATOM     13  C   UNL     1      -8.767 -10.516   3.031  0.00  0.00    +0.303 C 
ATOM     14  O   UNL     1      -8.584 -11.699   3.243  0.00  0.00    -0.253 OA
ATOM     15  N   UNL     1     -10.010 -10.001   3.115  0.00  0.00    -0.296 N 
ATOM     16  H   UNL     1     -10.168  -9.075   2.876  0.00  0.00    +0.151 HD
BRANCH  15  17
ATOM     17  C   UNL     1     -11.122 -10.841   3.566  0.00  0.00    +0.074 C 
ATOM     18  C   UNL     1     -11.684 -11.624   2.377  0.00  0.00    +0.022 C 
ATOM     19  C   UNL     1     -12.846 -12.502   2.849  0.00  0.00    +0.002 C 
ATOM     20  C   UNL     1     -13.944 -11.618   3.443  0.00  0.00    +0.000 C 
ATOM     21  C   UNL     1     -13.382 -10.835   4.631  0.00  0.00    +0.002 C 
ATOM     22  C   UNL     1     -12.220  -9.958   4.160  0.00  0.00    +0.022 C 
ENDBRANCH  15  17
ENDBRANCH   4   7
BRANCH   1  25
ATOM     23  C   UNL     1      -0.635  -5.769  -1.086  0.00  0.00    +0.235 C 
ATOM     24  O   UNL     1      -0.624  -6.936  -1.417  0.00  0.00    -0.274 OA
ATOM     25  N   UNL     1      -1.640  -5.293  -0.325  0.00  0.00    -0.284 N 
ATOM     26  H   UNL     1      -1.616  -4.378  -0.006  0.00  0.00    +0.155 HD
BRANCH  23  27
ATOM     27  C   UNL     1       0.477  -4.851  -1.526  0.00  0.00    +0.204 C 
BRANCH  27  28
ATOM     28  N   UNL     1       1.439  -5.602  -2.336  0.00  0.00    -0.289 N 
ATOM     29  C   UNL     1       2.483  -6.215  -1.745  0.00  0.00    +0.219 C 
ATOM     30  O   UNL     1       2.627  -6.146  -0.543  0.00  0.00    -0.275 OA
BRANCH  29  31
ATOM     31  C   UNL     1       3.473  -6.988  -2.579  0.00  0.00    +0.075 C 
ATOM     32  C   UNL     1       3.014  -8.418  -2.912  0.00  0.00    +0.013 C 
ATOM     33  C   UNL     1       4.468  -8.856  -2.671  0.00  0.00    +0.001 C 
ATOM     34  C   UNL     1       4.605  -7.627  -1.757  0.00  0.00    +0.013 C 
ENDBRANCH  29  31
BRANCH  28  35
ATOM     35  C   UNL     1       1.265  -5.686  -3.788  0.00  0.00    +0.135 C 
BRANCH  35  37
ATOM     36  C   UNL     1       2.877  -4.776  -5.380  0.00  0.00    +0.005 C 
ATOM     37  C   UNL     1       1.987  -4.540  -4.448  0.00  0.00    -0.016 C 
ENDBRANCH  35  37
ENDBRANCH  28  35
ENDBRANCH  27  28
ENDBRANCH  23  27
ENDBRANCH   1  25
TORSDOF 8
