REMARK  Name = ZINC38638670
REMARK  4 active torsions:
REMARK  status: ('A' for Active; 'I' for Inactive)
REMARK    1  A    between atoms: C_4  and  C_7
REMARK    2  A    between atoms: C_11  and  C_31
REMARK    3  A    between atoms: N_14  and  C_15
REMARK    4  A    between atoms: C_22  and  C_23
REMARK                            x       y       z     vdW  Elec       q    Type
REMARK                         _______ _______ _______ _____ _____    ______ ____
ROOT
ATOM      1  C   UNL     1       4.556  -0.652   2.050  0.00  0.00    +0.013 C 
ATOM      2  C   UNL     1       4.262  -1.937   1.737  0.00  0.00    -0.027 C 
ATOM      3  C   UNL     1       5.004  -2.748   0.863  0.00  0.00    +0.031 C 
ATOM      4  C   UNL     1       4.292  -4.077   0.699  0.00  0.00    +0.048 C 
ATOM      5  C   UNL     1       5.331  -5.202   0.674  0.00  0.00    +0.056 C 
ATOM      6  C   UNL     1       6.444  -4.754  -0.254  0.00  0.00    -0.037 C 
ATOM      7  C   UNL     1       6.782  -3.457  -0.423  0.00  0.00    +0.050 C 
ATOM      8  N   UNL     1       6.131  -2.434   0.246  0.00  0.00    -0.313 N 
ATOM      9  C   UNL     1       7.887  -3.309  -1.375  0.00  0.00    -0.023 C 
ATOM     10  C   UNL     1       8.453  -2.153  -1.759  0.00  0.00    +0.013 C 
ATOM     11  C   UNL     1       8.275  -4.694  -1.847  0.00  0.00    +0.041 C 
ATOM     12  C   UNL     1       7.317  -5.638  -1.099  0.00  0.00    +0.038 C 
ATOM     13  C   UNL     1       3.386  -4.197   1.936  0.00  0.00    +0.015 C 
ATOM     14  C   UNL     1       3.088  -2.722   2.280  0.00  0.00    +0.037 C 
ENDROOT
BRANCH   1  18
ATOM     15  C   UNL     1       1.871   1.620   4.419  0.00  0.00    +0.000 A 
ATOM     16  C   UNL     1       3.233   1.846   4.514  0.00  0.00    +0.001 A 
ATOM     17  C   UNL     1       4.113   1.111   3.748  0.00  0.00    +0.008 A 
ATOM     18  C   UNL     1       3.625   0.135   2.872  0.00  0.00    -0.025 A 
ATOM     19  C   UNL     1       2.246  -0.088   2.782  0.00  0.00    +0.008 A 
ATOM     20  C   UNL     1       1.380   0.656   3.556  0.00  0.00    +0.001 A 
ENDBRANCH   1  18
BRANCH   8  21
ATOM     21  C   UNL     1       6.632  -1.155   0.268  0.00  0.00    +0.047 A 
ATOM     22  C   UNL     1       7.689  -0.832   1.120  0.00  0.00    +0.026 A 
ATOM     23  C   UNL     1       8.188   0.454   1.137  0.00  0.00    +0.002 A 
ATOM     24  C   UNL     1       7.643   1.422   0.312  0.00  0.00    +0.000 A 
ATOM     25  C   UNL     1       6.595   1.108  -0.535  0.00  0.00    +0.002 A 
ATOM     26  C   UNL     1       6.090  -0.176  -0.565  0.00  0.00    +0.026 A 
ENDBRANCH   8  21
BRANCH  10  27
ATOM     27  C   UNL     1       9.653  -2.169  -2.614  0.00  0.00    -0.025 A 
ATOM     28  C   UNL     1       9.824  -1.196  -3.602  0.00  0.00    +0.008 A 
ATOM     29  C   UNL     1      10.951  -1.216  -4.398  0.00  0.00    +0.001 A 
ATOM     30  C   UNL     1      11.910  -2.198  -4.220  0.00  0.00    +0.000 A 
ATOM     31  C   UNL     1      11.747  -3.165  -3.243  0.00  0.00    +0.001 A 
ATOM     32  C   UNL     1      10.629  -3.153  -2.436  0.00  0.00    +0.008 A 
ENDBRANCH  10  27
BRANCH   5  33
ATOM     33  C   UNL     1       5.876  -5.429   2.060  0.00  0.00    -0.040 A 
ATOM     34  C   UNL     1       6.516  -4.402   2.728  0.00  0.00    +0.004 A 
ATOM     35  C   UNL     1       7.016  -4.611   4.000  0.00  0.00    +0.000 A 
ATOM     36  C   UNL     1       6.876  -5.847   4.603  0.00  0.00    +0.000 A 
ATOM     37  C   UNL     1       6.236  -6.874   3.935  0.00  0.00    +0.000 A 
ATOM     38  C   UNL     1       5.732  -6.664   2.665  0.00  0.00    +0.004 A 
ENDBRANCH   5  33
TORSDOF 4
