REMARK  Name = ZINC63352370
REMARK  5 active torsions:
REMARK  status: ('A' for Active; 'I' for Inactive)
REMARK    1  A    between atoms: C_1  and  C_2
REMARK    2  A    between atoms: C_11  and  C_14
REMARK    3  A    between atoms: C_14  and  N_15
REMARK    4  A    between atoms: N_18  and  C_19
REMARK    5  A    between atoms: C_21  and  C_22
REMARK                            x       y       z     vdW  Elec       q    Type
REMARK                         _______ _______ _______ _____ _____    ______ ____
ROOT
ATOM      1  N   UNL     1      -2.304  -7.683   4.228  0.00  0.00    -0.295 N 
ATOM      2  C   UNL     1      -2.664  -8.757   4.959  0.00  0.00    +0.300 C 
ATOM      3  O   UNL     1      -3.161  -8.605   6.058  0.00  0.00    -0.253 OA
ATOM      4  N   UNL     1      -2.474  -9.998   4.471  0.00  0.00    -0.296 N 
ATOM      5  H   UNL     1      -1.907  -7.804   3.351  0.00  0.00    +0.151 HD
ATOM      6  H   UNL     1      -2.078 -10.119   3.594  0.00  0.00    +0.151 HD
ENDROOT
BRANCH   4   7
ATOM      7  C   UNL     1      -2.866 -11.165   5.264  0.00  0.00    +0.082 C 
ATOM      8  C   UNL     1      -3.596 -12.300   4.541  0.00  0.00    +0.033 C 
ATOM      9  C   UNL     1      -2.143 -12.485   4.986  0.00  0.00    +0.041 C 
BRANCH   9  10
ATOM     10  C   UNL     1      -1.082 -12.484   3.916  0.00  0.00    -0.040 A 
ATOM     11  C   UNL     1      -1.410 -12.139   2.618  0.00  0.00    +0.004 A 
ATOM     12  C   UNL     1      -0.438 -12.138   1.635  0.00  0.00    +0.003 A 
ATOM     13  C   UNL     1       0.863 -12.483   1.949  0.00  0.00    +0.038 A 
ATOM     14  C   UNL     1       1.192 -12.829   3.248  0.00  0.00    +0.124 A 
ATOM     15  C   UNL     1       0.219 -12.823   4.233  0.00  0.00    +0.042 A 
ATOM     16  F   UNL     1       2.464 -13.166   3.556  0.00  0.00    -0.205 F 
ENDBRANCH   9  10
ENDBRANCH   4   7
BRANCH   1  17
ATOM     17  C   UNL     1      -2.510  -6.333   4.759  0.00  0.00    +0.142 C 
BRANCH  17  28
ATOM     18  C   UNL     1       1.516  -1.759  -2.543  0.00  0.00    +0.007 C 
ATOM     19  C   UNL     1       0.744  -1.592  -1.232  0.00  0.00    -0.011 C 
ATOM     20  C   UNL     1       1.541  -2.221  -0.087  0.00  0.00    +0.022 C 
ATOM     21  C   UNL     1       0.782  -2.021   1.228  0.00  0.00    +0.107 C 
ATOM     22  N   UNL     1      -0.578  -2.556   1.075  0.00  0.00    -0.317 N 
ATOM     23  C   UNL     1      -1.400  -2.086  -0.049  0.00  0.00    +0.107 C 
ATOM     24  C   UNL     1      -0.616  -2.284  -1.350  0.00  0.00    +0.022 C 
ATOM     25  C   UNL     1      -1.078  -3.489   1.976  0.00  0.00    +0.099 A 
ATOM     26  C   UNL     1      -2.408  -3.889   1.888  0.00  0.00    +0.042 A 
ATOM     27  C   UNL     1      -2.892  -4.819   2.790  0.00  0.00    +0.010 A 
ATOM     28  C   UNL     1      -2.026  -5.319   3.755  0.00  0.00    -0.014 A 
ATOM     29  C   UNL     1      -0.719  -4.878   3.784  0.00  0.00    +0.089 A 
ATOM     30  N   UNL     1      -0.283  -3.994   2.906  0.00  0.00    -0.349 N 
ATOM     31  H   UNL     1       0.642  -3.704   2.947  0.00  0.00    +0.167 HD
ENDBRANCH  17  28
ENDBRANCH   1  17
TORSDOF 4
