REMARK  Name = ZINC67239246
REMARK  11 active torsions:
REMARK  status: ('A' for Active; 'I' for Inactive)
REMARK    1  A    between atoms: C_1  and  C_2
REMARK    2  A    between atoms: C_2  and  C_3
REMARK    3  A    between atoms: C_3  and  C_5
REMARK    4  A    between atoms: C_3  and  N_6
REMARK    5  A    between atoms: C_12  and  C_15
REMARK    6  A    between atoms: C_17  and  S_18
REMARK    7  A    between atoms: S_18  and  C_19
REMARK    8  A    between atoms: C_19  and  C_20
REMARK    9  A    between atoms: C_27  and  O_32
REMARK   10  A    between atoms: O_32  and  C_33
REMARK   11  A    between atoms: C_33  and  C_34
REMARK                            x       y       z     vdW  Elec       q    Type
REMARK                         _______ _______ _______ _____ _____    ______ ____
ROOT
ATOM      1  S   UNL     1       1.574   1.244  -3.495  0.00  0.00    -0.078 S 
ENDROOT
BRANCH   1  13
ATOM      2  N   UNL     1       2.125  -0.091  -1.209  0.00  0.00    -0.283 N 
ATOM      3  C   UNL     1       2.913  -0.518  -0.199  0.00  0.00    +0.279 A 
ATOM      4  O   UNL     1       2.468  -1.241   0.677  0.00  0.00    -0.265 OA
ATOM      5  C   UNL     1       4.261  -0.112  -0.180  0.00  0.00    +0.131 A 
ATOM      6  C   UNL     1       4.728   0.717  -1.207  0.00  0.00    +0.097 A 
ATOM      7  C   UNL     1       6.092   0.962  -0.938  0.00  0.00    +0.051 A 
ATOM      8  C   UNL     1       6.415   0.307   0.196  0.00  0.00    +0.016 A 
ATOM      9  N   UNL     1       5.321  -0.348   0.670  0.00  0.00    -0.353 N 
ATOM     10  H   UNL     1       5.291  -0.892   1.472  0.00  0.00    +0.166 HD
ATOM     11  C   UNL     1       7.778   0.303   0.839  0.00  0.00    +0.063 C 
ATOM     12  N   UNL     1       3.885   1.105  -2.183  0.00  0.00    -0.221 NA
ATOM     13  C   UNL     1       2.632   0.713  -2.189  0.00  0.00    +0.173 A 
BRANCH   2  14
ATOM     14  C   UNL     1       0.718  -0.497  -1.257  0.00  0.00    +0.089 C 
ATOM     15  C   UNL     1       0.630  -2.023  -1.329  0.00  0.00    +0.031 C 
BRANCH  14  17
ATOM     16  C   UNL     1      -0.019   1.526   0.010  0.00  0.00    +0.006 C 
ATOM     17  C   UNL     1       0.002  -0.004   0.002  0.00  0.00    +0.021 C 
ENDBRANCH  14  17
ENDBRANCH   2  14
ENDBRANCH   1  13
BRANCH   1  18
ATOM     18  C   UNL     1       2.647   2.267  -4.540  0.00  0.00    +0.173 C 
BRANCH  18  19
ATOM     19  C   UNL     1       1.856   2.791  -5.711  0.00  0.00    +0.229 C 
ATOM     20  O   UNL     1       0.683   2.504  -5.827  0.00  0.00    -0.275 OA
ATOM     21  N   UNL     1       2.451   3.580  -6.627  0.00  0.00    -0.264 N 
ATOM     22  C   UNL     1       1.723   4.063  -7.703  0.00  0.00    +0.165 A 
ATOM     23  N   UNL     1       2.123   4.831  -8.689  0.00  0.00    -0.224 NA
ATOM     24  C   UNL     1       1.297   5.228  -9.681  0.00  0.00    +0.084 A 
ATOM     25  C   UNL     1       1.599   6.049 -10.792  0.00  0.00    +0.074 A 
ATOM     26  C   UNL     1       0.632   6.361 -11.718  0.00  0.00    +0.123 A 
ATOM     27  C   UNL     1      -0.669   5.884 -11.595  0.00  0.00    +0.047 A 
ATOM     28  C   UNL     1      -0.996   5.079 -10.520  0.00  0.00    +0.021 A 
ATOM     29  C   UNL     1      -0.035   4.764  -9.592  0.00  0.00    +0.041 A 
ATOM     30  S   UNL     1       0.003   3.792  -8.104  0.00  0.00    -0.052 S 
ATOM     31  H   UNL     1       3.388   3.811  -6.534  0.00  0.00    +0.157 HD
BRANCH  26  32
ATOM     32  O   UNL     1       0.954   7.153 -12.775  0.00  0.00    -0.492 OA
BRANCH  32  33
ATOM     33  C   UNL     1      -0.089   7.447 -13.707  0.00  0.00    +0.225 C 
ATOM     34  C   UNL     1       0.459   8.343 -14.820  0.00  0.00    +0.048 C 
ENDBRANCH  32  33
ENDBRANCH  26  32
ENDBRANCH  18  19
ENDBRANCH   1  18
TORSDOF 7
