REMARK  Name = ZINC63437325
REMARK  8 active torsions:
REMARK  status: ('A' for Active; 'I' for Inactive)
REMARK    1  A    between atoms: C_1  and  C_2
REMARK    2  A    between atoms: C_5  and  N_8
REMARK    3  A    between atoms: C_9  and  C_11
REMARK    4  A    between atoms: C_11  and  C_13
REMARK    5  A    between atoms: C_11  and  N_23
REMARK    6  A    between atoms: C_13  and  C_14
REMARK    7  A    between atoms: C_24  and  C_26
REMARK    8  A    between atoms: C_29  and  C_32
REMARK                            x       y       z     vdW  Elec       q    Type
REMARK                         _______ _______ _______ _____ _____    ______ ____
ROOT
ATOM      1  C   UNL     1      -1.941  -2.293   4.845  0.00  0.00    +0.163 C 
ENDROOT
BRANCH   1   3
ATOM      2  N   UNL     1      -1.358  -2.098   2.449  0.00  0.00    -0.311 N 
ATOM      3  C   UNL     1      -1.235  -2.779   3.606  0.00  0.00    +0.234 C 
ATOM      4  O   UNL     1      -0.557  -3.784   3.648  0.00  0.00    -0.274 OA
ATOM      5  H   UNL     1      -1.901  -1.294   2.415  0.00  0.00    +0.149 HD
BRANCH   2  10
ATOM      6  C   UNL     1      -0.019   1.526   0.010  0.00  0.00    +0.007 C 
ATOM      7  C   UNL     1       0.002  -0.004   0.002  0.00  0.00    -0.014 C 
ATOM      8  C   UNL     1      -1.433  -0.534   0.013  0.00  0.00    +0.005 C 
ATOM      9  C   UNL     1      -1.413  -2.063   0.004  0.00  0.00    +0.022 C 
ATOM     10  C   UNL     1      -0.673  -2.570   1.244  0.00  0.00    +0.073 C 
ATOM     11  C   UNL     1       0.763  -2.041   1.233  0.00  0.00    +0.022 C 
ATOM     12  C   UNL     1       0.742  -0.511   1.242  0.00  0.00    +0.005 C 
ENDBRANCH   2  10
ENDBRANCH   1   3
BRANCH   1  13
ATOM     13  N   UNL     1      -1.650  -3.200   5.959  0.00  0.00    -0.300 N 
ATOM     14  C   UNL     1      -2.511  -3.295   6.992  0.00  0.00    +0.245 C 
ATOM     15  O   UNL     1      -3.527  -2.629   7.000  0.00  0.00    -0.270 OA
ATOM     16  H   UNL     1      -0.839  -3.731   5.953  0.00  0.00    +0.150 HD
BRANCH  14  17
ATOM     17  C   UNL     1      -2.218  -4.209   8.117  0.00  0.00    +0.037 A 
ATOM     18  C   UNL     1      -1.048  -4.971   8.114  0.00  0.00    +0.013 A 
ATOM     19  C   UNL     1      -0.781  -5.822   9.166  0.00  0.00    +0.005 A 
ATOM     20  C   UNL     1      -1.669  -5.922  10.222  0.00  0.00    -0.041 A 
ATOM     21  C   UNL     1      -2.830  -5.170  10.231  0.00  0.00    +0.005 A 
ATOM     22  C   UNL     1      -3.107  -4.310   9.188  0.00  0.00    +0.013 A 
BRANCH  20  23
ATOM     23  C   UNL     1      -1.370  -6.854  11.368  0.00  0.00    -0.003 C 
ATOM     24  C   UNL     1      -0.052  -6.445  12.028  0.00  0.00    +0.015 C 
ATOM     25  C   UNL     1       0.251  -7.391  13.191  0.00  0.00    -0.010 C 
ATOM     26  C   UNL     1      -0.879  -7.314  14.219  0.00  0.00    +0.007 C 
ATOM     27  C   UNL     1      -2.198  -7.724  13.559  0.00  0.00    -0.010 C 
ATOM     28  C   UNL     1      -2.501  -6.777  12.396  0.00  0.00    +0.015 C 
ATOM     29  C   UNL     1      -2.082  -9.156  13.035  0.00  0.00    +0.007 C 
ATOM     30  C   UNL     1      -0.952  -9.233  12.007  0.00  0.00    -0.010 C 
ATOM     31  C   UNL     1       0.366  -8.824  12.667  0.00  0.00    +0.007 C 
ATOM     32  C   UNL     1      -1.255  -8.287  10.843  0.00  0.00    +0.015 C 
ENDBRANCH  20  23
ENDBRANCH  14  17
ENDBRANCH   1  13
BRANCH   1  33
ATOM     33  C   UNL     1      -1.451  -0.886   5.192  0.00  0.00    +0.065 C 
BRANCH  33  34
ATOM     34  C   UNL     1      -2.243  -0.351   6.358  0.00  0.00    -0.039 C 
ATOM     35  C   UNL     1      -1.897  -0.397   7.665  0.00  0.00    -0.001 A 
ATOM     36  C   UNL     1      -0.727  -0.938   8.365  0.00  0.00    +0.010 A 
ATOM     37  C   UNL     1      -0.662  -0.833   9.712  0.00  0.00    +0.001 A 
ATOM     38  C   UNL     1      -1.683  -0.222  10.454  0.00  0.00    +0.002 A 
ATOM     39  C   UNL     1      -2.789   0.298   9.881  0.00  0.00    +0.026 A 
ATOM     40  C   UNL     1      -2.962   0.243   8.470  0.00  0.00    +0.043 A 
ATOM     41  N   UNL     1      -3.927   0.668   7.692  0.00  0.00    -0.380 N 
ATOM     42  C   UNL     1      -3.582   0.350   6.302  0.00  0.00    +0.144 C 
ATOM     43  H   UNL     1      -4.734   1.120   7.986  0.00  0.00    +0.160 HD
ENDBRANCH  33  34
ENDBRANCH   1  33
TORSDOF 7
