REMARK  Name = ZINC37284130
REMARK  3 active torsions:
REMARK  status: ('A' for Active; 'I' for Inactive)
REMARK    1  A    between atoms: C_8  and  N_11
REMARK    2  A    between atoms: N_11  and  C_12
REMARK    3  A    between atoms: C_12  and  C_13
REMARK                            x       y       z     vdW  Elec       q    Type
REMARK                         _______ _______ _______ _____ _____    ______ ____
ROOT
ATOM      1  N   UNL     1       2.651  -4.076  -0.045  0.00  0.00    -0.338 N 
ATOM      2  H   UNL     1       1.853  -4.627  -0.040  0.00  0.00    +0.146 HD
ENDROOT
BRANCH   1  10
ATOM      3  C   UNL     1      -0.016   1.357   0.009  0.00  0.00    +0.001 A 
ATOM      4  C   UNL     1       1.170   2.088   0.002  0.00  0.00    +0.002 A 
ATOM      5  C   UNL     1       2.379   1.464  -0.013  0.00  0.00    +0.028 A 
ATOM      6  C   UNL     1       2.441   0.059  -0.021  0.00  0.00    +0.071 A 
ATOM      7  C   UNL     1       1.233  -0.682  -0.013  0.00  0.00    +0.002 A 
ATOM      8  C   UNL     1       0.002  -0.004   0.002  0.00  0.00    +0.010 A 
ATOM      9  C   UNL     1       1.292  -2.087  -0.021  0.00  0.00    +0.034 A 
ATOM     10  C   UNL     1       2.539  -2.683  -0.037  0.00  0.00    +0.046 A 
ATOM     11  C   UNL     1       3.689  -1.884  -0.044  0.00  0.00    +0.134 A 
ATOM     12  N   UNL     1       3.616  -0.576  -0.036  0.00  0.00    -0.253 NA
ENDBRANCH   1  10
BRANCH   1  13
ATOM     13  C   UNL     1       3.975  -4.704  -0.061  0.00  0.00    +0.140 C 
BRANCH  13  14
ATOM     14  C   UNL     1       3.820  -6.203  -0.067  0.00  0.00    +0.008 A 
ATOM     15  C   UNL     1       3.755  -6.896   1.128  0.00  0.00    +0.047 A 
ATOM     16  C   UNL     1       3.611  -8.272   1.123  0.00  0.00    +0.022 A 
ATOM     17  C   UNL     1       3.533  -8.955  -0.077  0.00  0.00    +0.023 A 
ATOM     18  C   UNL     1       3.598  -8.263  -1.272  0.00  0.00    +0.060 A 
ATOM     19  C   UNL     1       3.736  -6.885  -1.268  0.00  0.00    +0.065 A 
ATOM     20 CL   UNL     1       3.811  -6.014  -2.768  0.00  0.00    -0.082 Cl
ATOM     21 CL   UNL     1       3.501  -9.120  -2.778  0.00  0.00    -0.082 Cl
ATOM     22 CL   UNL     1       3.853  -6.040   2.635  0.00  0.00    -0.083 Cl
ENDBRANCH  13  14
ENDBRANCH   1  13
TORSDOF 3
