REMARK  Name = ZINC13688882
REMARK  6 active torsions:
REMARK  status: ('A' for Active; 'I' for Inactive)
REMARK    1  A    between atoms: C_1  and  C_2
REMARK    2  A    between atoms: C_2  and  O_3
REMARK    3  A    between atoms: O_3  and  C_4
REMARK    4  A    between atoms: C_6  and  C_11
REMARK    5  A    between atoms: C_9  and  O_10
REMARK    6  A    between atoms: N_17  and  C_18
REMARK                            x       y       z     vdW  Elec       q    Type
REMARK                         _______ _______ _______ _____ _____    ______ ____
ROOT
ATOM      1  C   UNL     1      -1.178  -4.989  -0.265  0.00  0.00    +0.028 C 
ATOM      2  C   UNL     1      -0.903  -6.318  -0.294  0.00  0.00    +0.078 C 
ATOM      3  C   UNL     1      -1.292  -7.376   0.658  0.00  0.00    +0.256 C 
ATOM      4  O   UNL     1      -1.956  -7.128   1.648  0.00  0.00    -0.269 OA
ATOM      5  N   UNL     1      -0.886  -8.605   0.388  0.00  0.00    -0.260 N 
ATOM      6  C   UNL     1      -0.134  -8.865  -0.737  0.00  0.00    +0.166 C 
ATOM      7  N   UNL     1       0.346 -10.016  -1.151  0.00  0.00    -0.224 NA
ATOM      8  S   UNL     1       0.021  -7.258  -1.501  0.00  0.00    -0.049 S 
ATOM      9  H   UNL     1      -1.119  -9.330   0.988  0.00  0.00    +0.157 HD
ENDROOT
BRANCH   7  10
ATOM     10  C   UNL     1       1.151 -10.064  -2.256  0.00  0.00    +0.086 A 
ATOM     11  C   UNL     1       2.230  -9.185  -2.377  0.00  0.00    +0.029 A 
ATOM     12  C   UNL     1       3.039  -9.239  -3.493  0.00  0.00    +0.004 A 
ATOM     13  C   UNL     1       2.783 -10.160  -4.494  0.00  0.00    +0.021 A 
ATOM     14  C   UNL     1       1.715 -11.034  -4.383  0.00  0.00    +0.061 A 
ATOM     15  C   UNL     1       0.901 -10.996  -3.267  0.00  0.00    +0.085 A 
ATOM     16 CL   UNL     1      -0.433 -12.097  -3.125  0.00  0.00    -0.080 Cl
ATOM     17 CL   UNL     1       1.403 -12.185  -5.644  0.00  0.00    -0.082 Cl
ENDBRANCH   7  10
BRANCH   1  20
ATOM     18  C   UNL     1      -0.449  -1.960  -2.353  0.00  0.00    +0.162 A 
ATOM     19  C   UNL     1      -0.774  -2.751  -1.268  0.00  0.00    +0.057 A 
ATOM     20  C   UNL     1      -0.833  -4.143  -1.414  0.00  0.00    -0.020 A 
ATOM     21  C   UNL     1      -0.561  -4.724  -2.658  0.00  0.00    +0.012 A 
ATOM     22  C   UNL     1      -0.237  -3.927  -3.734  0.00  0.00    +0.050 A 
ATOM     23  C   UNL     1      -0.185  -2.547  -3.590  0.00  0.00    +0.158 A 
BRANCH  23  24
ATOM     24  O   UNL     1       0.129  -1.766  -4.657  0.00  0.00    -0.503 OA
ATOM     25  H   UNL     1       1.076  -1.598  -4.756  0.00  0.00    +0.292 HD
ENDBRANCH  23  24
BRANCH  18  26
ATOM     26  O   UNL     1      -0.390  -0.609  -2.216  0.00  0.00    -0.489 OA
BRANCH  26  28
ATOM     27  C   UNL     1      -0.558   1.450  -0.961  0.00  0.00    +0.048 C 
ATOM     28  C   UNL     1      -0.672  -0.076  -0.920  0.00  0.00    +0.226 C 
ENDBRANCH  26  28
ENDBRANCH  18  26
ENDBRANCH   1  20
TORSDOF 5
