REMARK  Name = ZINC38980367
REMARK  8 active torsions:
REMARK  status: ('A' for Active; 'I' for Inactive)
REMARK    1  A    between atoms: C_1  and  O_2
REMARK    2  A    between atoms: O_2  and  C_3
REMARK    3  A    between atoms: C_5  and  O_33
REMARK    4  A    between atoms: C_8  and  N_9
REMARK    5  A    between atoms: N_9  and  C_10
REMARK    6  A    between atoms: N_13  and  S_14
REMARK    7  A    between atoms: S_14  and  C_17
REMARK    8  A    between atoms: O_33  and  C_34
REMARK                            x       y       z     vdW  Elec       q    Type
REMARK                         _______ _______ _______ _____ _____    ______ ____
ROOT
ATOM      1  C   UNL     1       0.055  -4.235  -0.238  0.00  0.00    +0.237 C 
ATOM      2  C   UNL     1      -1.379  -4.676  -0.049  0.00  0.00    +0.192 C 
ATOM      3  N   UNL     1      -2.318  -4.216  -0.821  0.00  0.00    -0.110 NA
ATOM      4  N   UNL     1      -1.667  -5.551   0.928  0.00  0.00    -0.226 NA
ATOM      5  C   UNL     1      -0.734  -6.032   1.722  0.00  0.00    +0.089 A 
ATOM      6  C   UNL     1      -1.075  -6.954   2.744  0.00  0.00    +0.030 A 
ATOM      7  C   UNL     1      -0.121  -7.451   3.562  0.00  0.00    +0.002 A 
ATOM      8  C   UNL     1       1.233  -7.093   3.455  0.00  0.00    +0.002 A 
ATOM      9  C   UNL     1       1.666  -6.222   2.517  0.00  0.00    +0.027 A 
ATOM     10  C   UNL     1       0.690  -5.636   1.586  0.00  0.00    +0.063 A 
ATOM     11  N   UNL     1       1.070  -4.793   0.669  0.00  0.00    -0.359 N 
ATOM     12  H   UNL     1       2.003  -4.539   0.585  0.00  0.00    +0.162 HD
ENDROOT
BRANCH   3  13
ATOM     13  S   UNL     1      -3.884  -4.708  -0.603  0.00  0.00    +0.100 S 
ATOM     14  O   UNL     1      -3.923  -6.092  -0.920  0.00  0.00    -0.146 OA
ATOM     15  O   UNL     1      -4.296  -4.204   0.660  0.00  0.00    -0.146 OA
BRANCH  13  16
ATOM     16  C   UNL     1      -4.862  -3.886  -1.816  0.00  0.00    +0.113 A 
ATOM     17  C   UNL     1      -5.420  -2.653  -1.534  0.00  0.00    +0.032 A 
ATOM     18  C   UNL     1      -6.187  -2.007  -2.485  0.00  0.00    +0.040 A 
ATOM     19  C   UNL     1      -6.397  -2.595  -3.721  0.00  0.00    +0.124 A 
ATOM     20  C   UNL     1      -5.837  -3.830  -4.003  0.00  0.00    +0.040 A 
ATOM     21  C   UNL     1      -5.066  -4.472  -3.052  0.00  0.00    +0.032 A 
ATOM     22  F   UNL     1      -7.146  -1.965  -4.652  0.00  0.00    -0.205 F 
ENDBRANCH  13  16
ENDBRANCH   3  13
BRANCH   1  23
ATOM     23  N   UNL     1       0.094  -2.776  -0.110  0.00  0.00    -0.315 N 
ATOM     24  H   UNL     1      -0.304  -2.346   0.663  0.00  0.00    +0.149 HD
BRANCH  23  30
ATOM     25  C   UNL     1       0.626  -0.611  -1.054  0.00  0.00    +0.144 A 
ATOM     26  C   UNL     1       1.238   0.152  -2.034  0.00  0.00    +0.094 A 
ATOM     27  C   UNL     1       1.927  -0.468  -3.067  0.00  0.00    +0.142 A 
ATOM     28  C   UNL     1       2.003  -1.852  -3.118  0.00  0.00    +0.084 A 
ATOM     29  C   UNL     1       1.392  -2.617  -2.141  0.00  0.00    +0.050 A 
ATOM     30  C   UNL     1       0.708  -2.001  -1.104  0.00  0.00    +0.073 A 
ATOM     31 CL   UNL     1       2.865  -2.625  -4.411  0.00  0.00    -0.080 Cl
BRANCH  25  33
ATOM     32  C   UNL     1      -0.092   1.423  -0.054  0.00  0.00    +0.277 C 
ATOM     33  O   UNL     1      -0.049  -0.005  -0.042  0.00  0.00    -0.493 OA
ENDBRANCH  25  33
BRANCH  27  34
ATOM     34  O   UNL     1       2.527   0.282  -4.029  0.00  0.00    -0.494 OA
ATOM     35  C   UNL     1       2.409   1.702  -3.914  0.00  0.00    +0.277 C 
ENDBRANCH  27  34
ENDBRANCH  23  30
ENDBRANCH   1  23
TORSDOF 6
