REMARK  Name = ZINC65074856
REMARK  8 active torsions:
REMARK  status: ('A' for Active; 'I' for Inactive)
REMARK    1  A    between atoms: C_1  and  C_2
REMARK    2  A    between atoms: C_2  and  C_3
REMARK    3  A    between atoms: C_2  and  C_4
REMARK    4  A    between atoms: C_4  and  C_5
REMARK    5  A    between atoms: C_8  and  S_11
REMARK    6  A    between atoms: S_11  and  N_14
REMARK    7  A    between atoms: N_25  and  C_26
REMARK    8  A    between atoms: C_26  and  C_27
REMARK                            x       y       z     vdW  Elec       q    Type
REMARK                         _______ _______ _______ _____ _____    ______ ____
ROOT
ATOM      1  N   UNL     1      -3.108   1.905  -6.014  0.00  0.00    -0.176 NA
ATOM      2  C   UNL     1      -2.996   3.363  -5.877  0.00  0.00    +0.111 C 
ATOM      3  C   UNL     1      -3.137   4.001  -7.262  0.00  0.00    +0.047 C 
ATOM      4  C   UNL     1      -2.109   3.380  -8.212  0.00  0.00    +0.075 C 
ATOM      5  C   UNL     1      -2.379   1.878  -8.342  0.00  0.00    +0.047 C 
ATOM      6  C   UNL     1      -2.226   1.215  -6.965  0.00  0.00    +0.111 C 
ATOM      7  C   UNL     1      -2.218   4.029  -9.563  0.00  0.00    +0.089 C 
ATOM      8  N   UNL     1      -1.390   4.902  -9.997  0.00  0.00    -0.374 N 
ATOM      9  C   UNL     1      -0.232   5.368  -9.241  0.00  0.00    +0.129 C 
ATOM     10  C   UNL     1      -0.390   5.007  -7.763  0.00  0.00    +0.102 C 
ATOM     11  N   UNL     1      -0.760   3.584  -7.666  0.00  0.00    -0.303 NA
ATOM     12  N   UNL     1      -3.261   3.667 -10.374  0.00  0.00    -0.329 N 
ATOM     13  H   UNL     1      -0.703   3.260  -6.713  0.00  0.00    +0.123 HD
ATOM     14  H   UNL     1      -3.905   3.007 -10.071  0.00  0.00    +0.147 HD
ATOM     15  H   UNL     1      -1.540   5.275 -10.880  0.00  0.00    +0.161 HD
ENDROOT
BRANCH   1  16
ATOM     16  S   UNL     1      -4.202   1.053  -5.108  0.00  0.00    +0.061 S 
ATOM     17  O   UNL     1      -4.466  -0.150  -5.816  0.00  0.00    -0.153 OA
ATOM     18  O   UNL     1      -5.229   1.966  -4.748  0.00  0.00    -0.153 OA
BRANCH  16  22
ATOM     19  C   UNL     1      -2.125  -0.137  -1.266  0.00  0.00    -0.047 A 
ATOM     20  C   UNL     1      -2.808   1.062  -1.340  0.00  0.00    +0.005 A 
ATOM     21  C   UNL     1      -3.442   1.426  -2.513  0.00  0.00    +0.029 A 
ATOM     22  C   UNL     1      -3.393   0.590  -3.613  0.00  0.00    +0.105 A 
ATOM     23  C   UNL     1      -2.709  -0.609  -3.540  0.00  0.00    +0.029 A 
ATOM     24  C   UNL     1      -2.071  -0.971  -2.368  0.00  0.00    +0.005 A 
BRANCH  19  25
ATOM     25  C   UNL     1      -1.433  -0.534   0.013  0.00  0.00    +0.038 C 
BRANCH  25  27
ATOM     26  C   UNL     1      -0.019   1.526   0.010  0.00  0.00    +0.007 C 
ATOM     27  C   UNL     1       0.002  -0.004   0.002  0.00  0.00    -0.013 C 
ATOM     28  C   UNL     1       0.742  -0.511   1.242  0.00  0.00    +0.007 C 
ENDBRANCH  25  27
ENDBRANCH  19  25
ENDBRANCH  16  22
ENDBRANCH   1  16
BRANCH  12  29
ATOM     29  C   UNL     1      -3.405   4.275 -11.699  0.00  0.00    +0.138 C 
BRANCH  29  30
ATOM     30  C   UNL     1      -4.623   3.709 -12.382  0.00  0.00    -0.027 A 
ATOM     31  C   UNL     1      -4.510   2.574 -13.164  0.00  0.00    +0.009 A 
ATOM     32  C   UNL     1      -5.625   2.050 -13.792  0.00  0.00    +0.050 A 
ATOM     33  C   UNL     1      -6.858   2.663 -13.640  0.00  0.00    +0.166 A 
ATOM     34  C   UNL     1      -6.972   3.806 -12.853  0.00  0.00    +0.167 A 
ATOM     35  C   UNL     1      -5.851   4.322 -12.222  0.00  0.00    +0.054 A 
ATOM     36  O   UNL     1      -8.274   4.215 -12.863  0.00  0.00    -0.453 OA
ATOM     37  C   UNL     1      -8.877   3.550 -13.989  0.00  0.00    +0.466 C 
ATOM     38  O   UNL     1      -8.089   2.355 -14.143  0.00  0.00    -0.453 OA
ENDBRANCH  29  30
ENDBRANCH  12  29
TORSDOF 6
