REMARK  Name = ZINC43527594
REMARK  10 active torsions:
REMARK  status: ('A' for Active; 'I' for Inactive)
REMARK    1  A    between atoms: C_1  and  N_2
REMARK    2  A    between atoms: N_2  and  C_3
REMARK    3  A    between atoms: N_2  and  C_4
REMARK    4  A    between atoms: C_7  and  N_10
REMARK    5  A    between atoms: N_10  and  C_11
REMARK    6  A    between atoms: C_11  and  N_13
REMARK    7  A    between atoms: N_13  and  C_14
REMARK    8  A    between atoms: C_14  and  C_15
REMARK    9  A    between atoms: C_24  and  C_26
REMARK   10  A    between atoms: C_26  and  N_27
REMARK                            x       y       z     vdW  Elec       q    Type
REMARK                         _______ _______ _______ _____ _____    ______ ____
ROOT
ATOM      1  C   UNL     1      -9.523  -3.197   0.484  0.00  0.00    -0.051 C 
ATOM      2  C   UNL     1     -10.862  -2.456   0.490  0.00  0.00    -0.010 C 
ATOM      3  C   UNL     1     -11.696  -2.932  -0.706  0.00  0.00    -0.011 C 
ATOM      4  C   UNL     1     -10.917  -2.626  -1.992  0.00  0.00    -0.015 C 
ATOM      5  C   UNL     1      -9.566  -3.343  -1.933  0.00  0.00    -0.078 C 
ATOM      6  N   UNL     1      -9.466  -4.116  -0.655  0.00  0.00    +0.383 N 
ATOM      7  C   UNL     1     -10.525  -5.124  -0.558  0.00  0.00    -0.073 C 
ATOM      8  C   UNL     1     -11.895  -4.448  -0.585  0.00  0.00    -0.007 C 
ATOM      9  H   UNL     1      -8.578  -4.594  -0.636  0.00  0.00    -0.081 HD
ENDROOT
BRANCH   1  10
ATOM     10  C   UNL     1      -8.382  -2.183   0.375  0.00  0.00    +0.088 C 
BRANCH  10  11
ATOM     11  N   UNL     1      -7.107  -2.894   0.255  0.00  0.00    -0.328 N 
ATOM     12  H   UNL     1      -7.090  -3.864   0.253  0.00  0.00    +0.148 HD
BRANCH  11  13
ATOM     13  C   UNL     1      -5.956  -2.200   0.145  0.00  0.00    +0.134 C 
ATOM     14  S   UNL     1      -5.985  -0.489   0.148  0.00  0.00    -0.019 S 
BRANCH  13  15
ATOM     15  N   UNL     1      -4.783  -2.854   0.034  0.00  0.00    -0.297 N 
ATOM     16  H   UNL     1      -4.773  -3.821  -0.049  0.00  0.00    +0.154 HD
BRANCH  15  20
ATOM     17  C   UNL     1      -1.198  -0.723   0.043  0.00  0.00    +0.029 A 
ATOM     18  C   UNL     1      -2.213  -0.380   0.927  0.00  0.00    +0.025 A 
ATOM     19  C   UNL     1      -3.400  -1.085   0.924  0.00  0.00    +0.025 A 
ATOM     20  C   UNL     1      -3.579  -2.138   0.037  0.00  0.00    +0.033 A 
ATOM     21  C   UNL     1      -2.564  -2.482  -0.847  0.00  0.00    +0.025 A 
ATOM     22  C   UNL     1      -1.380  -1.773  -0.848  0.00  0.00    +0.025 A 
BRANCH  17  24
ATOM     23  C   UNL     1       1.072  -0.366  -0.891  0.00  0.00    +0.129 C 
ATOM     24  N   UNL     1       0.004  -0.007   0.046  0.00  0.00    -0.336 N 
ATOM     25  C   UNL     1       0.195   1.100   0.986  0.00  0.00    +0.129 C 
ENDBRANCH  17  24
ENDBRANCH  15  20
ENDBRANCH  13  15
ENDBRANCH  11  13
ENDBRANCH  10  11
ENDBRANCH   1  10
BRANCH   8  26
ATOM     26  C   UNL     1     -12.694  -4.958  -1.786  0.00  0.00    +0.107 C 
BRANCH  26  27
ATOM     27  N   UNL     1     -12.985  -6.383  -1.610  0.00  0.00    -0.329 N 
ATOM     28  C   UNL     1     -12.126  -7.478  -2.066  0.00  0.00    +0.110 C 
ATOM     29  C   UNL     1     -12.858  -8.765  -1.651  0.00  0.00    +0.056 C 
ATOM     30  C   UNL     1     -14.118  -8.281  -0.969  0.00  0.00    -0.025 A 
ATOM     31  C   UNL     1     -14.120  -6.895  -0.978  0.00  0.00    +0.033 A 
ATOM     32  C   UNL     1     -15.190  -6.215  -0.394  0.00  0.00    +0.023 A 
ATOM     33  C   UNL     1     -16.226  -6.916   0.186  0.00  0.00    +0.002 A 
ATOM     34  C   UNL     1     -16.212  -8.298   0.194  0.00  0.00    +0.000 A 
ATOM     35  C   UNL     1     -15.160  -8.979  -0.391  0.00  0.00    +0.005 A 
ENDBRANCH  26  27
ENDBRANCH   8  26
TORSDOF 8
