REMARK  Name = ZINC43758060
REMARK  13 active torsions:
REMARK  status: ('A' for Active; 'I' for Inactive)
REMARK    1  A    between atoms: C_1  and  C_2
REMARK    2  A    between atoms: C_2  and  C_4
REMARK    3  A    between atoms: C_2  and  C_10
REMARK    4  A    between atoms: C_4  and  C_5
REMARK    5  A    between atoms: C_5  and  C_6
REMARK    6  A    between atoms: C_6  and  C_7
REMARK    7  A    between atoms: C_7  and  C_8
REMARK    8  A    between atoms: C_7  and  C_9
REMARK    9  A    between atoms: C_16  and  C_39
REMARK   10  A    between atoms: C_23  and  N_35
REMARK   11  A    between atoms: C_27  and  C_34
REMARK   12  A    between atoms: C_30  and  O_33
REMARK   13  A    between atoms: C_36  and  C_38
REMARK                            x       y       z     vdW  Elec       q    Type
REMARK                         _______ _______ _______ _____ _____    ______ ____
ROOT
ATOM      1  C   UNL     1       0.780  -0.560   1.630  0.00  0.00    -0.002 C 
ATOM      2  C   UNL     1       0.059  -0.233   2.953  0.00  0.00    +0.004 C 
ATOM      3  C   UNL     1      -0.104  -1.572   3.706  0.00  0.00    +0.005 C 
ATOM      4  C   UNL     1       1.035  -2.464   3.129  0.00  0.00    +0.001 C 
ATOM      5  C   UNL     1       1.010  -2.077   1.641  0.00  0.00    -0.026 C 
ATOM      6  C   UNL     1       2.269  -2.482   0.908  0.00  0.00    +0.007 C 
ATOM      7  C   UNL     1       3.506  -1.926   1.610  0.00  0.00    +0.005 C 
ATOM      8  C   UNL     1       3.561  -2.487   3.038  0.00  0.00    +0.004 C 
ATOM      9  C   UNL     1       2.328  -2.015   3.818  0.00  0.00    +0.021 C 
ATOM     10  C   UNL     1       2.353  -2.642   5.219  0.00  0.00    +0.100 C 
ATOM     11  C   UNL     1       3.671  -2.373   5.879  0.00  0.00    -0.005 C 
ATOM     12  C   UNL     1       4.752  -2.083   5.228  0.00  0.00    -0.063 C 
ATOM     13  C   UNL     1       4.829  -1.966   3.705  0.00  0.00    -0.008 C 
ATOM     14  C   UNL     1       5.108  -0.521   3.298  0.00  0.00    +0.014 C 
ATOM     15  C   UNL     1       5.887   0.192   4.402  0.00  0.00    +0.032 C 
ATOM     16  C   UNL     1       6.849  -0.765   5.103  0.00  0.00    +0.119 C 
ATOM     17  C   UNL     1       6.037  -1.800   5.989  0.00  0.00    +0.062 C 
ATOM     18  C   UNL     1       6.006  -2.819   3.227  0.00  0.00    +0.016 C 
ATOM     19  C   UNL     1      -0.179  -2.765   0.968  0.00  0.00    +0.012 C 
ENDROOT
BRANCH  10  20
ATOM     20  N   UNL     1       1.279  -2.063   6.030  0.00  0.00    -0.309 N 
ATOM     21  C   UNL     1       0.308  -2.855   6.527  0.00  0.00    +0.210 C 
ATOM     22  O   UNL     1       0.323  -4.046   6.303  0.00  0.00    -0.276 OA
ATOM     23  C   UNL     1      -0.797  -2.259   7.362  0.00  0.00    +0.109 C 
ATOM     24  H   UNL     1       1.267  -1.110   6.210  0.00  0.00    +0.149 HD
ENDBRANCH  10  20
BRANCH   1  26
ATOM     25  C   UNL     1      -0.460   1.315   0.540  0.00  0.00    +0.008 C 
ATOM     26  C   UNL     1      -0.097  -0.168   0.440  0.00  0.00    -0.010 C 
BRANCH  26  27
ATOM     27  C   UNL     1       0.668  -0.419  -0.862  0.00  0.00    +0.003 C 
BRANCH  27  28
ATOM     28  C   UNL     1      -0.246  -0.129  -2.054  0.00  0.00    +0.001 C 
BRANCH  28  29
ATOM     29  C   UNL     1       0.518  -0.380  -3.356  0.00  0.00    +0.003 C 
BRANCH  29  30
ATOM     30  C   UNL     1      -0.395  -0.090  -4.548  0.00  0.00    -0.017 C 
ATOM     31  C   UNL     1       0.404  -0.220  -5.846  0.00  0.00    +0.007 C 
ATOM     32  C   UNL     1      -1.552  -1.090  -4.559  0.00  0.00    +0.007 C 
ENDBRANCH  29  30
ENDBRANCH  28  29
ENDBRANCH  27  28
ENDBRANCH  26  27
ENDBRANCH   1  26
BRANCH  16  33
ATOM     33  O   UNL     1       7.608  -1.479   4.125  0.00  0.00    -0.391 OA
ATOM     34  H   UNL     1       8.139  -0.912   3.549  0.00  0.00    +0.210 HD
ENDBRANCH  16  33
TORSDOF 7
