REMARK  Name = ZINC11120291
REMARK  7 active torsions:
REMARK  status: ('A' for Active; 'I' for Inactive)
REMARK    1  A    between atoms: C_1  and  C_2
REMARK    2  A    between atoms: C_2  and  C_3
REMARK    3  A    between atoms: C_2  and  C_4
REMARK    4  A    between atoms: N_19  and  C_20
REMARK    5  A    between atoms: C_20  and  C_21
REMARK    6  A    between atoms: N_23  and  C_24
REMARK    7  A    between atoms: C_24  and  C_25
REMARK                            x       y       z     vdW  Elec       q    Type
REMARK                         _______ _______ _______ _____ _____    ______ ____
ROOT
ATOM      1  C   UNL     1      -2.682   6.629   7.758  0.00  0.00    -0.044 A 
ATOM      2  C   UNL     1      -1.864   5.533   7.544  0.00  0.00    +0.006 A 
ATOM      3  C   UNL     1      -2.401   4.352   7.073  0.00  0.00    +0.025 A 
ATOM      4  C   UNL     1      -3.762   4.253   6.815  0.00  0.00    +0.060 A 
ATOM      5  C   UNL     1      -4.592   5.358   7.024  0.00  0.00    +0.007 A 
ATOM      6  C   UNL     1      -4.033   6.548   7.503  0.00  0.00    +0.014 A 
ATOM      7  C   UNL     1      -6.051   5.329   6.764  0.00  0.00    +0.011 A 
ATOM      8  C   UNL     1      -6.761   6.527   6.661  0.00  0.00    +0.010 A 
ATOM      9  C   UNL     1      -8.119   6.503   6.421  0.00  0.00    +0.001 A 
ATOM     10  C   UNL     1      -8.785   5.298   6.281  0.00  0.00    +0.002 A 
ATOM     11  C   UNL     1      -8.089   4.105   6.381  0.00  0.00    +0.029 A 
ATOM     12  C   UNL     1      -6.735   4.123   6.620  0.00  0.00    +0.116 A 
ATOM     13  S   UNL     1      -5.820   2.618   6.753  0.00  0.00    +0.076 S 
ATOM     14  O   UNL     1      -6.301   1.747   5.738  0.00  0.00    -0.150 OA
ATOM     15  O   UNL     1      -5.800   2.261   8.128  0.00  0.00    -0.150 OA
ATOM     16  N   UNL     1      -4.263   3.038   6.336  0.00  0.00    -0.194 N 
ENDROOT
BRANCH   1  18
ATOM     17  C   UNL     1      -1.437   7.668   9.635  0.00  0.00    +0.012 C 
ATOM     18  C   UNL     1      -2.092   7.916   8.274  0.00  0.00    +0.013 C 
ATOM     19  C   UNL     1      -1.039   8.426   7.288  0.00  0.00    +0.012 C 
ENDBRANCH   1  18
BRANCH  16  20
ATOM     20  C   UNL     1      -3.442   2.159   5.498  0.00  0.00    +0.227 C 
BRANCH  20  21
ATOM     21  C   UNL     1      -3.554   2.590   4.059  0.00  0.00    +0.232 C 
ATOM     22  O   UNL     1      -4.250   3.537   3.761  0.00  0.00    -0.274 OA
ATOM     23  N   UNL     1      -2.880   1.922   3.102  0.00  0.00    -0.311 N 
ATOM     24  H   UNL     1      -2.322   1.165   3.340  0.00  0.00    +0.149 HD
BRANCH  23  25
ATOM     25  C   UNL     1      -2.988   2.341   1.702  0.00  0.00    +0.135 C 
BRANCH  25  26
ATOM     26  C   UNL     1      -2.131   1.423   0.827  0.00  0.00    +0.135 C 
ATOM     27  C   UNL     1      -2.230   1.847  -0.655  0.00  0.00    +0.035 C 
ATOM     28  C   UNL     1      -0.804   1.620  -1.206  0.00  0.00    +0.031 C 
ATOM     29  C   UNL     1      -0.013   1.086   0.008  0.00  0.00    +0.160 C 
ATOM     30  O   UNL     1      -0.731   1.573   1.163  0.00  0.00    -0.375 OA
ENDBRANCH  25  26
ENDBRANCH  23  25
ENDBRANCH  20  21
ENDBRANCH  16  20
TORSDOF 5
