REMARK  Name = ZINC01197323
REMARK  3 active torsions:
REMARK  status: ('A' for Active; 'I' for Inactive)
REMARK    1  A    between atoms: C_1  and  C_2
REMARK    2  A    between atoms: C_5  and  C_8
REMARK    3  A    between atoms: N_15  and  C_18
REMARK                            x       y       z     vdW  Elec       q    Type
REMARK                         _______ _______ _______ _____ _____    ______ ____
ROOT
ATOM      1  C   UNL     1       3.650   2.151  -0.022  0.00  0.00    +0.026 C 
ATOM      2  C   UNL     1       3.637   3.527  -0.118  0.00  0.00    +0.100 C 
ATOM      3  C   UNL     1       2.372   4.290  -0.105  0.00  0.00    +0.255 C 
ATOM      4  O   UNL     1       1.300   3.723  -0.009  0.00  0.00    -0.270 OA
ATOM      5  N   UNL     1       2.438   5.634  -0.204  0.00  0.00    -0.263 N 
ATOM      6  C   UNL     1       3.612   6.272  -0.311  0.00  0.00    +0.151 C 
ATOM      7  S   UNL     1       3.597   7.980  -0.433  0.00  0.00    -0.018 S 
ATOM      8  N   UNL     1       4.797   5.646  -0.330  0.00  0.00    -0.216 N 
ATOM      9  C   UNL     1       4.889   4.304  -0.233  0.00  0.00    +0.262 C 
ATOM     10  O   UNL     1       5.971   3.748  -0.246  0.00  0.00    -0.269 OA
ATOM     11  H   UNL     1       1.617   6.151  -0.197  0.00  0.00    +0.157 HD
ENDROOT
BRANCH   8  12
ATOM     12  C   UNL     1       5.970   6.405  -0.446  0.00  0.00    +0.062 A 
ATOM     13  C   UNL     1       6.612   6.872   0.693  0.00  0.00    +0.027 A 
ATOM     14  C   UNL     1       7.770   7.615   0.576  0.00  0.00    +0.022 A 
ATOM     15  C   UNL     1       8.285   7.905  -0.676  0.00  0.00    +0.042 A 
ATOM     16  C   UNL     1       7.645   7.446  -1.813  0.00  0.00    +0.042 A 
ATOM     17  C   UNL     1       6.488   6.697  -1.702  0.00  0.00    +0.064 A 
ATOM     18 CL   UNL     1       5.685   6.122  -3.129  0.00  0.00    -0.082 Cl
ATOM     19 CL   UNL     1       9.737   8.846  -0.819  0.00  0.00    -0.083 Cl
ENDBRANCH   8  12
BRANCH   1  24
ATOM     20  C   UNL     1      -1.260  -0.801  -0.430  0.00  0.00    +0.044 C 
ATOM     21  C   UNL     1       0.028  -0.026  -0.323  0.00  0.00    -0.050 A 
ATOM     22  C   UNL     1       0.930  -0.328   0.683  0.00  0.00    +0.004 A 
ATOM     23  C   UNL     1       2.111   0.375   0.788  0.00  0.00    +0.008 A 
ATOM     24  C   UNL     1       2.397   1.398  -0.126  0.00  0.00    -0.024 A 
ATOM     25  C   UNL     1       1.477   1.696  -1.141  0.00  0.00    +0.008 A 
ATOM     26  C   UNL     1       0.302   0.983  -1.231  0.00  0.00    +0.004 A 
ENDBRANCH   1  24
TORSDOF 2
