REMARK  Name = ZINC28968788
REMARK  7 active torsions:
REMARK  status: ('A' for Active; 'I' for Inactive)
REMARK    1  A    between atoms: C_1  and  C_2
REMARK    2  A    between atoms: C_2  and  O_3
REMARK    3  A    between atoms: O_3  and  C_4
REMARK    4  A    between atoms: C_4  and  C_6
REMARK    5  A    between atoms: C_7  and  C_29
REMARK    6  A    between atoms: C_11  and  N_20
REMARK    7  A    between atoms: C_21  and  C_23
REMARK                            x       y       z     vdW  Elec       q    Type
REMARK                         _______ _______ _______ _____ _____    ______ ____
ROOT
ATOM      1  C   UNL     1      -1.233   3.118   5.923  0.00  0.00    +0.086 C 
ATOM      2  C   UNL     1       0.038   3.237   5.521  0.00  0.00    +0.115 C 
ATOM      3  O   UNL     1       0.400   3.163   4.234  0.00  0.00    -0.442 OA
ATOM      4  C   UNL     1      -0.432   2.579   3.339  0.00  0.00    +0.226 A 
ATOM      5  C   UNL     1      -1.778   2.425   3.623  0.00  0.00    +0.047 A 
ATOM      6  C   UNL     1      -2.606   1.834   2.677  0.00  0.00    +0.039 A 
ATOM      7  C   UNL     1      -2.048   1.408   1.462  0.00  0.00    -0.005 A 
ATOM      8  C   UNL     1      -0.703   1.564   1.260  0.00  0.00    +0.050 A 
ATOM      9  N   UNL     1       0.053   2.147   2.185  0.00  0.00    -0.217 NA
ATOM     10  C   UNL     1      -0.013   1.086   0.008  0.00  0.00    +0.056 C 
ATOM     11  C   UNL     1      -0.738   1.585  -1.244  0.00  0.00    +0.006 C 
ATOM     12  C   UNL     1      -1.727   0.505  -1.672  0.00  0.00    +0.001 C 
ATOM     13  C   UNL     1      -2.266  -0.218  -0.436  0.00  0.00    +0.005 C 
ATOM     14  C   UNL     1      -2.981   0.806   0.444  0.00  0.00    +0.039 C 
ATOM     15  C   UNL     1      -2.345   2.889   4.937  0.00  0.00    +0.096 C 
ATOM     16  C   UNL     1       1.106   3.464   6.559  0.00  0.00    +0.087 C 
ENDROOT
BRANCH  15  17
ATOM     17  C   UNL     1      -3.102   4.175   4.729  0.00  0.00    -0.032 A 
ATOM     18  C   UNL     1      -2.463   5.303   4.239  0.00  0.00    +0.024 A 
ATOM     19  C   UNL     1      -3.190   6.464   4.057  0.00  0.00    +0.111 A 
ATOM     20  N   UNL     1      -4.475   6.509   4.353  0.00  0.00    -0.263 NA
ATOM     21  C   UNL     1      -5.114   5.457   4.826  0.00  0.00    +0.111 A 
ATOM     22  C   UNL     1      -4.453   4.260   5.029  0.00  0.00    +0.024 A 
ENDBRANCH  15  17
BRANCH   6  23
ATOM     23  N   UNL     1      -3.964   1.669   2.929  0.00  0.00    -0.357 N 
ATOM     24  H   UNL     1      -4.611   1.200   2.172  0.00  0.00    +0.142 HD
ATOM     25  H   UNL     1      -4.392   2.007   3.885  0.00  0.00    +0.142 HD
ENDBRANCH   6  23
BRANCH   1  26
ATOM     26  C   UNL     1      -1.536   3.209   7.303  0.00  0.00    +0.339 C 
ATOM     27  O   UNL     1      -0.645   3.394   8.111  0.00  0.00    -0.245 OA
BRANCH  26  28
ATOM     28  O   UNL     1      -2.813   3.091   7.723  0.00  0.00    -0.462 OA
BRANCH  28  30
ATOM     29  C   UNL     1      -4.541   3.035   9.411  0.00  0.00    +0.048 C 
ATOM     30  C   UNL     1      -3.046   3.193   9.129  0.00  0.00    +0.229 C 
ENDBRANCH  28  30
ENDBRANCH  26  28
ENDBRANCH   1  26
TORSDOF 5
