REMARK  Name = ZINC35645035
REMARK  11 active torsions:
REMARK  status: ('A' for Active; 'I' for Inactive)
REMARK    1  A    between atoms: C_1  and  C_2
REMARK    2  A    between atoms: C_2  and  N_3
REMARK    3  A    between atoms: N_10  and  C_13
REMARK    4  A    between atoms: C_13  and  C_14
REMARK    5  A    between atoms: C_15  and  C_30
REMARK    6  A    between atoms: C_16  and  C_23
REMARK    7  A    between atoms: N_21  and  C_22
REMARK    8  A    between atoms: C_26  and  C_29
REMARK    9  A    between atoms: C_30  and  O_32
REMARK   10  A    between atoms: O_32  and  C_33
REMARK   11  A    between atoms: C_33  and  C_34
REMARK                            x       y       z     vdW  Elec       q    Type
REMARK                         _______ _______ _______ _____ _____    ______ ____
ROOT
ATOM      1  C   UNL     1      -0.440  -5.956   5.229  0.00  0.00    +0.010 C 
ATOM      2  C   UNL     1      -0.134  -6.408   6.464  0.00  0.00    +0.076 C 
ATOM      3  C   UNL     1      -0.102  -7.908   6.679  0.00  0.00    +0.143 C 
ATOM      4  N   UNL     1      -0.409  -8.755   5.514  0.00  0.00    -0.288 N 
ATOM      5  C   UNL     1      -0.697  -8.154   4.342  0.00  0.00    +0.307 C 
ATOM      6  O   UNL     1      -0.952  -8.845   3.375  0.00  0.00    -0.252 OA
ATOM      7  N   UNL     1      -0.716  -6.822   4.210  0.00  0.00    -0.264 N 
ATOM      8  C   UNL     1      -1.046  -6.262   2.897  0.00  0.00    +0.139 C 
ATOM      9  H   UNL     1      -0.405  -9.722   5.588  0.00  0.00    +0.151 HD
ENDROOT
BRANCH   3  10
ATOM     10  C   UNL     1      -1.087  -8.242   7.769  0.00  0.00    -0.022 A 
ATOM     11  C   UNL     1      -2.436  -8.333   7.477  0.00  0.00    +0.006 A 
ATOM     12  C   UNL     1      -3.340  -8.640   8.477  0.00  0.00    +0.004 A 
ATOM     13  C   UNL     1      -2.895  -8.856   9.768  0.00  0.00    -0.050 A 
ATOM     14  C   UNL     1      -1.547  -8.766  10.059  0.00  0.00    +0.004 A 
ATOM     15  C   UNL     1      -0.642  -8.464   9.059  0.00  0.00    +0.006 A 
ATOM     16  C   UNL     1      -3.881  -9.190  10.858  0.00  0.00    +0.044 C 
ENDBRANCH   3  10
BRANCH   2  17
ATOM     17  C   UNL     1       0.148  -5.512   7.522  0.00  0.00    +0.339 C 
ATOM     18  O   UNL     1       0.070  -4.311   7.340  0.00  0.00    -0.245 OA
BRANCH  17  19
ATOM     19  O   UNL     1       0.503  -5.989   8.733  0.00  0.00    -0.462 OA
BRANCH  19  20
ATOM     20  C   UNL     1       0.773  -5.027   9.755  0.00  0.00    +0.229 C 
ATOM     21  C   UNL     1       1.157  -5.750  11.048  0.00  0.00    +0.048 C 
ENDBRANCH  19  20
ENDBRANCH  17  19
ENDBRANCH   2  17
BRANCH   1  22
ATOM     22  C   UNL     1      -0.482  -4.472   4.973  0.00  0.00    -0.026 C 
BRANCH  22  30
ATOM     23  N   UNL     1       2.889  -3.583   0.850  0.00  0.00    -0.300 N 
ATOM     24  C   UNL     1       3.045  -2.583   1.739  0.00  0.00    +0.302 C 
ATOM     25  O   UNL     1       3.205  -1.442   1.349  0.00  0.00    -0.253 OA
ATOM     26  N   UNL     1       3.024  -2.846   3.061  0.00  0.00    -0.287 N 
ATOM     27  C   UNL     1       3.096  -1.719   4.013  0.00  0.00    +0.107 C 
ATOM     28  C   UNL     1       2.126  -1.926   5.190  0.00  0.00    +0.000 C 
ATOM     29  C   UNL     1       0.829  -2.512   4.677  0.00  0.00    -0.077 C 
ATOM     30  N   UNL     1       0.884  -3.969   4.779  0.00  0.00    +0.384 N 
ATOM     31  C   UNL     1       1.446  -4.623   3.660  0.00  0.00    -0.059 C 
ATOM     32  C   UNL     1       2.925  -4.224   3.497  0.00  0.00    +0.091 C 
ATOM     33  H   UNL     1       2.835  -4.502   1.158  0.00  0.00    +0.150 HD
ATOM     34  H   UNL     1       1.427  -4.210   5.595  0.00  0.00    -0.081 HD
BRANCH  23  36
ATOM     35  C   UNL     1       2.628  -4.587  -1.365  0.00  0.00    +0.024 C 
ATOM     36  C   UNL     1       2.802  -3.284  -0.582  0.00  0.00    +0.102 C 
ENDBRANCH  23  36
ENDBRANCH  22  30
ENDBRANCH   1  22
TORSDOF 7
