REMARK  Name = ZINC05502592
REMARK  6 active torsions:
REMARK  status: ('A' for Active; 'I' for Inactive)
REMARK    1  A    between atoms: C_1  and  C_2
REMARK    2  A    between atoms: C_2  and  C_3
REMARK    3  A    between atoms: C_3  and  C_4
REMARK    4  A    between atoms: C_4  and  C_5
REMARK    5  A    between atoms: C_5  and  N_6
REMARK    6  A    between atoms: C_10  and  C_11
REMARK                            x       y       z     vdW  Elec       q    Type
REMARK                         _______ _______ _______ _____ _____    ______ ____
ROOT
ATOM      1  N   UNL     1       2.126   6.445  -2.686  0.00  0.00    -0.255 N 
ATOM      2  C   UNL     1       1.682   5.443  -1.946  0.00  0.00    +0.258 C 
ATOM      3  O   UNL     1       0.579   4.960  -2.120  0.00  0.00    -0.269 OA
ATOM      4  C   UNL     1       2.593   4.941  -0.897  0.00  0.00    +0.077 C 
ATOM      5  C   UNL     1       2.411   3.939  -0.000  0.00  0.00    +0.031 C 
ATOM      6  S   UNL     1       3.998   6.021  -1.129  0.00  0.00    -0.061 S 
ATOM      7  C   UNL     1       3.349   6.978  -2.490  0.00  0.00    +0.121 C 
ATOM      8  S   UNL     1       4.096   8.265  -3.335  0.00  0.00    -0.027 S 
ENDROOT
BRANCH   5   9
ATOM      9  C   UNL     1       1.153   3.180   0.008  0.00  0.00    +0.013 A 
ATOM     10  C   UNL     1       1.174   1.780   0.000  0.00  0.00    +0.050 A 
ATOM     11  C   UNL     1      -0.013   1.076   0.008  0.00  0.00    +0.020 A 
ATOM     12  C   UNL     1      -1.222   1.749   0.017  0.00  0.00    +0.003 A 
ATOM     13  C   UNL     1      -1.252   3.133   0.031  0.00  0.00    +0.020 A 
ATOM     14  C   UNL     1      -0.075   3.853   0.024  0.00  0.00    +0.050 A 
ATOM     15 CL   UNL     1      -0.117   5.589   0.034  0.00  0.00    -0.083 Cl
ATOM     16 CL   UNL     1       2.689   0.933  -0.019  0.00  0.00    -0.083 Cl
ENDBRANCH   5   9
BRANCH   1  17
ATOM     17  C   UNL     1       1.270   6.988  -3.744  0.00  0.00    +0.115 C 
BRANCH  17  18
ATOM     18  C   UNL     1       0.411   8.119  -3.174  0.00  0.00    +0.019 C 
BRANCH  18  19
ATOM     19  C   UNL     1      -0.483   8.686  -4.278  0.00  0.00    +0.001 C 
BRANCH  19  21
ATOM     20  C   UNL     1      -2.236  10.384  -4.813  0.00  0.00    +0.004 C 
ATOM     21  C   UNL     1      -1.342   9.817  -3.708  0.00  0.00    -0.003 C 
ENDBRANCH  19  21
ENDBRANCH  18  19
ENDBRANCH  17  18
ENDBRANCH   1  17
TORSDOF 5
