REMARK  Name = ZINC09720406
REMARK  9 active torsions:
REMARK  status: ('A' for Active; 'I' for Inactive)
REMARK    1  A    between atoms: C_1  and  C_2
REMARK    2  A    between atoms: C_2  and  C_33
REMARK    3  A    between atoms: C_6  and  C_23
REMARK    4  A    between atoms: N_8  and  C_16
REMARK    5  A    between atoms: C_16  and  N_18
REMARK    6  A    between atoms: N_18  and  C_19
REMARK    7  A    between atoms: C_19  and  C_20
REMARK    8  A    between atoms: C_20  and  O_21
REMARK    9  A    between atoms: O_21  and  C_22
REMARK                            x       y       z     vdW  Elec       q    Type
REMARK                         _______ _______ _______ _____ _____    ______ ____
ROOT
ATOM      1  C   UNL     1      -2.958   0.175  -3.066  0.00  0.00    +0.011 C 
ATOM      2  C   UNL     1      -2.069   1.203  -3.769  0.00  0.00    -0.023 C 
ATOM      3  C   UNL     1      -2.091   2.521  -2.997  0.00  0.00    +0.058 C 
ATOM      4  C   UNL     1      -1.583   2.300  -1.582  0.00  0.00    +0.017 C 
ATOM      5  C   UNL     1      -0.634   1.382  -1.337  0.00  0.00    +0.037 C 
ATOM      6  C   UNL     1      -0.013   1.086   0.008  0.00  0.00    +0.146 C 
ATOM      7  N   UNL     1      -0.701   1.691   1.128  0.00  0.00    -0.269 N 
ATOM      8  C   UNL     1      -0.760   3.077   1.275  0.00  0.00    +0.057 A 
ATOM      9  C   UNL     1      -0.096   3.727   2.303  0.00  0.00    +0.025 A 
ATOM     10  C   UNL     1      -0.094   5.110   2.344  0.00  0.00    +0.002 A 
ATOM     11  C   UNL     1      -0.751   5.840   1.371  0.00  0.00    +0.002 A 
ATOM     12  C   UNL     1      -1.434   5.194   0.355  0.00  0.00    +0.025 A 
ATOM     13  C   UNL     1      -1.450   3.810   0.321  0.00  0.00    +0.053 A 
ATOM     14  N   UNL     1      -2.152   3.099  -0.644  0.00  0.00    -0.316 N 
ATOM     15  C   UNL     1      -0.126   0.583  -2.389  0.00  0.00    +0.163 C 
ATOM     16  O   UNL     1       0.742  -0.231  -2.139  0.00  0.00    -0.292 OA
ATOM     17  C   UNL     1      -0.620   0.703  -3.799  0.00  0.00    +0.086 C 
ATOM     18  C   UNL     1      -2.570   1.430  -5.197  0.00  0.00    +0.011 C 
ATOM     19  H   UNL     1      -3.119   3.180  -0.648  0.00  0.00    +0.152 HD
ENDROOT
BRANCH   6  20
ATOM     20  C   UNL     1       1.410   1.582  -0.003  0.00  0.00    -0.022 A 
ATOM     21  C   UNL     1       1.671   2.930  -0.157  0.00  0.00    +0.007 A 
ATOM     22  C   UNL     1       2.976   3.386  -0.162  0.00  0.00    +0.020 A 
ATOM     23  C   UNL     1       4.021   2.491  -0.023  0.00  0.00    +0.041 A 
ATOM     24  C   UNL     1       3.760   1.141   0.126  0.00  0.00    +0.020 A 
ATOM     25  C   UNL     1       2.455   0.687   0.136  0.00  0.00    +0.007 A 
ATOM     26 CL   UNL     1       5.661   3.062  -0.036  0.00  0.00    -0.084 Cl
ENDBRANCH   6  20
BRANCH   7  27
ATOM     27  C   UNL     1      -1.292   0.902   2.048  0.00  0.00    +0.138 C 
ATOM     28  S   UNL     1      -1.224  -0.801   1.885  0.00  0.00    -0.018 S 
BRANCH  27  29
ATOM     29  N   UNL     1      -1.936   1.454   3.095  0.00  0.00    -0.324 N 
ATOM     30  H   UNL     1      -1.975   2.418   3.188  0.00  0.00    +0.148 HD
BRANCH  29  31
ATOM     31  C   UNL     1      -2.578   0.596   4.094  0.00  0.00    +0.131 C 
BRANCH  31  32
ATOM     32  C   UNL     1      -3.233   1.466   5.169  0.00  0.00    +0.178 C 
BRANCH  32  33
ATOM     33  O   UNL     1      -4.293   2.226   4.585  0.00  0.00    -0.381 OA
ATOM     34  C   UNL     1      -4.974   3.078   5.509  0.00  0.00    +0.194 C 
ENDBRANCH  32  33
ENDBRANCH  31  32
ENDBRANCH  29  31
ENDBRANCH  27  29
ENDBRANCH   7  27
TORSDOF 6
