REMARK  Name = ZINC40569597
REMARK  9 active torsions:
REMARK  status: ('A' for Active; 'I' for Inactive)
REMARK    1  A    between atoms: C_1  and  C_2
REMARK    2  A    between atoms: C_2  and  C_3
REMARK    3  A    between atoms: C_3  and  C_4
REMARK    4  A    between atoms: N_10  and  C_11
REMARK    5  A    between atoms: C_12  and  C_22
REMARK    6  A    between atoms: C_14  and  C_18
REMARK    7  A    between atoms: C_15  and  N_17
REMARK    8  A    between atoms: C_18  and  O_20
REMARK    9  A    between atoms: O_20  and  C_21
REMARK                            x       y       z     vdW  Elec       q    Type
REMARK                         _______ _______ _______ _____ _____    ______ ____
ROOT
ATOM      1  C   UNL     1       0.900  -2.123  -0.946  0.00  0.00    +0.025 A 
ATOM      2  C   UNL     1      -0.092  -2.663  -1.685  0.00  0.00    +0.068 A 
ATOM      3  C   UNL     1      -0.153  -4.061  -1.862  0.00  0.00    +0.141 A 
ATOM      4  C   UNL     1       0.809  -4.851  -1.270  0.00  0.00    +0.071 A 
ATOM      5  C   UNL     1       1.820  -4.247  -0.512  0.00  0.00    +0.259 A 
ATOM      6  O   UNL     1       2.680  -4.935   0.017  0.00  0.00    -0.267 OA
ATOM      7  N   UNL     1       1.849  -2.909  -0.371  0.00  0.00    -0.315 N 
ATOM      8  C   UNL     1       2.915  -2.290   0.420  0.00  0.00    +0.152 C 
ATOM      9  C   UNL     1       0.781  -6.347  -1.431  0.00  0.00    +0.100 C 
ATOM     10  C   UNL     1      -0.117  -6.728  -2.575  0.00  0.00    +0.105 C 
ATOM     11  C   UNL     1      -1.015  -5.848  -3.087  0.00  0.00    +0.195 C 
ATOM     12  O   UNL     1      -1.145  -4.603  -2.601  0.00  0.00    -0.441 OA
ENDROOT
BRANCH   9  13
ATOM     13  C   UNL     1       0.265  -6.976  -0.163  0.00  0.00    -0.035 A 
ATOM     14  C   UNL     1      -1.002  -6.668   0.295  0.00  0.00    +0.006 A 
ATOM     15  C   UNL     1      -1.476  -7.245   1.458  0.00  0.00    +0.020 A 
ATOM     16  C   UNL     1      -0.682  -8.130   2.165  0.00  0.00    +0.041 A 
ATOM     17  C   UNL     1       0.587  -8.438   1.706  0.00  0.00    +0.020 A 
ATOM     18  C   UNL     1       1.058  -7.864   0.540  0.00  0.00    +0.006 A 
ATOM     19 CL   UNL     1      -1.276  -8.855   3.626  0.00  0.00    -0.084 Cl
ENDBRANCH   9  13
BRANCH  11  20
ATOM     20  N   UNL     1      -1.811  -6.242  -4.129  0.00  0.00    -0.329 N 
ATOM     21  H   UNL     1      -1.664  -7.101  -4.554  0.00  0.00    +0.145 HD
ATOM     22  H   UNL     1      -2.522  -5.661  -4.442  0.00  0.00    +0.145 HD
ENDBRANCH  11  20
BRANCH  10  23
ATOM     23  C   UNL     1      -0.025  -8.016  -3.122  0.00  0.00    +0.341 C 
ATOM     24  O   UNL     1       0.861  -8.279  -3.916  0.00  0.00    -0.245 OA
BRANCH  23  25
ATOM     25  O   UNL     1      -0.920  -8.965  -2.770  0.00  0.00    -0.465 OA
ATOM     26  C   UNL     1      -0.767 -10.255  -3.367  0.00  0.00    +0.280 C 
ENDBRANCH  23  25
ENDBRANCH  10  23
BRANCH   1  27
ATOM     27  C   UNL     1       0.961  -0.629  -0.760  0.00  0.00    +0.053 C 
BRANCH  27  29
ATOM     28  C   UNL     1       1.916   1.500  -1.652  0.00  0.00    +0.004 C 
ATOM     29  C   UNL     1       1.855  -0.017  -1.841  0.00  0.00    +0.003 C 
ENDBRANCH  27  29
ENDBRANCH   1  27
TORSDOF 6
