REMARK  Name = ZINC09365719
REMARK  5 active torsions:
REMARK  status: ('A' for Active; 'I' for Inactive)
REMARK    1  A    between atoms: C_1  and  C_2
REMARK    2  A    between atoms: C_2  and  C_18
REMARK    3  A    between atoms: N_5  and  C_9
REMARK    4  A    between atoms: C_9  and  C_10
REMARK    5  A    between atoms: C_11  and  C_12
REMARK                            x       y       z     vdW  Elec       q    Type
REMARK                         _______ _______ _______ _____ _____    ______ ____
ROOT
ATOM      1  C   UNL     1       1.798  -1.190  -1.278  0.00  0.00    +0.047 C 
ATOM      2  C   UNL     1       1.467  -0.394  -0.014  0.00  0.00    +0.135 C 
ATOM      3  C   UNL     1       0.002  -0.004   0.002  0.00  0.00    +0.251 C 
ATOM      4  O   UNL     1      -0.954  -0.749   0.008  0.00  0.00    -0.272 OA
ATOM      5  N   UNL     1      -0.016   1.343   0.009  0.00  0.00    -0.220 N 
ATOM      6  C   UNL     1       1.220   1.854   0.000  0.00  0.00    +0.310 C 
ATOM      7  O   UNL     1       1.460   3.045   0.005  0.00  0.00    -0.252 OA
ATOM      8  N   UNL     1       2.170   0.901  -0.014  0.00  0.00    -0.281 N 
ATOM      9  H   UNL     1       3.130   1.039  -0.022  0.00  0.00    +0.152 HD
ENDROOT
BRANCH   2  10
ATOM     10  C   UNL     1       1.818  -1.188   1.218  0.00  0.00    -0.012 A 
ATOM     11  C   UNL     1       0.858  -1.974   1.828  0.00  0.00    +0.010 A 
ATOM     12  C   UNL     1       1.177  -2.708   2.955  0.00  0.00    +0.050 A 
ATOM     13  C   UNL     1       2.456  -2.649   3.483  0.00  0.00    +0.166 A 
ATOM     14  C   UNL     1       3.421  -1.853   2.871  0.00  0.00    +0.167 A 
ATOM     15  C   UNL     1       3.097  -1.124   1.738  0.00  0.00    +0.055 A 
ATOM     16  O   UNL     1       4.587  -1.963   3.573  0.00  0.00    -0.453 OA
ATOM     17  C   UNL     1       4.440  -3.148   4.378  0.00  0.00    +0.466 C 
ATOM     18  O   UNL     1       3.017  -3.258   4.568  0.00  0.00    -0.453 OA
ENDBRANCH   2  10
BRANCH   5  19
ATOM     19  C   UNL     1      -1.239   2.150   0.020  0.00  0.00    +0.145 C 
BRANCH  19  20
ATOM     20  C   UNL     1      -1.652   2.419   1.444  0.00  0.00    -0.007 C 
ATOM     21  C   UNL     1      -1.835   3.665   1.857  0.00  0.00    +0.005 C 
BRANCH  21  22
ATOM     22  C   UNL     1      -2.239   3.929   3.254  0.00  0.00    -0.025 A 
ATOM     23  C   UNL     1      -2.435   2.868   4.139  0.00  0.00    +0.008 A 
ATOM     24  C   UNL     1      -2.807   3.121   5.443  0.00  0.00    +0.001 A 
ATOM     25  C   UNL     1      -2.997   4.423   5.872  0.00  0.00    +0.000 A 
ATOM     26  C   UNL     1      -2.810   5.479   4.997  0.00  0.00    +0.001 A 
ATOM     27  C   UNL     1      -2.433   5.239   3.692  0.00  0.00    +0.008 A 
ENDBRANCH  21  22
ENDBRANCH  19  20
ENDBRANCH   5  19
TORSDOF 4
