REMARK  Name = ZINC33026343
REMARK  8 active torsions:
REMARK  status: ('A' for Active; 'I' for Inactive)
REMARK    1  A    between atoms: C_1  and  O_2
REMARK    2  A    between atoms: O_2  and  C_3
REMARK    3  A    between atoms: C_8  and  S_9
REMARK    4  A    between atoms: S_9  and  N_12
REMARK    5  A    between atoms: N_12  and  C_13
REMARK    6  A    between atoms: C_18  and  S_19
REMARK    7  A    between atoms: S_19  and  C_20
REMARK    8  A    between atoms: C_20  and  C_21
REMARK                            x       y       z     vdW  Elec       q    Type
REMARK                         _______ _______ _______ _____ _____    ______ ____
ROOT
ATOM      1  C   UNL     1      -5.312  -3.388   2.634  0.00  0.00    +0.061 A 
ATOM      2  C   UNL     1      -6.511  -3.982   2.271  0.00  0.00    +0.025 A 
ATOM      3  C   UNL     1      -6.709  -4.399   0.967  0.00  0.00    +0.002 A 
ATOM      4  C   UNL     1      -5.714  -4.225   0.023  0.00  0.00    +0.001 A 
ATOM      5  C   UNL     1      -4.517  -3.629   0.375  0.00  0.00    +0.016 A 
ATOM      6  C   UNL     1      -4.308  -3.213   1.682  0.00  0.00    +0.031 A 
ENDROOT
BRANCH   1   7
ATOM      7  N   UNL     1      -5.109  -2.966   3.954  0.00  0.00    -0.215 N 
ATOM      8  H   UNL     1      -5.000  -1.895   4.178  0.00  0.00    +0.174 HD
BRANCH   7   9
ATOM      9  S   UNL     1      -5.034  -4.080   5.177  0.00  0.00    +0.076 S 
ATOM     10  O   UNL     1      -4.835  -3.349   6.380  0.00  0.00    -0.150 OA
ATOM     11  O   UNL     1      -6.136  -4.959   4.994  0.00  0.00    -0.150 OA
BRANCH   9  17
ATOM     12  C   UNL     1      -3.488  -5.887   3.829  0.00  0.00    +0.147 A 
ATOM     13  C   UNL     1      -2.340  -6.640   3.630  0.00  0.00    +0.049 A 
ATOM     14  C   UNL     1      -1.288  -6.542   4.520  0.00  0.00    +0.024 A 
ATOM     15  C   UNL     1      -1.379  -5.694   5.609  0.00  0.00    +0.043 A 
ATOM     16  C   UNL     1      -2.521  -4.938   5.806  0.00  0.00    +0.052 A 
ATOM     17  C   UNL     1      -3.577  -5.037   4.922  0.00  0.00    +0.151 A 
ATOM     18 CL   UNL     1      -0.056  -5.572   6.726  0.00  0.00    -0.083 Cl
BRANCH  12  20
ATOM     19  C   UNL     1      -4.363  -6.876   1.852  0.00  0.00    +0.277 C 
ATOM     20  O   UNL     1      -4.524  -5.981   2.954  0.00  0.00    -0.493 OA
ENDBRANCH  12  20
ENDBRANCH   9  17
ENDBRANCH   7   9
ENDBRANCH   1   7
BRANCH   6  21
ATOM     21  S   UNL     1      -2.781  -2.459   2.135  0.00  0.00    -0.117 S 
BRANCH  21  22
ATOM     22  C   UNL     1      -1.821  -2.452   0.596  0.00  0.00    +0.130 C 
BRANCH  22  23
ATOM     23  C   UNL     1      -0.474  -1.825   0.847  0.00  0.00    +0.059 A 
ATOM     24  C   UNL     1       0.653  -2.619   0.932  0.00  0.00    +0.094 A 
ATOM     25  C   UNL     1       1.892  -2.014   1.166  0.00  0.00    +0.259 A 
ATOM     26  O   UNL     1       2.907  -2.688   1.246  0.00  0.00    -0.267 OA
ATOM     27  N   UNL     1       1.949  -0.671   1.302  0.00  0.00    -0.268 N 
ATOM     28  C   UNL     1       3.148  -0.067   1.531  0.00  0.00    +0.096 A 
ATOM     29  C   UNL     1       3.230   1.275   1.671  0.00  0.00    +0.018 A 
ATOM     30  C   UNL     1       2.074   2.064   1.581  0.00  0.00    +0.005 A 
ATOM     31  C   UNL     1       0.870   1.469   1.354  0.00  0.00    +0.047 A 
ATOM     32  C   UNL     1       0.805   0.071   1.211  0.00  0.00    +0.140 A 
ATOM     33  N   UNL     1      -0.372  -0.512   0.989  0.00  0.00    -0.233 NA
ENDBRANCH  22  23
ENDBRANCH  21  22
ENDBRANCH   6  21
TORSDOF 7
