REMARK  Name = ZINC39963207
REMARK  4 active torsions:
REMARK  status: ('A' for Active; 'I' for Inactive)
REMARK    1  A    between atoms: C_5  and  C_7
REMARK    2  A    between atoms: C_7  and  S_8
REMARK    3  A    between atoms: S_8  and  C_9
REMARK    4  A    between atoms: C_15  and  C_27
REMARK                            x       y       z     vdW  Elec       q    Type
REMARK                         _______ _______ _______ _____ _____    ______ ____
ROOT
ATOM      1  C   UNL     1       1.276  -4.553   1.507  0.00  0.00    +0.182 C 
ATOM      2  N   UNL     1       1.276  -5.077   0.289  0.00  0.00    -0.154 NA
ATOM      3  C   UNL     1       1.315  -6.384   0.087  0.00  0.00    +0.250 C 
ATOM      4  O   UNL     1       1.301  -6.809  -1.052  0.00  0.00    -0.273 OA
ATOM      5  C   UNL     1       1.376  -7.355   1.230  0.00  0.00    +0.152 C 
ATOM      6  C   UNL     1       0.172  -8.298   1.185  0.00  0.00    +0.073 C 
ATOM      7  C   UNL     1       0.025  -9.024   2.503  0.00  0.00    +0.021 C 
ATOM      8  C   UNL     1       0.559  -8.553   3.646  0.00  0.00    +0.016 C 
ATOM      9  C   UNL     1       0.388  -9.296   4.950  0.00  0.00    +0.051 C 
ATOM     10  C   UNL     1      -0.943 -10.051   4.942  0.00  0.00    +0.014 C 
ATOM     11  C   UNL     1      -0.942 -11.015   3.751  0.00  0.00    +0.080 C 
ATOM     12  C   UNL     1      -0.704 -10.231   2.490  0.00  0.00    +0.161 C 
ATOM     13  O   UNL     1      -1.150 -10.646   1.439  0.00  0.00    -0.292 OA
ATOM     14  N   UNL     1       1.289  -7.385   3.675  0.00  0.00    -0.305 N 
ATOM     15  C   UNL     1       1.333  -6.614   2.546  0.00  0.00    +0.115 C 
ATOM     16  N   UNL     1       1.297  -5.319   2.606  0.00  0.00    -0.213 NA
ATOM     17  H   UNL     1       1.767  -7.116   4.475  0.00  0.00    +0.153 HD
ENDROOT
BRANCH   6  18
ATOM     18  C   UNL     1      -1.078  -7.498   0.919  0.00  0.00    -0.036 A 
ATOM     19  C   UNL     1      -1.459  -6.499   1.796  0.00  0.00    +0.004 A 
ATOM     20  C   UNL     1      -2.605  -5.766   1.553  0.00  0.00    +0.003 A 
ATOM     21  C   UNL     1      -3.371  -6.030   0.433  0.00  0.00    +0.038 A 
ATOM     22  C   UNL     1      -2.990  -7.030  -0.445  0.00  0.00    +0.124 A 
ATOM     23  C   UNL     1      -1.839  -7.761  -0.204  0.00  0.00    +0.042 A 
ATOM     24  F   UNL     1      -3.739  -7.290  -1.539  0.00  0.00    -0.205 F 
ENDBRANCH   6  18
BRANCH   1  25
ATOM     25  S   UNL     1       1.254  -2.800   1.685  0.00  0.00    -0.084 S 
BRANCH  25  26
ATOM     26  C   UNL     1       1.229  -2.186  -0.022  0.00  0.00    +0.113 C 
BRANCH  26  31
ATOM     27  C   UNL     1      -0.017   1.378   0.010  0.00  0.00    +0.000 A 
ATOM     28  C   UNL     1       1.171   2.086   0.002  0.00  0.00    +0.001 A 
ATOM     29  C   UNL     1       2.377   1.412  -0.013  0.00  0.00    +0.020 A 
ATOM     30  C   UNL     1       2.397   0.029  -0.021  0.00  0.00    +0.045 A 
ATOM     31  C   UNL     1       1.208  -0.679  -0.013  0.00  0.00    -0.019 A 
ATOM     32  C   UNL     1       0.002  -0.004   0.002  0.00  0.00    +0.006 A 
ATOM     33 CL   UNL     1       3.912  -0.818  -0.041  0.00  0.00    -0.083 Cl
ENDBRANCH  26  31
ENDBRANCH  25  26
ENDBRANCH   1  25
TORSDOF 4
