REMARK  Name = ZINC64610878
REMARK  9 active torsions:
REMARK  status: ('A' for Active; 'I' for Inactive)
REMARK    1  A    between atoms: C_1  and  C_2
REMARK    2  A    between atoms: C_2  and  C_3
REMARK    3  A    between atoms: C_3  and  C_5
REMARK    4  A    between atoms: C_3  and  N_6
REMARK    5  A    between atoms: N_6  and  S_7
REMARK    6  A    between atoms: S_7  and  C_10
REMARK    7  A    between atoms: C_14  and  C_16
REMARK    8  A    between atoms: C_18  and  C_21
REMARK    9  A    between atoms: C_24  and  C_27
REMARK                            x       y       z     vdW  Elec       q    Type
REMARK                         _______ _______ _______ _____ _____    ______ ____
ROOT
ATOM      1  C   UNL     1       1.699   1.739   3.505  0.00  0.00    +0.106 A 
ATOM      2  C   UNL     1       2.990   1.667   3.013  0.00  0.00    +0.028 A 
ATOM      3  C   UNL     1       3.703   2.823   2.752  0.00  0.00    +0.003 A 
ATOM      4  C   UNL     1       3.130   4.057   2.983  0.00  0.00    +0.013 A 
ATOM      5  C   UNL     1       1.829   4.137   3.479  0.00  0.00    +0.041 A 
ATOM      6  C   UNL     1       1.113   2.966   3.735  0.00  0.00    +0.041 A 
ENDROOT
BRANCH   5   7
ATOM      7  C   UNL     1       1.209   5.456   3.729  0.00  0.00    +0.259 A 
ATOM      8  N   UNL     1       1.772   6.623   3.520  0.00  0.00    -0.187 NA
ATOM      9  C   UNL     1       0.924   7.607   3.855  0.00  0.00    +0.202 A 
ATOM     10  N   UNL     1      -0.195   7.074   4.283  0.00  0.00    -0.056 NA
ATOM     11  O   UNL     1      -0.031   5.667   4.203  0.00  0.00    -0.332 OA
BRANCH   9  12
ATOM     12  C   UNL     1       1.206   9.061   3.757  0.00  0.00    +0.022 A 
ATOM     13  C   UNL     1       2.438   9.504   3.279  0.00  0.00    +0.012 A 
ATOM     14  C   UNL     1       2.695  10.857   3.190  0.00  0.00    +0.004 A 
ATOM     15  C   UNL     1       1.733  11.773   3.575  0.00  0.00    -0.050 A 
ATOM     16  C   UNL     1       0.509  11.339   4.050  0.00  0.00    +0.004 A 
ATOM     17  C   UNL     1       0.239   9.988   4.138  0.00  0.00    +0.012 A 
ATOM     18  C   UNL     1       2.020  13.249   3.477  0.00  0.00    +0.044 C 
ENDBRANCH   9  12
ENDBRANCH   5   7
BRANCH   1  19
ATOM     19  S   UNL     1       0.799   0.260   3.833  0.00  0.00    +0.059 S 
ATOM     20  O   UNL     1      -0.191   0.592   4.797  0.00  0.00    -0.153 OA
ATOM     21  O   UNL     1       1.762  -0.762   4.052  0.00  0.00    -0.153 OA
BRANCH  19  22
ATOM     22  N   UNL     1      -0.008  -0.140   2.444  0.00  0.00    -0.187 NA
ATOM     23  H   UNL     1      -0.978  -0.129   2.426  0.00  0.00    +0.148 HD
BRANCH  22  24
ATOM     24  C   UNL     1       0.742  -0.511   1.242  0.00  0.00    +0.073 C 
ATOM     25  C   UNL     1       0.872  -2.034   1.171  0.00  0.00    +0.025 C 
BRANCH  24  27
ATOM     26  C   UNL     1      -0.019   1.526   0.010  0.00  0.00    +0.005 C 
ATOM     27  C   UNL     1       0.002  -0.004   0.002  0.00  0.00    +0.017 C 
ENDBRANCH  24  27
ENDBRANCH  22  24
ENDBRANCH  19  22
ENDBRANCH   1  19
TORSDOF 6
