REMARK  Name = ZINC39690252
REMARK  5 active torsions:
REMARK  status: ('A' for Active; 'I' for Inactive)
REMARK    1  A    between atoms: N_4  and  C_6
REMARK    2  A    between atoms: C_9  and  C_12
REMARK    3  A    between atoms: C_12  and  N_13
REMARK    4  A    between atoms: C_14  and  C_16
REMARK    5  A    between atoms: C_27  and  C_29
REMARK                            x       y       z     vdW  Elec       q    Type
REMARK                         _______ _______ _______ _____ _____    ______ ____
ROOT
ATOM      1  C   UNL     1       3.763  -8.190   2.395  0.00  0.00    +0.100 C 
ATOM      2  C   UNL     1       2.545  -7.935   3.311  0.00  0.00    +0.121 C 
ATOM      3  N   UNL     1       1.877  -9.254   3.421  0.00  0.00    -0.296 N 
ATOM      4  C   UNL     1       2.993 -10.225   3.519  0.00  0.00    +0.115 C 
ATOM      5  C   UNL     1       4.056  -9.693   2.538  0.00  0.00    -0.004 C 
ATOM      6  C   UNL     1       5.455  -9.907   3.108  0.00  0.00    -0.010 C 
ATOM      7  C   UNL     1       5.746 -11.408   3.186  0.00  0.00    -0.082 C 
ATOM      8  N   UNL     1       5.647 -11.998   1.845  0.00  0.00    +0.379 N 
ATOM      9  C   UNL     1       4.274 -11.870   1.342  0.00  0.00    -0.082 C 
ATOM     10  C   UNL     1       3.921 -10.388   1.187  0.00  0.00    -0.010 C 
ATOM     11  C   UNL     1       0.554  -9.512   3.431  0.00  0.00    +0.249 C 
ATOM     12  O   UNL     1       0.157 -10.645   3.623  0.00  0.00    -0.270 OA
ATOM     13  H   UNL     1       6.279 -11.518   1.221  0.00  0.00    -0.086 HD
ATOM     14  H   UNL     1       5.899 -12.974   1.889  0.00  0.00    -0.086 HD
ENDROOT
BRANCH  11  15
ATOM     15  C   UNL     1      -0.413  -8.418   3.209  0.00  0.00    +0.073 A 
ATOM     16  C   UNL     1      -0.144  -7.135   3.689  0.00  0.00    +0.036 A 
ATOM     17  C   UNL     1      -1.052  -6.117   3.477  0.00  0.00    +0.042 A 
ATOM     18  C   UNL     1      -2.229  -6.366   2.789  0.00  0.00    +0.023 A 
ATOM     19  C   UNL     1      -2.503  -7.633   2.311  0.00  0.00    +0.040 A 
ATOM     20  C   UNL     1      -1.600  -8.661   2.511  0.00  0.00    +0.136 A 
ATOM     21  F   UNL     1      -1.866  -9.898   2.038  0.00  0.00    -0.205 F 
ATOM     22 CL   UNL     1      -0.718  -4.522   4.074  0.00  0.00    -0.084 Cl
ENDBRANCH  11  15
BRANCH   1  24
ATOM     23  N   UNL     1       4.396  -7.468   0.116  0.00  0.00    -0.311 N 
ATOM     24  C   UNL     1       3.424  -7.855   0.966  0.00  0.00    +0.218 C 
ATOM     25  O   UNL     1       2.277  -7.934   0.580  0.00  0.00    -0.275 OA
ATOM     26  H   UNL     1       5.314  -7.405   0.425  0.00  0.00    +0.149 HD
BRANCH  23  27
ATOM     27  C   UNL     1       4.067  -7.142  -1.274  0.00  0.00    +0.139 C 
BRANCH  27  31
ATOM     28  C   UNL     1       7.625  -6.006  -3.352  0.00  0.00    +0.046 A 
ATOM     29  C   UNL     1       7.229  -7.337  -3.326  0.00  0.00    +0.026 A 
ATOM     30  C   UNL     1       6.079  -7.701  -2.653  0.00  0.00    +0.007 A 
ATOM     31  C   UNL     1       5.322  -6.741  -2.007  0.00  0.00    -0.030 A 
ATOM     32  C   UNL     1       5.713  -5.415  -2.031  0.00  0.00    +0.007 A 
ATOM     33  C   UNL     1       6.865  -5.046  -2.697  0.00  0.00    +0.026 A 
BRANCH  28  37
ATOM     34  C   UNL     1      10.420  -4.409  -4.860  0.00  0.00    +0.019 A 
ATOM     35  C   UNL     1      10.632  -5.752  -5.231  0.00  0.00    +0.019 A 
ATOM     36  C   UNL     1       9.622  -6.479  -4.712  0.00  0.00    +0.091 A 
ATOM     37  N   UNL     1       8.792  -5.634  -4.033  0.00  0.00    -0.323 N 
ATOM     38  C   UNL     1       9.289  -4.365  -4.128  0.00  0.00    +0.091 A 
ENDBRANCH  28  37
ENDBRANCH  27  31
ENDBRANCH  23  27
ENDBRANCH   1  24
TORSDOF 5
