REMARK  Name = ZINC14548031
REMARK  6 active torsions:
REMARK  status: ('A' for Active; 'I' for Inactive)
REMARK    1  A    between atoms: C_4  and  C_7
REMARK    2  A    between atoms: C_7  and  C_8
REMARK    3  A    between atoms: C_8  and  N_9
REMARK    4  A    between atoms: C_10  and  C_12
REMARK    5  A    between atoms: C_19  and  C_28
REMARK    6  A    between atoms: C_37  and  O_38
REMARK                            x       y       z     vdW  Elec       q    Type
REMARK                         _______ _______ _______ _____ _____    ______ ____
ROOT
ATOM      1  C   UNL     1       2.433   0.936  -0.016  0.00  0.00    +0.058 A 
ATOM      2  C   UNL     1       2.456  -0.456   0.082  0.00  0.00    +0.015 A 
ATOM      3  C   UNL     1       3.662  -1.121   0.065  0.00  0.00    +0.001 A 
ATOM      4  C   UNL     1       4.845  -0.414  -0.049  0.00  0.00    +0.006 A 
ATOM      5  C   UNL     1       4.845   0.970  -0.148  0.00  0.00    -0.019 A 
ATOM      6  C   UNL     1       3.640   1.653  -0.136  0.00  0.00    +0.044 A 
ATOM      7  N   UNL     1       3.570   3.034  -0.221  0.00  0.00    -0.336 N 
ATOM      8  C   UNL     1       4.725   3.605  -0.915  0.00  0.00    +0.109 C 
ATOM      9  C   UNL     1       6.008   3.201  -0.185  0.00  0.00    +0.029 C 
ATOM     10  C   UNL     1       6.168   1.667  -0.271  0.00  0.00    +0.049 C 
ATOM     11  C   UNL     1       6.766   1.435  -1.639  0.00  0.00    -0.023 C 
ATOM     12  C   UNL     1       7.341   2.526  -2.080  0.00  0.00    -0.030 C 
ATOM     13  C   UNL     1       7.213   3.642  -1.062  0.00  0.00    +0.033 C 
ATOM     14  H   UNL     1       2.707   3.325  -0.655  0.00  0.00    +0.147 HD
ENDROOT
BRANCH   8  15
ATOM     15  C   UNL     1       4.609   5.107  -0.933  0.00  0.00    +0.022 A 
ATOM     16  C   UNL     1       4.877   5.823  -2.112  0.00  0.00    -0.009 A 
ATOM     17  C   UNL     1       5.244   5.163  -3.297  0.00  0.00    +0.009 A 
ATOM     18  C   UNL     1       5.491   5.887  -4.423  0.00  0.00    +0.001 A 
ATOM     19  C   UNL     1       5.379   7.276  -4.420  0.00  0.00    +0.001 A 
ATOM     20  C   UNL     1       5.020   7.949  -3.293  0.00  0.00    +0.008 A 
ATOM     21  C   UNL     1       4.758   7.235  -2.111  0.00  0.00    -0.017 A 
ATOM     22  C   UNL     1       4.385   7.897  -0.928  0.00  0.00    +0.012 A 
ATOM     23  C   UNL     1       4.137   7.176   0.199  0.00  0.00    +0.046 A 
ATOM     24  C   UNL     1       4.248   5.782   0.199  0.00  0.00    +0.122 A 
BRANCH  24  25
ATOM     25  O   UNL     1       3.994   5.089   1.340  0.00  0.00    -0.506 OA
ATOM     26  H   UNL     1       4.771   4.957   1.901  0.00  0.00    +0.292 HD
ENDBRANCH  24  25
ENDBRANCH   8  15
BRANCH   1  28
ATOM     27  N   UNL     1      -0.011   0.967  -0.027  0.00  0.00    -0.311 N 
ATOM     28  C   UNL     1       1.147   1.655   0.000  0.00  0.00    +0.246 C 
ATOM     29  O   UNL     1       1.130   2.871   0.038  0.00  0.00    -0.270 OA
ATOM     30  H   UNL     1       0.002  -0.003  -0.057  0.00  0.00    +0.149 HD
BRANCH  27  31
ATOM     31  C   UNL     1      -1.290   1.682  -0.017  0.00  0.00    +0.109 C 
BRANCH  31  32
ATOM     32  C   UNL     1      -2.439   0.673  -0.059  0.00  0.00    +0.054 C 
BRANCH  32  36
ATOM     33  C   UNL     1      -6.167   2.758  -0.030  0.00  0.00    +0.000 A 
ATOM     34  C   UNL     1      -5.552   2.458  -1.232  0.00  0.00    +0.000 A 
ATOM     35  C   UNL     1      -4.346   1.783  -1.241  0.00  0.00    +0.004 A 
ATOM     36  C   UNL     1      -3.754   1.409  -0.049  0.00  0.00    -0.046 A 
ATOM     37  C   UNL     1      -4.372   1.704   1.152  0.00  0.00    +0.004 A 
ATOM     38  C   UNL     1      -5.575   2.384   1.161  0.00  0.00    +0.000 A 
ENDBRANCH  32  36
ENDBRANCH  31  32
ENDBRANCH  27  31
ENDBRANCH   1  28
TORSDOF 6
