REMARK  Name = ZINC39854142
REMARK  7 active torsions:
REMARK  status: ('A' for Active; 'I' for Inactive)
REMARK    1  A    between atoms: C_1  and  C_2
REMARK    2  A    between atoms: C_6  and  O_8
REMARK    3  A    between atoms: O_8  and  C_9
REMARK    4  A    between atoms: C_9  and  C_10
REMARK    5  A    between atoms: C_10  and  C_11
REMARK    6  A    between atoms: C_11  and  N_12
REMARK    7  A    between atoms: N_20  and  O_21
REMARK                            x       y       z     vdW  Elec       q    Type
REMARK                         _______ _______ _______ _____ _____    ______ ____
ROOT
ATOM      1  N   UNL     1       0.116  -6.893   4.943  0.00  0.00    -0.265 N 
ATOM      2  C   UNL     1       1.274  -7.177   5.661  0.00  0.00    +0.046 A 
ATOM      3  C   UNL     1       2.619  -7.020   5.342  0.00  0.00    +0.025 A 
ATOM      4  C   UNL     1       3.594  -7.386   6.247  0.00  0.00    +0.022 A 
ATOM      5  C   UNL     1       3.249  -7.913   7.481  0.00  0.00    +0.042 A 
ATOM      6  C   UNL     1       1.918  -8.076   7.816  0.00  0.00    +0.032 A 
ATOM      7  C   UNL     1       0.930  -7.709   6.910  0.00  0.00    +0.031 A 
ATOM      8  C   UNL     1      -0.551  -7.752   6.954  0.00  0.00    +0.173 C 
ATOM      9  N   UNL     1      -1.305  -8.176   7.928  0.00  0.00    -0.082 NA
ATOM     10  C   UNL     1      -0.987  -7.201   5.645  0.00  0.00    +0.273 C 
ATOM     11  O   UNL     1      -2.136  -7.057   5.274  0.00  0.00    -0.268 OA
ATOM     12 CL   UNL     1       4.489  -8.370   8.607  0.00  0.00    -0.084 Cl
ENDROOT
BRANCH   9  13
ATOM     13  O   UNL     1      -2.715  -8.144   7.797  0.00  0.00    -0.409 OA
ATOM     14  H   UNL     1      -3.189  -8.478   8.571  0.00  0.00    +0.328 HD
ENDBRANCH   9  13
BRANCH   1  15
ATOM     15  C   UNL     1       0.103  -6.324   3.593  0.00  0.00    +0.117 C 
BRANCH  15  16
ATOM     16  C   UNL     1       0.083  -4.796   3.683  0.00  0.00    +0.060 C 
BRANCH  16  17
ATOM     17  C   UNL     1       0.069  -4.202   2.274  0.00  0.00    +0.230 C 
BRANCH  17  18
ATOM     18  O   UNL     1       0.050  -2.776   2.358  0.00  0.00    -0.492 OA
BRANCH  18  24
ATOM     19  C   UNL     1      -0.018   1.503   0.010  0.00  0.00    +0.044 C 
ATOM     20  C   UNL     1       0.002  -0.004   0.002  0.00  0.00    -0.047 A 
ATOM     21  C   UNL     1       0.006  -0.688  -1.200  0.00  0.00    +0.003 A 
ATOM     22  C   UNL     1       0.024  -2.071  -1.211  0.00  0.00    +0.004 A 
ATOM     23  C   UNL     1       0.039  -2.772  -0.020  0.00  0.00    +0.045 A 
ATOM     24  C   UNL     1       0.035  -2.088   1.186  0.00  0.00    +0.121 A 
ATOM     25  C   UNL     1       0.023  -0.700   1.195  0.00  0.00    +0.049 A 
ENDBRANCH  18  24
ENDBRANCH  17  18
ENDBRANCH  16  17
ENDBRANCH  15  16
ENDBRANCH   1  15
TORSDOF 6
