REMARK  Name = ZINC48196063
REMARK  9 active torsions:
REMARK  status: ('A' for Active; 'I' for Inactive)
REMARK    1  A    between atoms: C_1  and  C_2
REMARK    2  A    between atoms: C_5  and  C_27
REMARK    3  A    between atoms: C_6  and  C_8
REMARK    4  A    between atoms: C_14  and  C_17
REMARK    5  A    between atoms: C_17  and  N_18
REMARK    6  A    between atoms: C_20  and  C_23
REMARK    7  A    between atoms: C_23  and  C_24
REMARK    8  A    between atoms: C_23  and  C_25
REMARK    9  A    between atoms: C_23  and  N_26
REMARK                            x       y       z     vdW  Elec       q    Type
REMARK                         _______ _______ _______ _____ _____    ______ ____
ROOT
ATOM      1  C   UNL     1       0.343  -3.130   2.249  0.00  0.00    +0.247 C 
ATOM      2  O   UNL     1       0.397  -4.333   2.085  0.00  0.00    -0.270 OA
ATOM      3  N   UNL     1       0.417  -2.615   3.493  0.00  0.00    -0.297 N 
ATOM      4  C   UNL     1       0.221  -1.177   3.720  0.00  0.00    +0.108 C 
ATOM      5  C   UNL     1      -0.866  -0.990   4.783  0.00  0.00    +0.019 C 
ATOM      6  C   UNL     1      -0.488  -1.779   6.039  0.00  0.00    +0.008 C 
ATOM      7  C   UNL     1      -0.396  -3.268   5.699  0.00  0.00    +0.028 C 
ATOM      8  C   UNL     1       0.691  -3.482   4.647  0.00  0.00    +0.113 C 
ENDROOT
BRANCH   1  14
ATOM      9  C   UNL     1       1.774   0.924  -0.285  0.00  0.00    +0.044 C 
ATOM     10  C   UNL     1       0.880  -0.281  -0.138  0.00  0.00    -0.050 A 
ATOM     11  C   UNL     1      -0.084  -0.547  -1.096  0.00  0.00    +0.003 A 
ATOM     12  C   UNL     1      -0.908  -1.650  -0.969  0.00  0.00    +0.004 A 
ATOM     13  C   UNL     1      -0.775  -2.493   0.116  0.00  0.00    -0.038 A 
ATOM     14  C   UNL     1       0.195  -2.231   1.085  0.00  0.00    +0.040 A 
ATOM     15  C   UNL     1       1.027  -1.119   0.947  0.00  0.00    +0.016 A 
ATOM     16  C   UNL     1      -1.674  -3.695   0.253  0.00  0.00    +0.044 C 
ENDBRANCH   1  14
BRANCH   7  17
ATOM     17  C   UNL     1      -0.051  -4.060   6.961  0.00  0.00    +0.150 C 
BRANCH  17  18
ATOM     18  N   UNL     1      -0.080  -5.494   6.662  0.00  0.00    -0.251 N 
ATOM     19  C   UNL     1       0.927  -6.370   6.881  0.00  0.00    +0.132 A 
ATOM     20  C   UNL     1       0.476  -7.576   6.462  0.00  0.00    +0.071 A 
ATOM     21  N   UNL     1      -0.769  -7.380   6.013  0.00  0.00    -0.136 NA
ATOM     22  N   UNL     1      -1.071  -6.137   6.151  0.00  0.00    -0.065 NA
BRANCH  20  23
ATOM     23  C   UNL     1       1.228  -8.881   6.494  0.00  0.00    -0.030 C 
ATOM     24  C   UNL     1       0.345  -9.993   5.925  0.00  0.00    -0.004 C 
ATOM     25  C   UNL     1       2.499  -8.758   5.651  0.00  0.00    -0.004 C 
BRANCH  23  26
ATOM     26  N   UNL     1       1.589  -9.204   7.881  0.00  0.00    +0.385 N 
ATOM     27  H   UNL     1       0.751  -9.285   8.436  0.00  0.00    -0.089 HD
ATOM     28  H   UNL     1       2.093 -10.078   7.902  0.00  0.00    -0.089 HD
ATOM     29  H   UNL     1       2.172  -8.471   8.256  0.00  0.00    -0.089 HD
ENDBRANCH  23  26
ENDBRANCH  20  23
ENDBRANCH  17  18
ENDBRANCH   7  17
TORSDOF 5
