REMARK  Name = ZINC14747382
REMARK  9 active torsions:
REMARK  status: ('A' for Active; 'I' for Inactive)
REMARK    1  A    between atoms: C_1  and  N_2
REMARK    2  A    between atoms: C_10  and  C_11
REMARK    3  A    between atoms: C_10  and  N_60
REMARK    4  A    between atoms: C_14  and  O_17
REMARK    5  A    between atoms: N_18  and  C_21
REMARK    6  A    between atoms: C_21  and  C_22
REMARK    7  A    between atoms: C_22  and  C_23
REMARK    8  A    between atoms: C_26  and  O_29
REMARK    9  A    between atoms: O_29  and  C_30
REMARK                            x       y       z     vdW  Elec       q    Type
REMARK                         _______ _______ _______ _____ _____    ______ ____
ROOT
ATOM      1  C   UNL     1      -0.406  -5.849  -6.638  0.00  0.00    +0.143 C 
ATOM      2  N   UNL     1      -0.210  -5.336  -5.280  0.00  0.00    -0.227 N 
ATOM      3  C   UNL     1       0.856  -4.605  -4.892  0.00  0.00    +0.246 C 
ATOM      4  O   UNL     1       1.797  -4.260  -5.574  0.00  0.00    -0.273 OA
ATOM      5  C   UNL     1       0.628  -4.306  -3.429  0.00  0.00    +0.112 C 
ATOM      6  C   UNL     1       1.748  -4.903  -2.581  0.00  0.00    +0.017 C 
ATOM      7  C   UNL     1       1.504  -4.561  -1.108  0.00  0.00    -0.076 C 
ATOM      8  C   UNL     1       0.326  -2.528  -1.707  0.00  0.00    -0.076 C 
ATOM      9  C   UNL     1       0.530  -2.801  -3.200  0.00  0.00    +0.017 C 
ATOM     10  N   UNL     1      -0.651  -4.958  -3.125  0.00  0.00    -0.271 N 
ATOM     11  C   UNL     1      -1.065  -5.535  -4.270  0.00  0.00    +0.312 C 
ATOM     12  O   UNL     1      -2.099  -6.165  -4.374  0.00  0.00    -0.252 OA
ATOM     13  N   UNL     1       1.470  -3.091  -0.957  0.00  0.00    +0.382 N 
ATOM     14  H   UNL     1       2.341  -2.697  -1.334  0.00  0.00    -0.081 HD
ENDROOT
BRANCH  13  15
ATOM     15  C   UNL     1       1.362  -2.733   0.472  0.00  0.00    -0.043 C 
BRANCH  15  16
ATOM     16  C   UNL     1       1.548  -1.244   0.614  0.00  0.00    -0.064 A 
ATOM     17  C   UNL     1       0.452  -0.404   0.570  0.00  0.00    +0.005 A 
ATOM     18  C   UNL     1       0.620   0.961   0.700  0.00  0.00    +0.045 A 
ATOM     19  C   UNL     1       1.891   1.489   0.876  0.00  0.00    +0.117 A 
ATOM     20  C   UNL     1       2.990   0.643   0.921  0.00  0.00    +0.045 A 
ATOM     21  C   UNL     1       2.816  -0.721   0.789  0.00  0.00    +0.005 A 
BRANCH  19  22
ATOM     22  O   UNL     1       2.059   2.831   1.005  0.00  0.00    -0.507 OA
ATOM     23  H   UNL     1       2.017   3.147   1.917  0.00  0.00    +0.292 HD
ENDBRANCH  19  22
ENDBRANCH  15  16
ENDBRANCH  13  15
BRANCH  10  24
ATOM     24  C   UNL     1      -1.342  -4.978  -1.833  0.00  0.00    +0.115 C 
BRANCH  24  25
ATOM     25  C   UNL     1      -1.362  -6.407  -1.287  0.00  0.00    +0.054 C 
BRANCH  25  26
ATOM     26  C   UNL     1      -2.037  -6.421   0.060  0.00  0.00    -0.046 A 
ATOM     27  C   UNL     1      -1.288  -6.245   1.209  0.00  0.00    +0.007 A 
ATOM     28  C   UNL     1      -1.905  -6.252   2.445  0.00  0.00    +0.046 A 
ATOM     29  C   UNL     1      -3.276  -6.446   2.534  0.00  0.00    +0.120 A 
ATOM     30  C   UNL     1      -4.024  -6.628   1.380  0.00  0.00    +0.046 A 
ATOM     31  C   UNL     1      -3.403  -6.615   0.146  0.00  0.00    +0.007 A 
BRANCH  29  32
ATOM     32  O   UNL     1      -3.884  -6.458   3.749  0.00  0.00    -0.495 OA
ATOM     33  C   UNL     1      -3.051  -6.265   4.894  0.00  0.00    +0.277 C 
ENDBRANCH  29  32
ENDBRANCH  25  26
ENDBRANCH  24  25
ENDBRANCH  10  24
TORSDOF 7
