REMARK  Name = ZINC12413786
REMARK  18 active torsions:
REMARK  status: ('A' for Active; 'I' for Inactive)
REMARK    1  A    between atoms: C_1  and  C_2
REMARK    2  A    between atoms: C_2  and  O_3
REMARK    3  A    between atoms: O_3  and  C_4
REMARK    4  A    between atoms: C_4  and  C_6
REMARK    5  A    between atoms: C_7  and  C_34
REMARK    6  A    between atoms: C_9  and  C_12
REMARK    7  A    between atoms: C_10  and  O_11
REMARK    8  A    between atoms: C_12  and  C_13
REMARK    9  A    between atoms: C_12  and  C_22
REMARK   10  A    between atoms: C_16  and  O_21
REMARK   11  A    between atoms: C_17  and  O_19
REMARK   12  A    between atoms: O_19  and  C_20
REMARK   13  A    between atoms: C_23  and  O_33
REMARK   14  A    between atoms: C_24  and  C_28
REMARK   15  A    between atoms: C_25  and  C_27
REMARK   16  A    between atoms: C_28  and  O_30
REMARK   17  A    between atoms: O_30  and  C_31
REMARK   18  A    between atoms: C_31  and  C_32
REMARK                            x       y       z     vdW  Elec       q    Type
REMARK                         _______ _______ _______ _____ _____    ______ ____
ROOT
ATOM      1  C   UNL     1      -1.348  -5.238   2.213  0.00  0.00    +0.100 C 
ENDROOT
BRANCH   1   5
ATOM      2  C   UNL     1      -1.248  -2.100   0.003  0.00  0.00    +0.110 A 
ATOM      3  C   UNL     1      -1.286  -2.816  -1.179  0.00  0.00    +0.005 A 
ATOM      4  S   UNL     1      -1.345  -4.462  -0.646  0.00  0.00    -0.093 S 
ATOM      5  C   UNL     1      -1.319  -4.206   1.116  0.00  0.00    +0.045 A 
ATOM      6  C   UNL     1      -1.260  -2.861   1.230  0.00  0.00    +0.142 A 
ATOM      7  C   UNL     1      -1.279  -2.289  -2.591  0.00  0.00    +0.052 C 
BRANCH   2   8
ATOM      8  C   UNL     1      -1.191  -0.632   0.010  0.00  0.00    +0.344 C 
ATOM      9  O   UNL     1      -2.219   0.016   0.023  0.00  0.00    -0.245 OA
BRANCH   8  10
ATOM     10  O   UNL     1       0.002  -0.004   0.002  0.00  0.00    -0.461 OA
BRANCH  10  12
ATOM     11  C   UNL     1       1.418   1.977  -0.001  0.00  0.00    +0.048 C 
ATOM     12  C   UNL     1      -0.018   1.448   0.010  0.00  0.00    +0.229 C 
ENDBRANCH  10  12
ENDBRANCH   8  10
ENDBRANCH   2   8
BRANCH   6  13
ATOM     13  O   UNL     1      -1.219  -2.251   2.446  0.00  0.00    -0.505 OA
ATOM     14  H   UNL     1      -2.089  -2.041   2.810  0.00  0.00    +0.292 HD
ENDBRANCH   6  13
ENDBRANCH   1   5
BRANCH   1  15
ATOM     15  C   UNL     1      -0.153  -6.146   2.080  0.00  0.00    -0.031 A 
ATOM     16  C   UNL     1       0.025  -6.888   0.927  0.00  0.00    +0.008 A 
ATOM     17  C   UNL     1       1.119  -7.723   0.800  0.00  0.00    +0.049 A 
ATOM     18  C   UNL     1       2.042  -7.817   1.830  0.00  0.00    +0.158 A 
ATOM     19  C   UNL     1       1.863  -7.070   2.990  0.00  0.00    +0.162 A 
ATOM     20  C   UNL     1       0.766  -6.232   3.109  0.00  0.00    +0.054 A 
BRANCH  19  21
ATOM     21  O   UNL     1       2.766  -7.159   4.004  0.00  0.00    -0.491 OA
ATOM     22  C   UNL     1       2.518  -6.363   5.165  0.00  0.00    +0.277 C 
ENDBRANCH  19  21
BRANCH  18  23
ATOM     23  O   UNL     1       3.120  -8.637   1.707  0.00  0.00    -0.503 OA
ATOM     24  H   UNL     1       3.895  -8.211   1.316  0.00  0.00    +0.292 HD
ENDBRANCH  18  23
ENDBRANCH   1  15
BRANCH   1  25
ATOM     25  C   UNL     1      -2.612  -6.052   2.104  0.00  0.00    +0.045 A 
ATOM     26  C   UNL     1      -3.597  -6.198   3.016  0.00  0.00    +0.142 A 
ATOM     27  C   UNL     1      -4.709  -7.043   2.648  0.00  0.00    +0.110 A 
ATOM     28  C   UNL     1      -4.661  -7.634   1.401  0.00  0.00    +0.005 A 
ATOM     29  S   UNL     1      -3.165  -7.060   0.744  0.00  0.00    -0.093 S 
ATOM     30  C   UNL     1      -5.668  -8.556   0.764  0.00  0.00    +0.052 C 
BRANCH  27  31
ATOM     31  C   UNL     1      -5.838  -7.267   3.562  0.00  0.00    +0.344 C 
ATOM     32  O   UNL     1      -5.805  -8.190   4.353  0.00  0.00    -0.245 OA
BRANCH  31  33
ATOM     33  O   UNL     1      -6.909  -6.450   3.523  0.00  0.00    -0.461 OA
BRANCH  33  34
ATOM     34  C   UNL     1      -7.987  -6.732   4.454  0.00  0.00    +0.229 C 
ATOM     35  C   UNL     1      -9.107  -5.707   4.263  0.00  0.00    +0.048 C 
ENDBRANCH  33  34
ENDBRANCH  31  33
ENDBRANCH  27  31
BRANCH  26  36
ATOM     36  O   UNL     1      -3.547  -5.574   4.225  0.00  0.00    -0.505 OA
ATOM     37  H   UNL     1      -3.952  -4.696   4.232  0.00  0.00    +0.292 HD
ENDBRANCH  26  36
ENDBRANCH   1  25
TORSDOF 13
