REMARK  Name = ZINC08766945
REMARK  8 active torsions:
REMARK  status: ('A' for Active; 'I' for Inactive)
REMARK    1  A    between atoms: C_1  and  C_2
REMARK    2  A    between atoms: C_2  and  N_3
REMARK    3  A    between atoms: N_3  and  C_4
REMARK    4  A    between atoms: C_4  and  C_5
REMARK    5  A    between atoms: N_12  and  N_13
REMARK    6  A    between atoms: C_14  and  C_15
REMARK    7  A    between atoms: N_22  and  C_23
REMARK    8  A    between atoms: C_23  and  C_24
REMARK                            x       y       z     vdW  Elec       q    Type
REMARK                         _______ _______ _______ _____ _____    ______ ____
ROOT
ATOM      1  N   UNL     1       7.205  -2.661  -4.517  0.00  0.00    -0.300 N 
ATOM      2  C   UNL     1       6.817  -2.444  -3.211  0.00  0.00    +0.224 A 
ATOM      3  N   UNL     1       5.679  -1.808  -2.952  0.00  0.00    -0.181 NA
ATOM      4  C   UNL     1       5.305  -1.599  -1.694  0.00  0.00    +0.221 A 
ATOM      5  N   UNL     1       6.072  -2.021  -0.694  0.00  0.00    -0.180 NA
ATOM      6  C   UNL     1       7.207  -2.662  -0.952  0.00  0.00    +0.241 A 
ATOM      7  N   UNL     1       7.581  -2.872  -2.211  0.00  0.00    -0.180 NA
ATOM      8  N   UNL     1       8.002  -3.106   0.087  0.00  0.00    -0.205 N 
ATOM      9  N   UNL     1       4.123  -0.938  -1.426  0.00  0.00    -0.309 N 
ATOM     10  H   UNL     1       8.832  -3.570  -0.101  0.00  0.00    +0.177 HD
ATOM     11  H   UNL     1       3.566  -0.626  -2.156  0.00  0.00    +0.149 HD
ENDROOT
BRANCH   1  13
ATOM     12  C   UNL     1       8.193  -4.865  -4.901  0.00  0.00    +0.024 C 
ATOM     13  C   UNL     1       8.460  -3.362  -4.802  0.00  0.00    +0.104 C 
ENDBRANCH   1  13
BRANCH   1  14
ATOM     14  C   UNL     1       6.363  -2.190  -5.620  0.00  0.00    +0.104 C 
ATOM     15  C   UNL     1       6.773  -0.767  -6.003  0.00  0.00    +0.024 C 
ENDBRANCH   1  14
BRANCH   8  16
ATOM     16  N   UNL     1       7.608  -2.886   1.413  0.00  0.00    -0.188 NA
ATOM     17  C   UNL     1       8.354  -3.303   2.390  0.00  0.00    +0.139 C 
BRANCH  17  18
ATOM     18  C   UNL     1       7.939  -3.071   3.786  0.00  0.00    +0.008 A 
ATOM     19  C   UNL     1       8.737  -3.523   4.840  0.00  0.00    +0.010 A 
ATOM     20  C   UNL     1       8.346  -3.298   6.143  0.00  0.00    +0.001 A 
ATOM     21  C   UNL     1       7.160  -2.635   6.408  0.00  0.00    +0.001 A 
ATOM     22  C   UNL     1       6.362  -2.189   5.370  0.00  0.00    +0.015 A 
ATOM     23  C   UNL     1       6.743  -2.402   4.061  0.00  0.00    +0.022 A 
ATOM     24  I   UNL     1       5.532  -1.726   2.491  0.00  0.00    -0.043 I 
ENDBRANCH  17  18
ENDBRANCH   8  16
BRANCH   9  25
ATOM     25  C   UNL     1       3.711  -0.707  -0.039  0.00  0.00    +0.139 C 
BRANCH  25  26
ATOM     26  C   UNL     1       2.396   0.029  -0.022  0.00  0.00    -0.030 A 
ATOM     27  C   UNL     1       1.208  -0.679  -0.014  0.00  0.00    +0.005 A 
ATOM     28  C   UNL     1       0.002  -0.004   0.002  0.00  0.00    +0.000 A 
ATOM     29  C   UNL     1      -0.017   1.378   0.010  0.00  0.00    +0.000 A 
ATOM     30  C   UNL     1       1.171   2.086   0.002  0.00  0.00    +0.000 A 
ATOM     31  C   UNL     1       2.377   1.411  -0.014  0.00  0.00    +0.005 A 
ENDBRANCH  25  26
ENDBRANCH   9  25
TORSDOF 6
