REMARK  Name = ZINC07787457
REMARK  7 active torsions:
REMARK  status: ('A' for Active; 'I' for Inactive)
REMARK    1  A    between atoms: C_1  and  C_2
REMARK    2  A    between atoms: C_8  and  C_9
REMARK    3  A    between atoms: C_8  and  N_52
REMARK    4  A    between atoms: N_11  and  C_12
REMARK    5  A    between atoms: C_12  and  C_13
REMARK    6  A    between atoms: C_13  and  N_14
REMARK    7  A    between atoms: C_18  and  C_19
REMARK                            x       y       z     vdW  Elec       q    Type
REMARK                         _______ _______ _______ _____ _____    ______ ____
ROOT
ATOM      1  C   UNL     1      -2.914  -3.993   0.438  0.00  0.00    +0.136 C 
ENDROOT
BRANCH   1   2
ATOM      2  N   UNL     1      -2.631  -2.561   0.321  0.00  0.00    -0.227 N 
ATOM      3  C   UNL     1      -1.376  -2.156   0.221  0.00  0.00    +0.260 C 
ATOM      4  O   UNL     1      -0.449  -2.944   0.222  0.00  0.00    -0.269 OA
ATOM      5  C   UNL     1      -1.158  -0.699   0.112  0.00  0.00    +0.080 C 
ATOM      6  C   UNL     1       0.002  -0.004   0.002  0.00  0.00    +0.029 C 
ATOM      7  S   UNL     1      -2.843  -0.103   0.157  0.00  0.00    -0.026 S 
ATOM      8  C   UNL     1      -3.657  -1.685   0.312  0.00  0.00    +0.286 C 
ATOM      9  O   UNL     1      -4.848  -1.916   0.390  0.00  0.00    -0.262 OA
BRANCH   6  10
ATOM     10  C   UNL     1      -0.009   1.463   0.088  0.00  0.00    -0.005 A 
ATOM     11  C   UNL     1      -1.110   2.127   0.640  0.00  0.00    +0.009 A 
ATOM     12  C   UNL     1      -1.111   3.503   0.722  0.00  0.00    +0.001 A 
ATOM     13  C   UNL     1      -0.031   4.229   0.250  0.00  0.00    +0.001 A 
ATOM     14  C   UNL     1       1.060   3.582  -0.302  0.00  0.00    +0.020 A 
ATOM     15  C   UNL     1       1.080   2.204  -0.387  0.00  0.00    +0.048 A 
ATOM     16 CL   UNL     1       2.449   1.394  -1.081  0.00  0.00    -0.083 Cl
ENDBRANCH   6  10
ENDBRANCH   1   2
BRANCH   1  17
ATOM     17  C   UNL     1      -3.088  -4.594  -0.958  0.00  0.00    +0.123 C 
BRANCH  17  20
ATOM     18  C   UNL     1      -3.563  -6.769  -1.950  0.00  0.00    +0.196 C 
ATOM     19  O   UNL     1      -3.500  -6.250  -3.045  0.00  0.00    -0.278 OA
ATOM     20  N   UNL     1      -3.372  -6.027  -0.841  0.00  0.00    -0.315 N 
ATOM     21  H   UNL     1      -3.421  -6.441   0.034  0.00  0.00    +0.149 HD
BRANCH  18  22
ATOM     22  C   UNL     1      -3.854  -8.242  -1.830  0.00  0.00    +0.019 C 
BRANCH  22  29
ATOM     23  C   UNL     1      -5.362 -12.141  -4.421  0.00  0.00    +0.005 C 
ATOM     24  C   UNL     1      -4.840 -10.705  -4.502  0.00  0.00    -0.031 C 
ATOM     25  C   UNL     1      -3.554 -10.675  -5.333  0.00  0.00    -0.001 C 
ATOM     26  C   UNL     1      -3.006  -9.246  -5.359  0.00  0.00    -0.018 C 
ATOM     27  C   UNL     1      -2.761  -8.773  -3.924  0.00  0.00    -0.078 C 
ATOM     28  C   UNL     1      -4.542 -10.190  -3.092  0.00  0.00    -0.075 C 
ATOM     29  N   UNL     1      -4.041  -8.802  -3.184  0.00  0.00    +0.386 N 
ATOM     30  H   UNL     1      -4.730  -8.232  -3.689  0.00  0.00    -0.081 HD
ENDBRANCH  22  29
ENDBRANCH  18  22
ENDBRANCH  17  20
ENDBRANCH   1  17
TORSDOF 6
