REMARK  Name = ZINC02087087
REMARK  9 active torsions:
REMARK  status: ('A' for Active; 'I' for Inactive)
REMARK    1  A    between atoms: C_1  and  O_2
REMARK    2  A    between atoms: O_2  and  C_3
REMARK    3  A    between atoms: C_5  and  C_12
REMARK    4  A    between atoms: C_7  and  O_10
REMARK    5  A    between atoms: C_8  and  O_9
REMARK    6  A    between atoms: O_10  and  C_11
REMARK    7  A    between atoms: C_24  and  S_27
REMARK    8  A    between atoms: S_27  and  C_28
REMARK    9  A    between atoms: C_28  and  C_29
REMARK                            x       y       z     vdW  Elec       q    Type
REMARK                         _______ _______ _______ _____ _____    ______ ____
ROOT
ATOM      1  C   UNL     1      -0.562   5.916  -1.204  0.00  0.00    +0.294 C 
ATOM      2  N   UNL     1      -0.058   5.267   0.002  0.00  0.00    -0.305 N 
ATOM      3  C   UNL     1       0.001   3.870   0.040  0.00  0.00    +0.039 A 
ATOM      4  C   UNL     1       1.210   3.200   0.035  0.00  0.00    +0.024 A 
ATOM      5  C   UNL     1       1.231   1.817   0.051  0.00  0.00    +0.002 A 
ATOM      6  C   UNL     1       0.049   1.099   0.069  0.00  0.00    +0.001 A 
ATOM      7  C   UNL     1      -1.168   1.754   0.070  0.00  0.00    +0.012 A 
ATOM      8  C   UNL     1      -1.204   3.143   0.068  0.00  0.00    +0.028 A 
ATOM      9  C   UNL     1      -2.482   3.884   0.099  0.00  0.00    +0.156 A 
ATOM     10  C   UNL     1      -2.693   4.949  -0.805  0.00  0.00    +0.248 A 
ATOM     11  N   UNL     1      -3.837   5.609  -0.753  0.00  0.00    -0.184 NA
ATOM     12  C   UNL     1      -4.755   5.251   0.140  0.00  0.00    +0.213 A 
ATOM     13  N   UNL     1      -4.539   4.243   0.976  0.00  0.00    -0.122 NA
ATOM     14  N   UNL     1      -3.438   3.575   0.962  0.00  0.00    -0.141 NA
ATOM     15  O   UNL     1      -1.731   5.273  -1.702  0.00  0.00    -0.449 OA
ATOM     16  H   UNL     1       0.230   5.794   0.763  0.00  0.00    +0.150 HD
ENDROOT
BRANCH   1  19
ATOM     17  C   UNL     1       1.142   5.606  -4.563  0.00  0.00    +0.165 A 
ATOM     18  C   UNL     1       0.161   5.644  -3.584  0.00  0.00    +0.058 A 
ATOM     19  C   UNL     1       0.507   5.876  -2.266  0.00  0.00    +0.018 A 
ATOM     20  C   UNL     1       1.830   6.079  -1.920  0.00  0.00    +0.058 A 
ATOM     21  C   UNL     1       2.817   6.038  -2.892  0.00  0.00    +0.165 A 
ATOM     22  C   UNL     1       2.474   5.804  -4.219  0.00  0.00    +0.201 A 
BRANCH  17  24
ATOM     23  C   UNL     1      -0.586   5.181  -6.141  0.00  0.00    +0.277 C 
ATOM     24  O   UNL     1       0.801   5.376  -5.860  0.00  0.00    -0.491 OA
ENDBRANCH  17  24
BRANCH  22  25
ATOM     25  O   UNL     1       3.439   5.768  -5.177  0.00  0.00    -0.501 OA
ATOM     26  H   UNL     1       3.623   6.627  -5.583  0.00  0.00    +0.292 HD
ENDBRANCH  22  25
BRANCH  21  27
ATOM     27  O   UNL     1       4.119   6.232  -2.550  0.00  0.00    -0.491 OA
ATOM     28  C   UNL     1       4.398   6.467  -1.169  0.00  0.00    +0.277 C 
ENDBRANCH  21  27
ENDBRANCH   1  19
BRANCH  12  29
ATOM     29  S   UNL     1      -6.282   6.127   0.213  0.00  0.00    -0.080 S 
BRANCH  29  30
ATOM     30  C   UNL     1      -7.094   5.230   1.559  0.00  0.00    +0.114 C 
BRANCH  30  31
ATOM     31  C   UNL     1      -8.458   5.822   1.807  0.00  0.00    -0.019 A 
ATOM     32  C   UNL     1      -8.610   6.851   2.718  0.00  0.00    +0.006 A 
ATOM     33  C   UNL     1      -9.859   7.397   2.942  0.00  0.00    +0.000 A 
ATOM     34  C   UNL     1     -10.960   6.909   2.262  0.00  0.00    +0.001 A 
ATOM     35  C   UNL     1     -10.810   5.878   1.355  0.00  0.00    +0.020 A 
ATOM     36  C   UNL     1      -9.559   5.333   1.126  0.00  0.00    +0.045 A 
ATOM     37 CL   UNL     1      -9.370   4.038  -0.014  0.00  0.00    -0.083 Cl
ENDBRANCH  30  31
ENDBRANCH  29  30
ENDBRANCH  12  29
TORSDOF 7
