REMARK  Name = ZINC09912736
REMARK  8 active torsions:
REMARK  status: ('A' for Active; 'I' for Inactive)
REMARK    1  A    between atoms: C_1  and  C_2
REMARK    2  A    between atoms: C_5  and  S_8
REMARK    3  A    between atoms: S_8  and  C_11
REMARK    4  A    between atoms: C_11  and  C_12
REMARK    5  A    between atoms: C_12  and  C_13
REMARK    6  A    between atoms: C_13  and  C_14
REMARK    7  A    between atoms: N_16  and  C_17
REMARK    8  A    between atoms: C_18  and  C_26
REMARK                            x       y       z     vdW  Elec       q    Type
REMARK                         _______ _______ _______ _____ _____    ______ ____
ROOT
ATOM      1  C   UNL     1      -4.399   0.799   2.135  0.00  0.00    +0.082 A 
ATOM      2  C   UNL     1      -3.076   1.156   2.337  0.00  0.00    +0.039 A 
ATOM      3  C   UNL     1      -2.199   1.201   1.182  0.00  0.00    -0.026 A 
ATOM      4  C   UNL     1      -2.761   0.886  -0.007  0.00  0.00    -0.005 A 
ATOM      5  S   UNL     1      -4.454   0.524   0.373  0.00  0.00    -0.077 S 
ATOM      6  C   UNL     1      -2.092   0.853  -1.346  0.00  0.00    +0.043 C 
ATOM      7  C   UNL     1      -0.750   1.591  -1.235  0.00  0.00    +0.005 C 
ATOM      8  C   UNL     1      -0.013   1.086   0.008  0.00  0.00    +0.005 C 
ATOM      9  C   UNL     1      -0.725   1.577   1.269  0.00  0.00    +0.037 C 
ENDROOT
BRANCH   2  10
ATOM     10  C   UNL     1      -2.575   1.480   3.684  0.00  0.00    +0.112 A 
ATOM     11  N   UNL     1      -1.359   1.829   4.052  0.00  0.00    -0.239 NA
ATOM     12  C   UNL     1      -1.042   2.103   5.333  0.00  0.00    +0.079 A 
ATOM     13  C   UNL     1       0.214   2.490   5.858  0.00  0.00    +0.029 A 
ATOM     14  C   UNL     1       0.370   2.727   7.199  0.00  0.00    +0.002 A 
ATOM     15  C   UNL     1      -0.690   2.598   8.086  0.00  0.00    +0.001 A 
ATOM     16  C   UNL     1      -1.931   2.221   7.608  0.00  0.00    +0.017 A 
ATOM     17  C   UNL     1      -2.098   1.981   6.267  0.00  0.00    +0.040 A 
ATOM     18  S   UNL     1      -3.460   1.492   5.237  0.00  0.00    -0.067 S 
ENDBRANCH   2  10
BRANCH   1  21
ATOM     19  C   UNL     1      -6.660   0.321   2.670  0.00  0.00    +0.218 C 
ATOM     20  O   UNL     1      -6.877   0.093   1.499  0.00  0.00    -0.275 OA
ATOM     21  N   UNL     1      -5.425   0.685   3.068  0.00  0.00    -0.279 N 
ATOM     22  H   UNL     1      -5.250   0.868   4.004  0.00  0.00    +0.155 HD
BRANCH  19  23
ATOM     23  C   UNL     1      -7.771   0.197   3.681  0.00  0.00    +0.098 C 
BRANCH  23  24
ATOM     24  C   UNL     1      -9.059  -0.226   2.973  0.00  0.00    +0.032 C 
BRANCH  24  25
ATOM     25  C   UNL     1     -10.187  -0.352   3.999  0.00  0.00    +0.172 C 
BRANCH  25  26
ATOM     26  S   UNL     1     -11.715  -0.854   3.160  0.00  0.00    -0.003 S 
ATOM     27  O   UNL     1     -12.175   0.191   2.315  0.00  0.00    -0.169 OA
ATOM     28  O   UNL     1     -11.590  -2.181   2.668  0.00  0.00    -0.169 OA
BRANCH  26  33
ATOM     29  C   UNL     1     -15.845  -1.220   7.544  0.00  0.00    +0.044 C 
ATOM     30  C   UNL     1     -14.813  -1.129   6.449  0.00  0.00    -0.050 A 
ATOM     31  C   UNL     1     -14.624   0.064   5.776  0.00  0.00    +0.005 A 
ATOM     32  C   UNL     1     -13.678   0.147   4.771  0.00  0.00    +0.027 A 
ATOM     33  C   UNL     1     -12.921  -0.961   4.440  0.00  0.00    +0.088 A 
ATOM     34  C   UNL     1     -13.114  -2.155   5.110  0.00  0.00    +0.027 A 
ATOM     35  C   UNL     1     -14.057  -2.237   6.118  0.00  0.00    +0.005 A 
ENDBRANCH  26  33
ENDBRANCH  25  26
ENDBRANCH  24  25
ENDBRANCH  23  24
ENDBRANCH  19  23
ENDBRANCH   1  21
TORSDOF 7
