REMARK  Name = ZINC38187099
REMARK  6 active torsions:
REMARK  status: ('A' for Active; 'I' for Inactive)
REMARK    1  A    between atoms: C_3  and  O_23
REMARK    2  A    between atoms: C_4  and  C_8
REMARK    3  A    between atoms: N_9  and  N_10
REMARK    4  A    between atoms: C_11  and  C_13
REMARK    5  A    between atoms: C_13  and  C_14
REMARK    6  A    between atoms: C_14  and  C_15
REMARK                            x       y       z     vdW  Elec       q    Type
REMARK                         _______ _______ _______ _____ _____    ______ ____
ROOT
ATOM      1  N   UNL     1       6.029  -0.708  -0.061  0.00  0.00    -0.202 N 
ATOM      2  C   UNL     1       7.187  -0.018  -0.069  0.00  0.00    +0.308 C 
ATOM      3  O   UNL     1       7.170   1.195  -0.062  0.00  0.00    -0.267 OA
ATOM      4  H   UNL     1       6.043  -1.678  -0.066  0.00  0.00    +0.177 HD
ENDROOT
BRANCH   2   5
ATOM      5  C   UNL     1       8.502  -0.753  -0.086  0.00  0.00    +0.394 C 
ATOM      6  F   UNL     1       8.390  -1.927   0.666  0.00  0.00    -0.188 F 
ATOM      7  F   UNL     1       8.840  -1.073  -1.405  0.00  0.00    -0.188 F 
BRANCH   5   8
ATOM      8  C   UNL     1       9.591   0.137   0.518  0.00  0.00    +0.411 C 
ATOM      9  F   UNL     1       9.703   1.312  -0.233  0.00  0.00    -0.189 F 
ATOM     10  F   UNL     1       9.253   0.457   1.837  0.00  0.00    -0.189 F 
BRANCH   8  11
ATOM     11  C   UNL     1      10.927  -0.609   0.501  0.00  0.00    +0.461 C 
ATOM     12  F   UNL     1      11.265  -0.930  -0.818  0.00  0.00    -0.165 F 
ATOM     13  F   UNL     1      11.922   0.204   1.053  0.00  0.00    -0.165 F 
ATOM     14  F   UNL     1      10.815  -1.784   1.252  0.00  0.00    -0.165 F 
ENDBRANCH   8  11
ENDBRANCH   5   8
ENDBRANCH   2   5
BRANCH   1  16
ATOM     15  C   UNL     1       3.692  -0.690  -0.037  0.00  0.00    +0.142 C 
ATOM     16  N   UNL     1       4.806  -0.025  -0.045  0.00  0.00    -0.187 NA
BRANCH  15  20
ATOM     17  C   UNL     1      -0.017   1.381   0.010  0.00  0.00    +0.019 A 
ATOM     18  C   UNL     1       1.166   2.096   0.002  0.00  0.00    +0.047 A 
ATOM     19  C   UNL     1       2.381   1.430  -0.013  0.00  0.00    +0.126 A 
ATOM     20  C   UNL     1       2.405   0.028  -0.021  0.00  0.00    +0.037 A 
ATOM     21  C   UNL     1       1.204  -0.683  -0.013  0.00  0.00    +0.028 A 
ATOM     22  C   UNL     1       0.002  -0.004   0.002  0.00  0.00    +0.019 A 
ATOM     23 BR   UNL     1      -1.625  -0.968   0.012  0.00  0.00    -0.050 Br
BRANCH  19  24
ATOM     24  O   UNL     1       3.543   2.132  -0.021  0.00  0.00    -0.506 OA
ATOM     25  H   UNL     1       3.888   2.331   0.860  0.00  0.00    +0.292 HD
ENDBRANCH  19  24
ENDBRANCH  15  20
ENDBRANCH   1  16
TORSDOF 6
