REMARK  Name = ZINC03216977
REMARK  5 active torsions:
REMARK  status: ('A' for Active; 'I' for Inactive)
REMARK    1  A    between atoms: C_7  and  C_15
REMARK    2  A    between atoms: C_15  and  O_17
REMARK    3  A    between atoms: O_17  and  C_18
REMARK    4  A    between atoms: C_18  and  C_19
REMARK    5  A    between atoms: N_21  and  C_22
REMARK                            x       y       z     vdW  Elec       q    Type
REMARK                         _______ _______ _______ _____ _____    ______ ____
ROOT
ATOM      1  C   UNL     1      -1.425   3.045  -3.577  0.00  0.00    +0.341 C 
ATOM      2  O   UNL     1      -2.487   2.568  -3.922  0.00  0.00    -0.245 OA
ENDROOT
BRANCH   1   9
ATOM      3  C   UNL     1      -2.114   7.246  -3.218  0.00  0.00    +0.001 A 
ATOM      4  C   UNL     1      -2.005   7.877  -1.980  0.00  0.00    +0.002 A 
ATOM      5  C   UNL     1      -1.675   7.176  -0.862  0.00  0.00    +0.028 A 
ATOM      6  C   UNL     1      -1.440   5.791  -0.949  0.00  0.00    +0.072 A 
ATOM      7  C   UNL     1      -1.554   5.154  -2.210  0.00  0.00    +0.015 A 
ATOM      8  C   UNL     1      -1.893   5.907  -3.341  0.00  0.00    +0.011 A 
ATOM      9  C   UNL     1      -1.319   3.760  -2.288  0.00  0.00    +0.073 A 
ATOM     10  C   UNL     1      -0.985   3.080  -1.117  0.00  0.00    -0.012 A 
ATOM     11  C   UNL     1      -0.889   3.778   0.079  0.00  0.00    +0.046 A 
ATOM     12  N   UNL     1      -1.115   5.077   0.126  0.00  0.00    -0.251 NA
ATOM     13  C   UNL     1      -0.517   3.099   1.374  0.00  0.00    +0.056 C 
ATOM     14  C   UNL     1      -0.715   1.589   1.266  0.00  0.00    +0.006 C 
ATOM     15  C   UNL     1       0.013   1.093   0.011  0.00  0.00    +0.005 C 
ATOM     16  C   UNL     1      -0.744   1.597  -1.216  0.00  0.00    +0.038 C 
ENDBRANCH   1   9
BRANCH   1  17
ATOM     17  O   UNL     1      -0.342   2.921  -4.369  0.00  0.00    -0.452 OA
BRANCH  17  18
ATOM     18  C   UNL     1      -0.520   2.205  -5.620  0.00  0.00    +0.328 C 
BRANCH  18  19
ATOM     19  C   UNL     1       0.788   2.167  -6.367  0.00  0.00    +0.255 C 
ATOM     20  O   UNL     1       1.774   2.692  -5.892  0.00  0.00    -0.272 OA
ATOM     21  N   UNL     1       0.864   1.551  -7.564  0.00  0.00    -0.283 N 
ATOM     22  H   UNL     1       0.095   1.074  -7.913  0.00  0.00    +0.155 HD
BRANCH  21  23
ATOM     23  C   UNL     1       2.052   1.599  -8.302  0.00  0.00    +0.034 A 
ATOM     24  C   UNL     1       2.007   1.656  -9.689  0.00  0.00    +0.024 A 
ATOM     25  C   UNL     1       3.181   1.709 -10.414  0.00  0.00    +0.016 A 
ATOM     26  C   UNL     1       4.401   1.694  -9.761  0.00  0.00    +0.013 A 
ATOM     27  C   UNL     1       4.448   1.631  -8.380  0.00  0.00    +0.016 A 
ATOM     28  C   UNL     1       3.278   1.584  -7.649  0.00  0.00    +0.024 A 
ATOM     29  I   UNL     1       6.179   1.766 -10.866  0.00  0.00    -0.044 I 
ENDBRANCH  21  23
ENDBRANCH  18  19
ENDBRANCH  17  18
ENDBRANCH   1  17
TORSDOF 5
