REMARK  Name = ZINC09425739
REMARK  8 active torsions:
REMARK  status: ('A' for Active; 'I' for Inactive)
REMARK    1  A    between atoms: C_1  and  C_2
REMARK    2  A    between atoms: C_4  and  C_29
REMARK    3  A    between atoms: C_6  and  O_8
REMARK    4  A    between atoms: O_8  and  C_9
REMARK    5  A    between atoms: C_9  and  C_10
REMARK    6  A    between atoms: C_13  and  C_24
REMARK    7  A    between atoms: C_13  and  O_28
REMARK    8  A    between atoms: C_15  and  C_17
REMARK                            x       y       z     vdW  Elec       q    Type
REMARK                         _______ _______ _______ _____ _____    ______ ____
ROOT
ATOM      1  C   UNL     1       1.875  -0.273  -1.643  0.00  0.00    +0.275 C 
ATOM      2  O   UNL     1       2.615   0.403  -0.960  0.00  0.00    -0.270 OA
ATOM      3  N   UNL     1       0.611  -0.507  -1.240  0.00  0.00    -0.149 N 
ATOM      4  C   UNL     1       0.002  -0.004   0.002  0.00  0.00    +0.257 C 
ATOM      5  C   UNL     1      -1.433  -0.566  -0.041  0.00  0.00    +0.124 C 
ATOM      6  C   UNL     1      -1.480  -1.343  -1.337  0.00  0.00    +0.071 C 
ATOM      7  N   UNL     1      -0.339  -1.264  -1.929  0.00  0.00    -0.178 NA
ENDROOT
BRANCH   6   8
ATOM      8  C   UNL     1      -2.653  -2.079  -1.845  0.00  0.00    -0.002 A 
ATOM      9  C   UNL     1      -3.841  -2.099  -1.111  0.00  0.00    +0.011 A 
ATOM     10  C   UNL     1      -4.936  -2.783  -1.595  0.00  0.00    +0.016 A 
ATOM     11  C   UNL     1      -4.856  -3.460  -2.800  0.00  0.00    +0.018 A 
ATOM     12  C   UNL     1      -3.680  -3.450  -3.530  0.00  0.00    +0.016 A 
ATOM     13  C   UNL     1      -2.579  -2.764  -3.061  0.00  0.00    +0.011 A 
ATOM     14 BR   UNL     1      -6.360  -4.403  -3.452  0.00  0.00    -0.050 Br
ENDBRANCH   6   8
BRANCH   4  15
ATOM     15  C   UNL     1       0.752  -0.537   1.224  0.00  0.00    +0.438 C 
ATOM     16  F   UNL     1       0.107  -0.112   2.390  0.00  0.00    -0.166 F 
ATOM     17  F   UNL     1       0.772  -1.936   1.186  0.00  0.00    -0.166 F 
ATOM     18  F   UNL     1       2.065  -0.053   1.214  0.00  0.00    -0.166 F 
ENDBRANCH   4  15
BRANCH   4  19
ATOM     19  O   UNL     1      -0.017   1.425   0.010  0.00  0.00    -0.363 OA
ATOM     20  H   UNL     1       0.861   1.830   0.004  0.00  0.00    +0.212 HD
ENDBRANCH   4  19
BRANCH   1  21
ATOM     21  C   UNL     1       2.370  -0.853  -2.943  0.00  0.00    +0.326 C 
BRANCH  21  22
ATOM     22  O   UNL     1       3.731  -0.467  -3.149  0.00  0.00    -0.483 OA
BRANCH  22  28
ATOM     23  C   UNL     1       3.477  -3.005  -7.311  0.00  0.00    +0.044 C 
ATOM     24  C   UNL     1       4.242  -2.148  -6.335  0.00  0.00    -0.047 A 
ATOM     25  C   UNL     1       5.558  -1.812  -6.596  0.00  0.00    +0.007 A 
ATOM     26  C   UNL     1       6.262  -1.025  -5.703  0.00  0.00    -0.047 A 
ATOM     27  C   UNL     1       5.653  -0.574  -4.548  0.00  0.00    +0.049 A 
ATOM     28  C   UNL     1       4.333  -0.910  -4.285  0.00  0.00    +0.122 A 
ATOM     29  C   UNL     1       3.630  -1.704  -5.179  0.00  0.00    +0.049 A 
ATOM     30  C   UNL     1       7.696  -0.660  -5.989  0.00  0.00    +0.044 C 
ENDBRANCH  22  28
ENDBRANCH  21  22
ENDBRANCH   1  21
TORSDOF 6
