REMARK  Name = ZINC38739045
REMARK  7 active torsions:
REMARK  status: ('A' for Active; 'I' for Inactive)
REMARK    1  A    between atoms: C_1  and  C_2
REMARK    2  A    between atoms: C_2  and  C_4
REMARK    3  A    between atoms: C_2  and  N_11
REMARK    4  A    between atoms: C_12  and  C_14
REMARK    5  A    between atoms: C_14  and  S_15
REMARK    6  A    between atoms: S_15  and  C_16
REMARK    7  A    between atoms: C_20  and  C_22
REMARK                            x       y       z     vdW  Elec       q    Type
REMARK                         _______ _______ _______ _____ _____    ______ ____
ROOT
ATOM      1  C   UNL     1       5.288  -1.749   3.608  0.00  0.00    +0.339 C 
ATOM      2  N   UNL     1       4.735  -3.072   3.944  0.00  0.00    -0.219 N 
ATOM      3  N   UNL     1       4.091  -2.908   5.178  0.00  0.00    -0.145 NA
ATOM      4  C   UNL     1       4.206  -1.672   5.585  0.00  0.00    +0.238 C 
ATOM      5  O   UNL     1       4.908  -0.909   4.707  0.00  0.00    -0.443 OA
ATOM      6  H   UNL     1       4.802  -3.886   3.420  0.00  0.00    +0.173 HD
ENDROOT
BRANCH   4   7
ATOM      7  C   UNL     1       3.668  -1.189   6.786  0.00  0.00    +0.043 C 
ATOM      8  C   UNL     1       2.945  -1.910   7.737  0.00  0.00    +0.008 A 
ATOM      9  C   UNL     1       2.542  -3.260   7.806  0.00  0.00    +0.010 A 
ATOM     10  C   UNL     1       1.830  -3.697   8.876  0.00  0.00    +0.001 A 
ATOM     11  C   UNL     1       1.481  -2.840   9.921  0.00  0.00    +0.002 A 
ATOM     12  C   UNL     1       1.834  -1.531   9.922  0.00  0.00    +0.026 A 
ATOM     13  C   UNL     1       2.580  -1.002   8.837  0.00  0.00    +0.043 A 
ATOM     14  N   UNL     1       3.038   0.213   8.603  0.00  0.00    -0.380 N 
ATOM     15  C   UNL     1       3.757   0.222   7.326  0.00  0.00    +0.154 C 
ATOM     16  H   UNL     1       2.921   0.978   9.187  0.00  0.00    +0.160 HD
ENDBRANCH   4   7
BRANCH   1  17
ATOM     17  S   UNL     1       4.566  -1.134   2.062  0.00  0.00    -0.087 S 
BRANCH  17  18
ATOM     18  C   UNL     1       2.783  -1.099   2.395  0.00  0.00    +0.170 C 
BRANCH  18  20
ATOM     19  N   UNL     1       0.711  -0.489   1.189  0.00  0.00    -0.308 N 
ATOM     20  C   UNL     1       2.054  -0.600   1.174  0.00  0.00    +0.223 C 
ATOM     21  O   UNL     1       2.676  -0.297   0.177  0.00  0.00    -0.275 OA
ATOM     22  H   UNL     1       0.213  -0.731   1.986  0.00  0.00    +0.149 HD
BRANCH  19  24
ATOM     23  C   UNL     1      -0.019   1.526   0.010  0.00  0.00    +0.033 C 
ATOM     24  C   UNL     1       0.002  -0.004   0.002  0.00  0.00    +0.100 C 
BRANCH  24  25
ATOM     25  C   UNL     1      -1.412  -0.526   0.013  0.00  0.00    -0.026 A 
ATOM     26  C   UNL     1      -2.123  -0.571   1.198  0.00  0.00    +0.005 A 
ATOM     27  C   UNL     1      -3.420  -1.049   1.208  0.00  0.00    +0.002 A 
ATOM     28  C   UNL     1      -4.006  -1.483   0.034  0.00  0.00    +0.020 A 
ATOM     29  C   UNL     1      -3.295  -1.438  -1.152  0.00  0.00    +0.041 A 
ATOM     30  C   UNL     1      -1.999  -0.954  -1.163  0.00  0.00    +0.025 A 
ATOM     31 CL   UNL     1      -4.031  -1.983  -2.627  0.00  0.00    -0.084 Cl
ENDBRANCH  24  25
ENDBRANCH  19  24
ENDBRANCH  18  20
ENDBRANCH  17  18
ENDBRANCH   1  17
TORSDOF 6
