REMARK  Name = ZINC22304003
REMARK  7 active torsions:
REMARK  status: ('A' for Active; 'I' for Inactive)
REMARK    1  A    between atoms: C_1  and  C_2
REMARK    2  A    between atoms: C_2  and  C_3
REMARK    3  A    between atoms: C_3  and  C_4
REMARK    4  A    between atoms: C_5  and  C_20
REMARK    5  A    between atoms: C_6  and  C_12
REMARK    6  A    between atoms: C_20  and  O_22
REMARK    7  A    between atoms: O_22  and  C_23
REMARK                            x       y       z     vdW  Elec       q    Type
REMARK                         _______ _______ _______ _____ _____    ______ ____
ROOT
ATOM      1  C   UNL     1      -1.657  -2.283  -0.337  0.00  0.00    +0.022 C 
ATOM      2  C   UNL     1      -1.555  -2.742   0.930  0.00  0.00    +0.078 C 
ATOM      3  C   UNL     1      -1.243  -4.211   1.125  0.00  0.00    +0.144 C 
ATOM      4  N   UNL     1      -1.074  -5.024  -0.092  0.00  0.00    -0.315 N 
ATOM      5  C   UNL     1      -1.207  -4.421  -1.290  0.00  0.00    +0.135 C 
ATOM      6  S   UNL     1      -1.014  -5.354  -2.712  0.00  0.00    -0.019 S 
ATOM      7  N   UNL     1      -1.490  -3.117  -1.404  0.00  0.00    -0.300 N 
ATOM      8  H   UNL     1      -0.873  -5.971  -0.032  0.00  0.00    +0.149 HD
ATOM      9  H   UNL     1      -1.576  -2.744  -2.295  0.00  0.00    +0.154 HD
ENDROOT
BRANCH   3  10
ATOM     10  C   UNL     1      -2.356  -4.819   1.939  0.00  0.00    +0.014 A 
ATOM     11  C   UNL     1      -3.428  -5.418   1.305  0.00  0.00    +0.024 A 
ATOM     12  C   UNL     1      -4.449  -5.976   2.052  0.00  0.00    +0.018 A 
ATOM     13  C   UNL     1      -4.399  -5.935   3.434  0.00  0.00    +0.018 A 
ATOM     14  C   UNL     1      -3.328  -5.337   4.069  0.00  0.00    +0.040 A 
ATOM     15  C   UNL     1      -2.302  -4.783   3.321  0.00  0.00    +0.129 A 
ATOM     16  F   UNL     1      -1.252  -4.202   3.942  0.00  0.00    -0.205 F 
ATOM     17 BR   UNL     1      -5.916  -6.796   1.183  0.00  0.00    -0.050 Br
ENDBRANCH   3  10
BRANCH   2  18
ATOM     18  C   UNL     1      -1.734  -1.879   2.036  0.00  0.00    +0.339 C 
ATOM     19  O   UNL     1      -0.766  -1.448   2.634  0.00  0.00    -0.245 OA
BRANCH  18  20
ATOM     20  O   UNL     1      -2.978  -1.535   2.429  0.00  0.00    -0.465 OA
ATOM     21  C   UNL     1      -3.084  -0.660   3.554  0.00  0.00    +0.280 C 
ENDBRANCH  18  20
ENDBRANCH   2  18
BRANCH   1  22
ATOM     22  C   UNL     1      -1.967  -0.828  -0.576  0.00  0.00    +0.051 C 
BRANCH  22  24
ATOM     23  C   UNL     1      -0.974   1.433  -0.959  0.00  0.00    +0.004 C 
ATOM     24  C   UNL     1      -0.660  -0.045  -0.717  0.00  0.00    +0.002 C 
ENDBRANCH  22  24
ENDBRANCH   1  22
TORSDOF 5
