REMARK  Name = ZINC39456092
REMARK  6 active torsions:
REMARK  status: ('A' for Active; 'I' for Inactive)
REMARK    1  A    between atoms: C_1  and  C_2
REMARK    2  A    between atoms: C_2  and  O_3
REMARK    3  A    between atoms: O_3  and  C_4
REMARK    4  A    between atoms: N_24  and  O_25
REMARK    5  A    between atoms: O_25  and  C_26
REMARK    6  A    between atoms: C_26  and  C_27
REMARK                            x       y       z     vdW  Elec       q    Type
REMARK                         _______ _______ _______ _____ _____    ______ ____
ROOT
ATOM      1  C   UNL     1      -1.432  -1.925   0.005  0.00  0.00    +0.211 C 
ATOM      2  C   UNL     1      -2.884  -2.349   0.253  0.00  0.00    +0.133 C 
ATOM      3  C   UNL     1      -3.725  -1.967  -0.937  0.00  0.00    +0.189 C 
ATOM      4  O   UNL     1      -4.900  -1.700  -0.782  0.00  0.00    -0.290 OA
ATOM      5  C   UNL     1      -3.160  -1.916  -2.232  0.00  0.00    +0.150 A 
ATOM      6  C   UNL     1      -1.812  -2.160  -2.403  0.00  0.00    +0.086 A 
ATOM      7  C   UNL     1      -1.223  -2.113  -3.752  0.00  0.00    +0.100 A 
ATOM      8  C   UNL     1      -2.079  -1.804  -4.842  0.00  0.00    +0.070 A 
ATOM      9  C   UNL     1      -1.575  -1.744  -6.133  0.00  0.00    +0.026 A 
ATOM     10  C   UNL     1      -0.206  -1.998  -6.313  0.00  0.00    +0.014 A 
ATOM     11  C   UNL     1       0.616  -2.312  -5.142  0.00  0.00    +0.073 A 
ATOM     12  N   UNL     1       0.063  -2.352  -3.930  0.00  0.00    -0.245 NA
ATOM     13  C   UNL     1       1.987  -2.566  -5.333  0.00  0.00    +0.028 A 
ATOM     14  C   UNL     1       2.512  -2.513  -6.587  0.00  0.00    +0.003 A 
ATOM     15  C   UNL     1       1.729  -2.213  -7.698  0.00  0.00    +0.015 A 
ATOM     16  C   UNL     1       0.396  -1.958  -7.582  0.00  0.00    +0.023 A 
ATOM     17  I   UNL     1      -0.747  -1.510  -9.280  0.00  0.00    -0.043 I 
ATOM     18  C   UNL     1      -3.503  -1.549  -4.574  0.00  0.00    +0.293 A 
ATOM     19  O   UNL     1      -4.256  -1.281  -5.493  0.00  0.00    -0.264 OA
ATOM     20  N   UNL     1      -3.976  -1.611  -3.317  0.00  0.00    -0.138 N 
ATOM     21  N   UNL     1      -1.018  -2.443  -1.308  0.00  0.00    -0.315 N 
ATOM     22  H   UNL     1      -0.209  -2.970  -1.402  0.00  0.00    +0.149 HD
ENDROOT
BRANCH   1  23
ATOM     23  O   UNL     1      -1.339  -0.499   0.012  0.00  0.00    -0.359 OA
BRANCH  23  25
ATOM     24  C   UNL     1      -0.019   1.526   0.010  0.00  0.00    +0.034 C 
ATOM     25  C   UNL     1       0.002  -0.004   0.002  0.00  0.00    +0.159 C 
ENDBRANCH  23  25
ENDBRANCH   1  23
BRANCH  20  26
ATOM     26  O   UNL     1      -5.350  -1.358  -3.090  0.00  0.00    -0.408 OA
BRANCH  26  27
ATOM     27  C   UNL     1      -5.654   0.015  -2.836  0.00  0.00    +0.257 C 
ATOM     28  C   UNL     1      -7.159   0.169  -2.606  0.00  0.00    +0.051 C 
ENDBRANCH  26  27
ENDBRANCH  20  26
TORSDOF 4
