REMARK  Name = ZINC12497405
REMARK  11 active torsions:
REMARK  status: ('A' for Active; 'I' for Inactive)
REMARK    1  A    between atoms: C_1  and  C_2
REMARK    2  A    between atoms: C_2  and  O_3
REMARK    3  A    between atoms: O_3  and  C_4
REMARK    4  A    between atoms: C_4  and  C_6
REMARK    5  A    between atoms: C_6  and  C_34
REMARK    6  A    between atoms: C_11  and  C_13
REMARK    7  A    between atoms: C_16  and  N_19
REMARK    8  A    between atoms: N_19  and  C_20
REMARK    9  A    between atoms: N_19  and  C_21
REMARK   10  A    between atoms: N_24  and  C_27
REMARK   11  A    between atoms: C_30  and  C_33
REMARK                            x       y       z     vdW  Elec       q    Type
REMARK                         _______ _______ _______ _____ _____    ______ ____
ROOT
ATOM      1  C   UNL     1      -0.014   1.524   0.020  0.00  0.00    +0.070 C 
ATOM      2  C   UNL     1      -0.003   0.005  -0.003  0.00  0.00    +0.090 C 
ATOM      3  C   UNL     1       1.289  -0.205  -0.884  0.00  0.00    +0.078 C 
ATOM      4  C   UNL     1       2.249   0.696  -0.220  0.00  0.00    -0.026 C 
ATOM      5  C   UNL     1       1.144  -1.595  -1.266  0.00  0.00    +0.229 C 
ATOM      6  O   UNL     1       2.031  -2.404  -1.432  0.00  0.00    -0.275 OA
ATOM      7  N   UNL     1      -0.208  -1.802  -1.386  0.00  0.00    -0.210 N 
ATOM      8  C   UNL     1      -0.947  -0.779  -0.859  0.00  0.00    +0.229 C 
ATOM      9  O   UNL     1      -2.123  -0.553  -1.046  0.00  0.00    -0.275 OA
ATOM     10  N   UNL     1       1.420   1.920   0.008  0.00  0.00    +0.398 N 
ATOM     11  H   UNL     1       1.669   2.344   0.909  0.00  0.00    -0.083 HD
ATOM     12  H   UNL     1       1.586   2.597  -0.746  0.00  0.00    -0.083 HD
ENDROOT
BRANCH   7  13
ATOM     13  C   UNL     1      -0.771  -2.938  -1.984  0.00  0.00    +0.044 A 
ATOM     14  C   UNL     1      -2.150  -3.073  -2.061  0.00  0.00    +0.024 A 
ATOM     15  C   UNL     1      -2.701  -4.191  -2.656  0.00  0.00    +0.005 A 
ATOM     16  C   UNL     1      -1.880  -5.181  -3.164  0.00  0.00    -0.050 A 
ATOM     17  C   UNL     1      -0.506  -5.052  -3.085  0.00  0.00    +0.005 A 
ATOM     18  C   UNL     1       0.051  -3.933  -2.496  0.00  0.00    +0.024 A 
ATOM     19  C   UNL     1      -2.485  -6.403  -3.807  0.00  0.00    +0.044 C 
ENDBRANCH   7  13
BRANCH   4  20
ATOM     20  C   UNL     1       3.419   0.992  -1.123  0.00  0.00    -0.060 A 
ATOM     21  C   UNL     1       3.295   1.938  -2.125  0.00  0.00    +0.004 A 
ATOM     22  C   UNL     1       4.366   2.216  -2.951  0.00  0.00    +0.023 A 
ATOM     23  C   UNL     1       5.566   1.537  -2.782  0.00  0.00    +0.029 A 
ATOM     24  C   UNL     1       5.685   0.583  -1.779  0.00  0.00    +0.023 A 
ATOM     25  C   UNL     1       4.612   0.314  -0.953  0.00  0.00    +0.004 A 
BRANCH  23  26
ATOM     26  N   UNL     1       6.649   1.812  -3.619  0.00  0.00    -0.336 N 
ATOM     27  C   UNL     1       7.950   1.188  -3.362  0.00  0.00    +0.129 C 
ATOM     28  C   UNL     1       6.486   2.724  -4.753  0.00  0.00    +0.129 C 
ENDBRANCH  23  26
ENDBRANCH   4  20
BRANCH   1  29
ATOM     29  C   UNL     1      -0.688   2.022   1.272  0.00  0.00    -0.047 A 
ATOM     30  C   UNL     1      -1.692   1.275   1.860  0.00  0.00    +0.003 A 
ATOM     31  C   UNL     1      -2.308   1.730   3.011  0.00  0.00    +0.000 A 
ATOM     32  C   UNL     1      -1.926   2.936   3.569  0.00  0.00    +0.000 A 
ATOM     33  C   UNL     1      -0.926   3.685   2.978  0.00  0.00    +0.000 A 
ATOM     34  C   UNL     1      -0.307   3.228   1.830  0.00  0.00    +0.003 A 
ENDBRANCH   1  29
BRANCH   1  35
ATOM     35  C   UNL     1      -0.717   2.059  -1.201  0.00  0.00    +0.301 C 
ATOM     36  O   UNL     1      -1.539   1.382  -1.771  0.00  0.00    -0.252 OA
BRANCH  35  37
ATOM     37  O   UNL     1      -0.429   3.289  -1.655  0.00  0.00    -0.466 OA
BRANCH  37  39
ATOM     38  C   UNL     1      -0.686   5.153  -3.201  0.00  0.00    +0.048 C 
ATOM     39  C   UNL     1      -1.144   3.740  -2.836  0.00  0.00    +0.228 C 
ENDBRANCH  37  39
ENDBRANCH  35  37
ENDBRANCH   1  35
TORSDOF 7
