REMARK  Name = ZINC53111583
REMARK  4 active torsions:
REMARK  status: ('A' for Active; 'I' for Inactive)
REMARK    1  A    between atoms: C_1  and  C_2
REMARK    2  A    between atoms: C_7  and  C_9
REMARK    3  A    between atoms: C_7  and  N_11
REMARK    4  A    between atoms: C_9  and  O_10
REMARK                            x       y       z     vdW  Elec       q    Type
REMARK                         _______ _______ _______ _____ _____    ______ ____
ROOT
ATOM      1  N   UNL     1       2.256   1.486   1.044  0.00  0.00    -0.226 N 
ATOM      2  C   UNL     1       1.882   2.236   2.096  0.00  0.00    +0.254 C 
ATOM      3  O   UNL     1       1.512   1.813   3.173  0.00  0.00    -0.270 OA
ATOM      4  C   UNL     1       1.996   3.662   1.722  0.00  0.00    +0.049 A 
ATOM      5  C   UNL     1       1.754   4.857   2.380  0.00  0.00    +0.014 A 
ATOM      6  C   UNL     1       1.970   6.059   1.723  0.00  0.00    +0.001 A 
ATOM      7  C   UNL     1       2.424   6.072   0.418  0.00  0.00    +0.001 A 
ATOM      8  C   UNL     1       2.670   4.884  -0.253  0.00  0.00    +0.014 A 
ATOM      9  C   UNL     1       2.459   3.675   0.391  0.00  0.00    +0.049 A 
ATOM     10  C   UNL     1       2.615   2.258   0.003  0.00  0.00    +0.254 C 
ATOM     11  O   UNL     1       3.001   1.857  -1.077  0.00  0.00    -0.270 OA
ENDROOT
BRANCH   1  17
ATOM     12  C   UNL     1      -0.231   1.518   0.803  0.00  0.00    +0.007 C 
ATOM     13  C   UNL     1      -0.210  -0.011   0.795  0.00  0.00    -0.012 C 
ATOM     14  C   UNL     1      -0.064  -0.511  -0.644  0.00  0.00    +0.003 C 
ATOM     15  C   UNL     1       1.242   0.020  -1.238  0.00  0.00    +0.002 C 
ATOM     16  C   UNL     1       2.423  -0.479  -0.402  0.00  0.00    +0.029 C 
ATOM     17  C   UNL     1       2.276   0.021   1.036  0.00  0.00    +0.069 C 
ATOM     18  C   UNL     1       0.970  -0.510   1.631  0.00  0.00    +0.032 C 
BRANCH  17  19
ATOM     19  C   UNL     1       3.457  -0.478   1.872  0.00  0.00    +0.182 C 
BRANCH  19  20
ATOM     20  O   UNL     1       4.665   0.111   1.389  0.00  0.00    -0.393 OA
ATOM     21  H   UNL     1       5.457  -0.161   1.873  0.00  0.00    +0.209 HD
ENDBRANCH  19  20
ENDBRANCH  17  19
ENDBRANCH   1  17
TORSDOF 3
