REMARK  Name = ZINC21628473
REMARK  14 active torsions:
REMARK  status: ('A' for Active; 'I' for Inactive)
REMARK    1  A    between atoms: C_1  and  C_2
REMARK    2  A    between atoms: C_4  and  C_32
REMARK    3  A    between atoms: C_6  and  O_8
REMARK    4  A    between atoms: O_8  and  C_9
REMARK    5  A    between atoms: C_9  and  C_10
REMARK    6  A    between atoms: C_13  and  S_16
REMARK    7  A    between atoms: N_14  and  N_15
REMARK    8  A    between atoms: S_16  and  C_17
REMARK    9  A    between atoms: C_17  and  C_19
REMARK   10  A    between atoms: C_17  and  C_20
REMARK   11  A    between atoms: N_22  and  C_23
REMARK   12  A    between atoms: C_28  and  C_29
REMARK   13  A    between atoms: C_29  and  C_30
REMARK   14  A    between atoms: C_29  and  C_31
REMARK                            x       y       z     vdW  Elec       q    Type
REMARK                         _______ _______ _______ _____ _____    ______ ____
ROOT
ATOM      1  C   UNL     1       5.846   3.092  -0.997  0.00  0.00    +0.189 A 
ATOM      2  N   UNL     1       5.006   3.931  -0.460  0.00  0.00    -0.128 NA
ATOM      3  N   UNL     1       3.861   3.369  -0.302  0.00  0.00    -0.121 NA
ATOM      4  C   UNL     1       3.909   2.130  -0.732  0.00  0.00    +0.209 A 
ATOM      5  N   UNL     1       5.179   1.912  -1.184  0.00  0.00    -0.225 N 
ENDROOT
BRANCH   5   6
ATOM      6  N   UNL     1       5.679   0.758  -1.716  0.00  0.00    -0.295 N 
ATOM      7  H   UNL     1       5.034  -0.128  -1.812  0.00  0.00    +0.163 HD
ATOM      8  H   UNL     1       6.727   0.713  -2.047  0.00  0.00    +0.163 HD
ENDBRANCH   5   6
BRANCH   1   9
ATOM      9  C   UNL     1       7.287   3.368  -1.342  0.00  0.00    +0.306 C 
BRANCH   9  10
ATOM     10  O   UNL     1       8.114   3.043  -0.223  0.00  0.00    -0.484 OA
BRANCH  10  16
ATOM     11  C   UNL     1      11.866   4.455  -3.007  0.00  0.00    +0.044 C 
ATOM     12  C   UNL     1      11.317   3.921  -1.710  0.00  0.00    -0.047 A 
ATOM     13  C   UNL     1      12.174   3.627  -0.666  0.00  0.00    +0.007 A 
ATOM     14  C   UNL     1      11.673   3.138   0.526  0.00  0.00    -0.047 A 
ATOM     15  C   UNL     1      10.314   2.941   0.677  0.00  0.00    +0.049 A 
ATOM     16  C   UNL     1       9.452   3.236  -0.369  0.00  0.00    +0.122 A 
ATOM     17  C   UNL     1       9.957   3.721  -1.566  0.00  0.00    +0.049 A 
ATOM     18  C   UNL     1      12.611   2.819   1.663  0.00  0.00    +0.044 C 
ENDBRANCH  10  16
ENDBRANCH   9  10
ENDBRANCH   1   9
BRANCH   4  19
ATOM     19  S   UNL     1       2.587   0.965  -0.722  0.00  0.00    -0.072 S 
BRANCH  19  20
ATOM     20  C   UNL     1       1.281   1.979   0.014  0.00  0.00    +0.137 C 
ATOM     21  C   UNL     1       1.661   2.334   1.453  0.00  0.00    +0.029 C 
BRANCH  20  22
ATOM     22  C   UNL     1      -0.014   1.208   0.012  0.00  0.00    +0.230 C 
ATOM     23  O   UNL     1       0.002  -0.005   0.001  0.00  0.00    -0.274 OA
ATOM     24  N   UNL     1      -1.190   1.866   0.017  0.00  0.00    -0.284 N 
ATOM     25  H   UNL     1      -1.206   2.963   0.103  0.00  0.00    +0.155 HD
BRANCH  24  26
ATOM     26  C   UNL     1      -2.391   1.155  -0.086  0.00  0.00    +0.037 A 
ATOM     27  C   UNL     1      -2.510  -0.099   0.499  0.00  0.00    +0.023 A 
ATOM     28  C   UNL     1      -3.697  -0.796   0.399  0.00  0.00    +0.002 A 
ATOM     29  C   UNL     1      -4.764  -0.252  -0.292  0.00  0.00    +0.000 A 
ATOM     30  C   UNL     1      -4.648   0.994  -0.880  0.00  0.00    +0.006 A 
ATOM     31  C   UNL     1      -3.464   1.699  -0.779  0.00  0.00    -0.024 A 
BRANCH  31  32
ATOM     32  C   UNL     1      -3.338   3.057  -1.421  0.00  0.00    +0.015 C 
ATOM     33  C   UNL     1      -3.688   2.953  -2.907  0.00  0.00    +0.012 C 
ATOM     34  C   UNL     1      -4.296   4.035  -0.738  0.00  0.00    +0.012 C 
ENDBRANCH  31  32
ENDBRANCH  24  26
ENDBRANCH  20  22
ENDBRANCH  19  20
ENDBRANCH   4  19
TORSDOF 9
