REMARK  Name = ZINC21247180
REMARK  10 active torsions:
REMARK  status: ('A' for Active; 'I' for Inactive)
REMARK    1  A    between atoms: C_1  and  C_2
REMARK    2  A    between atoms: C_3  and  C_32
REMARK    3  A    between atoms: C_11  and  C_13
REMARK    4  A    between atoms: C_13  and  S_14
REMARK    5  A    between atoms: S_14  and  C_15
REMARK    6  A    between atoms: C_18  and  C_24
REMARK    7  A    between atoms: N_19  and  C_20
REMARK    8  A    between atoms: C_20  and  C_21
REMARK    9  A    between atoms: C_21  and  C_22
REMARK   10  A    between atoms: C_21  and  C_23
REMARK                            x       y       z     vdW  Elec       q    Type
REMARK                         _______ _______ _______ _____ _____    ______ ____
ROOT
ATOM      1  C   UNL     1       0.109  -6.005   5.486  0.00  0.00    +0.192 A 
ATOM      2  N   UNL     1       0.124  -5.715   6.768  0.00  0.00    -0.122 NA
ATOM      3  N   UNL     1       0.174  -6.795   7.463  0.00  0.00    -0.128 NA
ATOM      4  C   UNL     1       0.194  -7.840   6.668  0.00  0.00    +0.166 A 
ATOM      5  N   UNL     1       0.147  -7.366   5.378  0.00  0.00    -0.302 N 
ENDROOT
BRANCH   4   6
ATOM      6  C   UNL     1       0.250  -9.258   7.082  0.00  0.00    +0.038 A 
ATOM      7  C   UNL     1      -0.644 -10.182   6.540  0.00  0.00    +0.014 A 
ATOM      8  C   UNL     1      -0.587 -11.504   6.930  0.00  0.00    +0.021 A 
ATOM      9  C   UNL     1       0.356 -11.915   7.858  0.00  0.00    +0.042 A 
ATOM     10  C   UNL     1       1.246 -11.004   8.400  0.00  0.00    +0.040 A 
ATOM     11  C   UNL     1       1.202  -9.679   8.014  0.00  0.00    +0.053 A 
ATOM     12 CL   UNL     1       2.324  -8.539   8.688  0.00  0.00    -0.083 Cl
ATOM     13 CL   UNL     1       0.421 -13.581   8.343  0.00  0.00    -0.083 Cl
ENDBRANCH   4   6
BRANCH   1  14
ATOM     14  S   UNL     1       0.044  -4.852   4.155  0.00  0.00    -0.078 S 
BRANCH  14  15
ATOM     15  C   UNL     1       0.015  -3.235   4.976  0.00  0.00    +0.151 C 
BRANCH  15  26
ATOM     16  C   UNL     1      -0.239   2.225   1.093  0.00  0.00    +0.045 C 
ATOM     17  C   UNL     1      -0.199   0.732   0.897  0.00  0.00    -0.026 A 
ATOM     18  C   UNL     1      -0.207   0.209  -0.340  0.00  0.00    -0.008 A 
ATOM     19  S   UNL     1      -0.150  -1.549  -0.046  0.00  0.00    -0.073 S 
ATOM     20  C   UNL     1      -0.116  -1.530   1.728  0.00  0.00    +0.116 A 
ATOM     21  C   UNL     1      -0.145  -0.159   2.041  0.00  0.00    +0.075 A 
ATOM     22  C   UNL     1      -0.123   0.158   3.439  0.00  0.00    +0.260 A 
ATOM     23  O   UNL     1      -0.149   1.318   3.811  0.00  0.00    -0.267 OA
ATOM     24  N   UNL     1      -0.071  -0.846   4.334  0.00  0.00    -0.310 N 
ATOM     25  H   UNL     1      -0.056  -0.638   5.281  0.00  0.00    +0.170 HD
ATOM     26  C   UNL     1      -0.042  -2.145   3.937  0.00  0.00    +0.121 A 
ATOM     27  N   UNL     1      -0.071  -2.466   2.671  0.00  0.00    -0.226 NA
ATOM     28  C   UNL     1      -0.255   0.934  -1.660  0.00  0.00    +0.052 C 
ENDBRANCH  15  26
ENDBRANCH  14  15
ENDBRANCH   1  14
BRANCH   5  29
ATOM     29  C   UNL     1       0.142  -8.156   4.144  0.00  0.00    +0.129 C 
BRANCH  29  30
ATOM     30  C   UNL     1       1.580  -8.509   3.759  0.00  0.00    +0.003 C 
ATOM     31  C   UNL     1       1.569  -9.438   2.543  0.00  0.00    +0.009 C 
ATOM     32  C   UNL     1       2.345  -7.229   3.416  0.00  0.00    +0.009 C 
ENDBRANCH  29  30
ENDBRANCH   5  29
TORSDOF 6
