REMARK  Name = ZINC52552715
REMARK  6 active torsions:
REMARK  status: ('A' for Active; 'I' for Inactive)
REMARK    1  A    between atoms: C_1  and  C_2
REMARK    2  A    between atoms: C_4  and  S_24
REMARK    3  A    between atoms: C_6  and  N_9
REMARK    4  A    between atoms: C_7  and  C_8
REMARK    5  A    between atoms: C_10  and  C_12
REMARK    6  A    between atoms: S_24  and  N_27
REMARK                            x       y       z     vdW  Elec       q    Type
REMARK                         _______ _______ _______ _____ _____    ______ ____
ROOT
ATOM      1  N   UNL     1       0.052  -2.797   2.393  0.00  0.00    -0.285 N 
ATOM      2  C   UNL     1      -0.031  -4.143   2.385  0.00  0.00    +0.224 C 
ATOM      3  O   UNL     1      -0.028  -4.745   1.333  0.00  0.00    -0.275 OA
ATOM      4  H   UNL     1       0.130  -2.321   3.234  0.00  0.00    +0.155 HD
ENDROOT
BRANCH   2   5
ATOM      5  C   UNL     1      -0.129  -4.898   3.686  0.00  0.00    +0.117 C 
ATOM      6  C   UNL     1      -0.225  -6.400   3.403  0.00  0.00    +0.055 C 
ATOM      7  C   UNL     1      -0.617  -7.129   4.664  0.00  0.00    -0.004 A 
ATOM      8  C   UNL     1      -0.400  -8.495   4.738  0.00  0.00    +0.027 A 
ATOM      9  C   UNL     1      -0.750  -9.196   5.876  0.00  0.00    +0.041 A 
ATOM     10  C   UNL     1      -1.321  -8.532   6.948  0.00  0.00    +0.023 A 
ATOM     11  C   UNL     1      -1.538  -7.172   6.879  0.00  0.00    +0.047 A 
ATOM     12  C   UNL     1      -1.184  -6.463   5.736  0.00  0.00    +0.124 A 
ATOM     13  O   UNL     1      -1.404  -5.122   5.710  0.00  0.00    -0.491 OA
ATOM     14  C   UNL     1      -1.392  -4.467   4.441  0.00  0.00    +0.242 C 
ATOM     15 CL   UNL     1      -0.473 -10.908   5.962  0.00  0.00    -0.084 Cl
ENDBRANCH   2   5
BRANCH   1  21
ATOM     16  C   UNL     1       1.206   1.236  -0.172  0.00  0.00    +0.044 C 
ATOM     17  C   UNL     1       0.577  -0.131  -0.084  0.00  0.00    -0.044 A 
ATOM     18  C   UNL     1      -0.027  -0.686  -1.198  0.00  0.00    +0.032 A 
ATOM     19  C   UNL     1      -0.605  -1.940  -1.122  0.00  0.00    +0.107 A 
ATOM     20  C   UNL     1      -0.580  -2.642   0.067  0.00  0.00    +0.052 A 
ATOM     21  C   UNL     1       0.026  -2.088   1.187  0.00  0.00    +0.038 A 
ATOM     22  C   UNL     1       0.610  -0.831   1.106  0.00  0.00    -0.026 A 
ATOM     23  C   UNL     1       1.274  -0.228   2.317  0.00  0.00    +0.046 C 
BRANCH  19  24
ATOM     24  S   UNL     1      -1.374  -2.642  -2.543  0.00  0.00    +0.056 S 
ATOM     25  O   UNL     1      -2.318  -3.591  -2.067  0.00  0.00    -0.153 OA
ATOM     26  O   UNL     1      -1.743  -1.556  -3.383  0.00  0.00    -0.153 OA
BRANCH  24  27
ATOM     27  N   UNL     1      -0.212  -3.496  -3.357  0.00  0.00    -0.204 NA
ATOM     28  H   UNL     1      -0.459  -4.277  -3.877  0.00  0.00    +0.144 HD
ATOM     29  H   UNL     1       0.716  -3.216  -3.314  0.00  0.00    +0.144 HD
ENDBRANCH  24  27
ENDBRANCH  19  24
ENDBRANCH   1  21
TORSDOF 4
