REMARK  Name = ZINC10653248
REMARK  4 active torsions:
REMARK  status: ('A' for Active; 'I' for Inactive)
REMARK    1  A    between atoms: C_6  and  S_7
REMARK    2  A    between atoms: S_7  and  C_8
REMARK    3  A    between atoms: C_8  and  C_9
REMARK    4  A    between atoms: N_11  and  C_12
REMARK                            x       y       z     vdW  Elec       q    Type
REMARK                         _______ _______ _______ _____ _____    ______ ____
ROOT
ATOM      1  C   UNL     1       2.370   5.180  -0.393  0.00  0.00    +0.228 C 
ATOM      2  O   UNL     1       1.328   5.744  -0.653  0.00  0.00    -0.275 OA
ATOM      3  N   UNL     1       2.358   3.890  -0.001  0.00  0.00    -0.282 N 
ATOM      4  H   UNL     1       3.182   3.461   0.277  0.00  0.00    +0.155 HD
ENDROOT
BRANCH   3   5
ATOM      5  C   UNL     1       1.156   3.171   0.007  0.00  0.00    +0.071 A 
ATOM      6  C   UNL     1       0.749   2.485  -1.130  0.00  0.00    +0.065 A 
ATOM      7  C   UNL     1      -0.438   1.776  -1.120  0.00  0.00    +0.042 A 
ATOM      8  C   UNL     1      -1.223   1.755   0.019  0.00  0.00    +0.044 A 
ATOM      9  C   UNL     1      -0.818   2.433   1.155  0.00  0.00    +0.042 A 
ATOM     10  C   UNL     1       0.368   3.144   1.151  0.00  0.00    +0.065 A 
ATOM     11 CL   UNL     1       0.874   3.999   2.575  0.00  0.00    -0.082 Cl
ATOM     12 CL   UNL     1      -2.717   0.870   0.026  0.00  0.00    -0.083 Cl
ATOM     13 CL   UNL     1       1.729   2.517  -2.562  0.00  0.00    -0.082 Cl
ENDBRANCH   3   5
BRANCH   1  14
ATOM     14  C   UNL     1       3.677   5.920  -0.510  0.00  0.00    +0.172 C 
BRANCH  14  15
ATOM     15  S   UNL     1       3.362   7.621  -1.056  0.00  0.00    -0.095 S 
BRANCH  15  21
ATOM     16  C   UNL     1       5.115   9.673  -1.542  0.00  0.00    +0.039 A 
ATOM     17  C   UNL     1       6.396  10.197  -1.589  0.00  0.00    +0.044 A 
ATOM     18  C   UNL     1       7.455   9.365  -1.246  0.00  0.00    +0.152 A 
ATOM     19  N   UNL     1       7.223   8.118  -0.885  0.00  0.00    -0.137 NA
ATOM     20  N   UNL     1       6.037   7.628  -0.834  0.00  0.00    -0.142 NA
ATOM     21  C   UNL     1       4.966   8.345  -1.143  0.00  0.00    +0.120 A 
ATOM     22 CL   UNL     1       9.083   9.966  -1.293  0.00  0.00    -0.060 Cl
ENDBRANCH  15  21
ENDBRANCH  14  15
ENDBRANCH   1  14
TORSDOF 4
