REMARK  Name = ZINC15051194
REMARK  7 active torsions:
REMARK  status: ('A' for Active; 'I' for Inactive)
REMARK    1  A    between atoms: C_1  and  O_2
REMARK    2  A    between atoms: O_2  and  C_3
REMARK    3  A    between atoms: C_6  and  C_9
REMARK    4  A    between atoms: N_13  and  C_17
REMARK    5  A    between atoms: N_22  and  C_25
REMARK    6  A    between atoms: C_28  and  S_31
REMARK    7  A    between atoms: S_31  and  N_34
REMARK                            x       y       z     vdW  Elec       q    Type
REMARK                         _______ _______ _______ _____ _____    ______ ____
ROOT
ATOM      1  C   UNL     1      -7.089  -7.086  -0.395  0.00  0.00    +0.178 C 
ATOM      2  C   UNL     1      -7.007  -8.107   0.758  0.00  0.00    +0.129 C 
ATOM      3  C   UNL     1      -6.836  -9.432   0.048  0.00  0.00    +0.228 C 
ATOM      4  O   UNL     1      -6.730 -10.511   0.590  0.00  0.00    -0.275 OA
ATOM      5  N   UNL     1      -6.821  -9.223  -1.275  0.00  0.00    -0.209 N 
ATOM      6  C   UNL     1      -6.958  -7.939  -1.638  0.00  0.00    +0.248 C 
ATOM      7  O   UNL     1      -6.974  -7.525  -2.778  0.00  0.00    -0.273 OA
ENDROOT
BRANCH   1  12
ATOM      8  C   UNL     1      -5.085  -2.562  -0.043  0.00  0.00    +0.028 C 
ATOM      9  C   UNL     1      -5.108  -3.915  -0.140  0.00  0.00    +0.077 C 
ATOM     10  C   UNL     1      -6.262  -4.833  -0.222  0.00  0.00    +0.259 C 
ATOM     11  O   UNL     1      -7.408  -4.423  -0.208  0.00  0.00    -0.269 OA
ATOM     12  N   UNL     1      -5.988  -6.124  -0.311  0.00  0.00    -0.243 N 
ATOM     13  C   UNL     1      -4.716  -6.574  -0.327  0.00  0.00    +0.121 C 
ATOM     14  S   UNL     1      -4.163  -8.191  -0.437  0.00  0.00    -0.027 S 
ATOM     15  S   UNL     1      -3.751  -5.077  -0.213  0.00  0.00    -0.061 S 
BRANCH   8  19
ATOM     16  C   UNL     1      -1.405  -0.478  -0.351  0.00  0.00    +0.120 A 
ATOM     17  C   UNL     1      -1.455  -1.839  -0.628  0.00  0.00    +0.046 A 
ATOM     18  C   UNL     1      -2.647  -2.520  -0.530  0.00  0.00    +0.011 A 
ATOM     19  C   UNL     1      -3.810  -1.840  -0.149  0.00  0.00    -0.024 A 
ATOM     20  C   UNL     1      -3.754  -0.469   0.130  0.00  0.00    +0.011 A 
ATOM     21  C   UNL     1      -2.555   0.202   0.033  0.00  0.00    +0.046 A 
BRANCH  16  23
ATOM     22  C   UNL     1       0.917  -0.569  -0.849  0.00  0.00    +0.277 C 
ATOM     23  O   UNL     1      -0.226   0.190  -0.449  0.00  0.00    -0.495 OA
ENDBRANCH  16  23
ENDBRANCH   8  19
ENDBRANCH   1  12
BRANCH   5  24
ATOM     24  C   UNL     1      -6.676 -10.262  -2.205  0.00  0.00    +0.044 A 
ATOM     25  C   UNL     1      -7.683 -11.207  -2.354  0.00  0.00    +0.026 A 
ATOM     26  C   UNL     1      -7.537 -12.230  -3.272  0.00  0.00    +0.030 A 
ATOM     27  C   UNL     1      -6.391 -12.313  -4.040  0.00  0.00    +0.105 A 
ATOM     28  C   UNL     1      -5.387 -11.373  -3.894  0.00  0.00    +0.030 A 
ATOM     29  C   UNL     1      -5.529 -10.345  -2.982  0.00  0.00    +0.026 A 
BRANCH  27  30
ATOM     30  S   UNL     1      -6.208 -13.619  -5.209  0.00  0.00    +0.056 S 
ATOM     31  O   UNL     1      -4.813 -13.788  -5.415  0.00  0.00    -0.153 OA
ATOM     32  O   UNL     1      -7.047 -14.678  -4.768  0.00  0.00    -0.153 OA
BRANCH  30  33
ATOM     33  N   UNL     1      -6.838 -13.083  -6.644  0.00  0.00    -0.204 NA
ATOM     34  H   UNL     1      -6.481 -13.414  -7.483  0.00  0.00    +0.144 HD
ATOM     35  H   UNL     1      -7.563 -12.439  -6.645  0.00  0.00    +0.144 HD
ENDBRANCH  30  33
ENDBRANCH  27  30
ENDBRANCH   5  24
TORSDOF 6
