REMARK  Name = ZINC51115363
REMARK  5 active torsions:
REMARK  status: ('A' for Active; 'I' for Inactive)
REMARK    1  A    between atoms: C_4  and  C_7
REMARK    2  A    between atoms: C_10  and  N_12
REMARK    3  A    between atoms: C_13  and  C_15
REMARK    4  A    between atoms: C_19  and  N_21
REMARK    5  A    between atoms: N_21  and  N_22
REMARK                            x       y       z     vdW  Elec       q    Type
REMARK                         _______ _______ _______ _____ _____    ______ ____
ROOT
ATOM      1  N   UNL     1       2.992  -1.772   2.177  0.00  0.00    -0.307 N 
ATOM      2  C   UNL     1       3.348  -2.147   3.422  0.00  0.00    +0.264 C 
ATOM      3  O   UNL     1       4.513  -2.385   3.674  0.00  0.00    -0.268 OA
ATOM      4  H   UNL     1       2.062  -1.581   1.976  0.00  0.00    +0.149 HD
ENDROOT
BRANCH   2   5
ATOM      5  C   UNL     1       2.321  -2.268   4.481  0.00  0.00    +0.146 A 
ATOM      6  C   UNL     1       2.698  -2.650   5.767  0.00  0.00    +0.072 A 
ATOM      7  C   UNL     1       1.726  -2.760   6.753  0.00  0.00    +0.026 A 
ATOM      8  C   UNL     1       0.412  -2.485   6.421  0.00  0.00    +0.046 A 
ATOM      9  C   UNL     1       0.104  -2.107   5.114  0.00  0.00    +0.133 A 
ATOM     10  N   UNL     1       1.050  -2.006   4.199  0.00  0.00    -0.225 NA
ATOM     11 CL   UNL     1       4.362  -2.986   6.131  0.00  0.00    -0.081 Cl
BRANCH   9  12
ATOM     12  N   UNL     1      -1.215  -1.828   4.773  0.00  0.00    -0.268 N 
ATOM     13  H   UNL     1      -1.914  -1.897   5.442  0.00  0.00    +0.167 HD
BRANCH  12  14
ATOM     14  N   UNL     1      -1.526  -1.457   3.496  0.00  0.00    -0.255 NA
ATOM     15  H   UNL     1      -2.517  -1.289   3.399  0.00  0.00    +0.140 HD
ATOM     16  H   UNL     1      -0.993  -0.648   3.214  0.00  0.00    +0.140 HD
ENDBRANCH  12  14
ENDBRANCH   9  12
ENDBRANCH   2   5
BRANCH   1  19
ATOM     17  C   UNL     1       3.711  -0.707  -0.038  0.00  0.00    +0.041 C 
ATOM     18  C   UNL     1       3.671  -2.222  -0.251  0.00  0.00    +0.033 C 
ATOM     19  C   UNL     1       4.008  -1.652   1.129  0.00  0.00    +0.081 C 
BRANCH  17  23
ATOM     20  C   UNL     1      -0.017   1.378   0.010  0.00  0.00    +0.000 A 
ATOM     21  C   UNL     1       1.171   2.086   0.002  0.00  0.00    +0.000 A 
ATOM     22  C   UNL     1       2.377   1.411  -0.013  0.00  0.00    +0.004 A 
ATOM     23  C   UNL     1       2.396   0.029  -0.020  0.00  0.00    -0.042 A 
ATOM     24  C   UNL     1       1.208  -0.679  -0.012  0.00  0.00    +0.004 A 
ATOM     25  C   UNL     1       0.002  -0.004   0.002  0.00  0.00    +0.000 A 
ENDBRANCH  17  23
ENDBRANCH   1  19
TORSDOF 5
