REMARK  Name = ZINC39576015
REMARK  9 active torsions:
REMARK  status: ('A' for Active; 'I' for Inactive)
REMARK    1  A    between atoms: C_1  and  C_2
REMARK    2  A    between atoms: C_2  and  N_3
REMARK    3  A    between atoms: N_3  and  C_4
REMARK    4  A    between atoms: N_3  and  C_6
REMARK    5  A    between atoms: C_4  and  C_5
REMARK    6  A    between atoms: C_9  and  C_12
REMARK    7  A    between atoms: C_14  and  C_25
REMARK    8  A    between atoms: C_15  and  N_24
REMARK    9  A    between atoms: C_20  and  C_23
REMARK                            x       y       z     vdW  Elec       q    Type
REMARK                         _______ _______ _______ _____ _____    ______ ____
ROOT
ATOM      1  C   UNL     1       6.311  -1.357   0.990  0.00  0.00    +0.098 C 
ATOM      2  C   UNL     1       6.631  -2.802   1.332  0.00  0.00    +0.097 C 
ATOM      3  C   UNL     1       7.239  -3.139   2.488  0.00  0.00    +0.195 C 
ATOM      4  O   UNL     1       7.657  -2.298   3.452  0.00  0.00    -0.448 OA
ATOM      5  C   UNL     1       7.056  -1.002   3.498  0.00  0.00    +0.343 C 
ATOM      6  C   UNL     1       7.003  -0.532   2.039  0.00  0.00    +0.030 C 
ATOM      7  C   UNL     1       7.654   0.605   2.021  0.00  0.00    +0.066 C 
ATOM      8  N   UNL     1       8.194   0.860   3.241  0.00  0.00    -0.155 NA
ATOM      9  N   UNL     1       7.926  -0.000   4.121  0.00  0.00    -0.138 NA
ATOM     10  C   UNL     1       7.785   1.503   0.817  0.00  0.00    +0.067 C 
ENDROOT
BRANCH   1  14
ATOM     11  C   UNL     1       2.090  -0.703   1.140  0.00  0.00    +0.030 A 
ATOM     12  C   UNL     1       2.792  -0.451  -0.032  0.00  0.00    +0.023 A 
ATOM     13  C   UNL     1       4.156  -0.663  -0.076  0.00  0.00    +0.006 A 
ATOM     14  C   UNL     1       4.823  -1.126   1.043  0.00  0.00    -0.035 A 
ATOM     15  C   UNL     1       4.127  -1.379   2.211  0.00  0.00    +0.006 A 
ATOM     16  C   UNL     1       2.763  -1.163   2.264  0.00  0.00    +0.023 A 
BRANCH  11  17
ATOM     17  N   UNL     1       0.711  -0.489   1.189  0.00  0.00    -0.330 N 
BRANCH  17  19
ATOM     18  C   UNL     1      -0.019   1.526   0.010  0.00  0.00    +0.024 C 
ATOM     19  C   UNL     1       0.002  -0.004   0.002  0.00  0.00    +0.102 C 
ENDBRANCH  17  19
BRANCH  17  20
ATOM     20  C   UNL     1      -0.028  -0.750   2.427  0.00  0.00    +0.102 C 
ATOM     21  C   UNL     1      -0.511  -2.202   2.437  0.00  0.00    +0.024 C 
ENDBRANCH  17  20
ENDBRANCH  11  17
ENDBRANCH   1  14
BRANCH   3  22
ATOM     22  N   UNL     1       7.454  -4.477   2.703  0.00  0.00    -0.329 N 
ATOM     23  H   UNL     1       7.172  -5.127   2.039  0.00  0.00    +0.145 HD
ATOM     24  H   UNL     1       7.888  -4.774   3.518  0.00  0.00    +0.145 HD
ENDBRANCH   3  22
BRANCH   2  25
ATOM     25  C   UNL     1       6.277  -3.833   0.403  0.00  0.00    +0.101 C 
ATOM     26  N   UNL     1       5.996  -4.650  -0.334  0.00  0.00    -0.191 NA
ENDBRANCH   2  25
TORSDOF 6
