REMARK  Name = ZINC12377826
REMARK  7 active torsions:
REMARK  status: ('A' for Active; 'I' for Inactive)
REMARK    1  A    between atoms: C_1  and  C_2
REMARK    2  A    between atoms: C_5  and  C_30
REMARK    3  A    between atoms: C_6  and  N_8
REMARK    4  A    between atoms: C_9  and  C_11
REMARK    5  A    between atoms: C_12  and  C_29
REMARK    6  A    between atoms: C_17  and  C_19
REMARK    7  A    between atoms: C_23  and  N_25
REMARK                            x       y       z     vdW  Elec       q    Type
REMARK                         _______ _______ _______ _____ _____    ______ ____
ROOT
ATOM      1  C   UNL     1       3.059  -3.991   1.518  0.00  0.00    +0.056 C 
ATOM      2  C   UNL     1       2.970  -5.315   1.766  0.00  0.00    +0.017 C 
ATOM      3  N   UNL     1       2.851  -6.217   0.748  0.00  0.00    -0.300 N 
ATOM      4  C   UNL     1       2.813  -5.875  -0.546  0.00  0.00    +0.135 C 
ATOM      5  S   UNL     1       2.661  -7.108  -1.724  0.00  0.00    -0.019 S 
ATOM      6  N   UNL     1       2.890  -4.592  -0.951  0.00  0.00    -0.315 N 
ATOM      7  C   UNL     1       3.021  -3.541   0.072  0.00  0.00    +0.139 C 
ATOM      8  C   UNL     1       3.003  -5.806   3.191  0.00  0.00    +0.061 C 
ATOM      9  H   UNL     1       2.790  -7.158   0.975  0.00  0.00    +0.154 HD
ATOM     10  H   UNL     1       2.860  -4.367  -1.894  0.00  0.00    +0.149 HD
ENDROOT
BRANCH   7  11
ATOM     11  C   UNL     1       1.863  -2.590  -0.089  0.00  0.00    -0.020 A 
ATOM     12  C   UNL     1       0.568  -3.074  -0.106  0.00  0.00    +0.007 A 
ATOM     13  C   UNL     1      -0.494  -2.203  -0.253  0.00  0.00    +0.022 A 
ATOM     14  C   UNL     1      -0.261  -0.845  -0.383  0.00  0.00    +0.071 A 
ATOM     15  C   UNL     1       1.034  -0.361  -0.366  0.00  0.00    +0.145 A 
ATOM     16  C   UNL     1       2.096  -1.234  -0.224  0.00  0.00    +0.040 A 
ATOM     17 CL   UNL     1      -1.595   0.251  -0.569  0.00  0.00    -0.081 Cl
BRANCH  15  18
ATOM     18  N   UNL     1       1.284   1.091  -0.506  0.00  0.00    +0.058 N 
ATOM     19  O   UNL     1       2.415   1.529  -0.388  0.00  0.00    -0.126 OA
ATOM     20  O   UNL     1       0.360   1.848  -0.743  0.00  0.00    -0.126 OA
ENDBRANCH  15  18
ENDBRANCH   7  11
BRANCH   1  22
ATOM     21  N   UNL     1       2.091  -2.674   3.267  0.00  0.00    -0.281 N 
ATOM     22  C   UNL     1       3.182  -3.055   2.573  0.00  0.00    +0.248 C 
ATOM     23  O   UNL     1       4.274  -2.594   2.854  0.00  0.00    -0.270 OA
ATOM     24  H   UNL     1       1.210  -2.959   2.980  0.00  0.00    +0.155 HD
BRANCH  21  30
ATOM     25  C   UNL     1       4.562   0.803   5.710  0.00  0.00    +0.044 C 
ATOM     26  C   UNL     1       3.419  -0.173   5.612  0.00  0.00    -0.049 A 
ATOM     27  C   UNL     1       2.504  -0.272   6.645  0.00  0.00    +0.004 A 
ATOM     28  C   UNL     1       1.453  -1.166   6.559  0.00  0.00    +0.005 A 
ATOM     29  C   UNL     1       1.311  -1.961   5.438  0.00  0.00    -0.029 A 
ATOM     30  C   UNL     1       2.230  -1.868   4.401  0.00  0.00    +0.037 A 
ATOM     31  C   UNL     1       3.285  -0.968   4.491  0.00  0.00    +0.027 A 
ATOM     32  C   UNL     1       0.162  -2.931   5.343  0.00  0.00    +0.045 C 
ENDBRANCH  21  30
ENDBRANCH   1  22
TORSDOF 4
