REMARK  Name = ZINC38684406
REMARK  10 active torsions:
REMARK  status: ('A' for Active; 'I' for Inactive)
REMARK    1  A    between atoms: C_1  and  C_2
REMARK    2  A    between atoms: C_2  and  C_3
REMARK    3  A    between atoms: C_3  and  O_4
REMARK    4  A    between atoms: O_4  and  C_5
REMARK    5  A    between atoms: C_9  and  C_11
REMARK    6  A    between atoms: C_16  and  O_25
REMARK    7  A    between atoms: C_20  and  N_24
REMARK    8  A    between atoms: C_21  and  C_22
REMARK    9  A    between atoms: O_25  and  C_26
REMARK   10  A    between atoms: C_26  and  C_28
REMARK                            x       y       z     vdW  Elec       q    Type
REMARK                         _______ _______ _______ _____ _____    ______ ____
ROOT
ATOM      1  C   UNL     1      -3.918  -6.091  -0.019  0.00  0.00    +0.098 C 
ATOM      2  C   UNL     1      -4.659  -6.571  -1.238  0.00  0.00    +0.008 A 
ATOM      3  C   UNL     1      -4.059  -6.475  -2.481  0.00  0.00    +0.012 A 
ATOM      4  C   UNL     1      -4.723  -6.910  -3.610  0.00  0.00    +0.047 A 
ATOM      5  C   UNL     1      -5.999  -7.446  -3.501  0.00  0.00    +0.135 A 
ATOM      6  C   UNL     1      -6.603  -7.543  -2.258  0.00  0.00    +0.093 A 
ATOM      7  C   UNL     1      -5.933  -7.104  -1.123  0.00  0.00    +0.138 A 
ATOM      8  O   UNL     1      -6.538  -7.206   0.086  0.00  0.00    -0.441 OA
ATOM      9  C   UNL     1      -5.802  -7.163   1.209  0.00  0.00    +0.199 C 
ATOM     10  C   UNL     1      -4.554  -6.646   1.224  0.00  0.00    +0.098 C 
ENDROOT
BRANCH   1  15
ATOM     11  C   UNL     1      -2.818  -2.476   0.047  0.00  0.00    +0.121 A 
ATOM     12  C   UNL     1      -4.039  -1.819   0.119  0.00  0.00    +0.045 A 
ATOM     13  C   UNL     1      -5.213  -2.547   0.146  0.00  0.00    +0.004 A 
ATOM     14  C   UNL     1      -5.172  -3.929   0.101  0.00  0.00    +0.005 A 
ATOM     15  C   UNL     1      -3.958  -4.585   0.029  0.00  0.00    -0.031 A 
ATOM     16  C   UNL     1      -2.781  -3.862  -0.004  0.00  0.00    +0.050 A 
BRANCH  11  17
ATOM     17  O   UNL     1      -1.662  -1.762   0.020  0.00  0.00    -0.492 OA
BRANCH  17  18
ATOM     18  C   UNL     1      -1.777  -0.339   0.074  0.00  0.00    +0.229 C 
BRANCH  18  20
ATOM     19  C   UNL     1      -0.504   1.811   0.092  0.00  0.00    +0.007 C 
ATOM     20  C   UNL     1      -0.381   0.287   0.034  0.00  0.00    +0.038 C 
ENDBRANCH  18  20
ENDBRANCH  17  18
ENDBRANCH  11  17
ENDBRANCH   1  15
BRANCH   9  21
ATOM     21  N   UNL     1      -6.335  -7.656   2.374  0.00  0.00    -0.328 N 
ATOM     22  H   UNL     1      -7.230  -8.029   2.378  0.00  0.00    +0.145 HD
ATOM     23  H   UNL     1      -5.816  -7.632   3.193  0.00  0.00    +0.145 HD
ENDBRANCH   9  21
BRANCH  10  24
ATOM     24  C   UNL     1      -3.822  -6.628   2.455  0.00  0.00    +0.101 C 
ATOM     25  N   UNL     1      -3.242  -6.614   3.432  0.00  0.00    -0.191 NA
ENDBRANCH  10  24
BRANCH   5  26
ATOM     26  O   UNL     1      -6.655  -7.875  -4.612  0.00  0.00    -0.422 OA
BRANCH  26  27
ATOM     27  C   UNL     1      -6.193  -8.978  -5.233  0.00  0.00    +0.346 C 
ATOM     28  O   UNL     1      -5.285  -9.617  -4.740  0.00  0.00    -0.244 OA
BRANCH  27  29
ATOM     29  C   UNL     1      -6.791  -9.410  -6.511  0.00  0.00    +0.078 A 
ATOM     30  C   UNL     1      -7.832  -8.674  -7.083  0.00  0.00    +0.018 A 
ATOM     31  C   UNL     1      -8.386  -9.083  -8.277  0.00  0.00    +0.021 A 
ATOM     32  C   UNL     1      -7.913 -10.221  -8.910  0.00  0.00    +0.042 A 
ATOM     33  C   UNL     1      -6.882 -10.956  -8.350  0.00  0.00    +0.040 A 
ATOM     34  C   UNL     1      -6.314 -10.554  -7.157  0.00  0.00    +0.056 A 
ATOM     35 CL   UNL     1      -5.016 -11.472  -6.460  0.00  0.00    -0.083 Cl
ATOM     36 CL   UNL     1      -8.618 -10.729 -10.413  0.00  0.00    -0.083 Cl
ENDBRANCH  27  29
ENDBRANCH  26  27
ENDBRANCH   5  26
TORSDOF 9
