REMARK  Name = ZINC39483105
REMARK  8 active torsions:
REMARK  status: ('A' for Active; 'I' for Inactive)
REMARK    1  A    between atoms: C_1  and  C_2
REMARK    2  A    between atoms: C_2  and  O_3
REMARK    3  A    between atoms: O_3  and  C_4
REMARK    4  A    between atoms: C_6  and  C_17
REMARK    5  A    between atoms: C_8  and  C_10
REMARK    6  A    between atoms: C_15  and  O_16
REMARK    7  A    between atoms: C_26  and  C_33
REMARK    8  A    between atoms: C_33  and  C_34
REMARK                            x       y       z     vdW  Elec       q    Type
REMARK                         _______ _______ _______ _____ _____    ______ ____
ROOT
ATOM      1  C   UNL     1       0.632  -4.944  -0.019  0.00  0.00    +0.015 C 
ATOM      2  C   UNL     1       1.866  -4.415  -0.124  0.00  0.00    -0.004 C 
ATOM      3  C   UNL     1       2.048  -2.924  -0.113  0.00  0.00    +0.040 C 
ATOM      4  C   UNL     1       3.370  -2.556   0.539  0.00  0.00    +0.026 C 
ATOM      5  C   UNL     1       4.536  -3.334  -0.028  0.00  0.00    +0.127 C 
ATOM      6  N   UNL     1       4.298  -4.767  -0.138  0.00  0.00    -0.293 N 
ATOM      7  C   UNL     1       3.036  -5.295  -0.245  0.00  0.00    +0.140 A 
ATOM      8  N   UNL     1       2.823  -6.578  -0.458  0.00  0.00    -0.229 NA
ATOM      9  C   UNL     1       3.824  -7.470  -0.534  0.00  0.00    +0.082 A 
ATOM     10  C   UNL     1       3.585  -8.825  -0.785  0.00  0.00    -0.017 A 
ATOM     11  C   UNL     1       4.632  -9.701  -0.841  0.00  0.00    +0.006 A 
ATOM     12  C   UNL     1       5.938  -9.266  -0.651  0.00  0.00    +0.001 A 
ATOM     13  C   UNL     1       6.206  -7.937  -0.409  0.00  0.00    +0.015 A 
ATOM     14  C   UNL     1       5.154  -7.024  -0.355  0.00  0.00    +0.065 A 
ATOM     15  C   UNL     1       5.377  -5.593  -0.137  0.00  0.00    +0.262 A 
ATOM     16  O   UNL     1       6.498  -5.158   0.052  0.00  0.00    -0.267 OA
ENDROOT
BRANCH   1  19
ATOM     17  C   UNL     1      -2.799  -3.563   0.647  0.00  0.00    +0.122 A 
ATOM     18  C   UNL     1      -1.687  -4.388   0.688  0.00  0.00    +0.053 A 
ATOM     19  C   UNL     1      -0.551  -4.068  -0.061  0.00  0.00    -0.021 A 
ATOM     20  C   UNL     1      -0.541  -2.916  -0.851  0.00  0.00    +0.016 A 
ATOM     21  C   UNL     1      -1.661  -2.093  -0.887  0.00  0.00    -0.010 A 
ATOM     22  C   UNL     1      -2.792  -2.422  -0.140  0.00  0.00    +0.054 A 
BRANCH  21  23
ATOM     23  C   UNL     1      -1.655  -0.867  -1.723  0.00  0.00    +0.024 A 
ATOM     24  C   UNL     1      -0.594   0.032  -1.639  0.00  0.00    +0.012 A 
ATOM     25  C   UNL     1      -0.593   1.170  -2.419  0.00  0.00    +0.001 A 
ATOM     26  C   UNL     1      -1.642   1.423  -3.285  0.00  0.00    +0.004 A 
ATOM     27  C   UNL     1      -2.700   0.538  -3.376  0.00  0.00    +0.046 A 
ATOM     28  C   UNL     1      -2.711  -0.613  -2.603  0.00  0.00    +0.125 A 
BRANCH  28  29
ATOM     29  O   UNL     1      -3.747  -1.486  -2.696  0.00  0.00    -0.506 OA
ATOM     30  H   UNL     1      -4.473  -1.302  -2.085  0.00  0.00    +0.292 HD
ENDBRANCH  28  29
ENDBRANCH  21  23
BRANCH  17  31
ATOM     31  O   UNL     1      -3.902  -3.876   1.376  0.00  0.00    -0.492 OA
BRANCH  31  33
ATOM     32  C   UNL     1      -5.166  -5.252   2.910  0.00  0.00    +0.048 C 
ATOM     33  C   UNL     1      -3.842  -5.066   2.165  0.00  0.00    +0.225 C 
ENDBRANCH  31  33
ENDBRANCH  17  31
ENDBRANCH   1  19
BRANCH  10  34
ATOM     34  C   UNL     1       2.176  -9.319  -0.992  0.00  0.00    +0.072 C 
BRANCH  34  35
ATOM     35  C   UNL     1       1.786  -9.132  -2.436  0.00  0.00    -0.043 A 
ATOM     36  C   UNL     1       1.192  -7.953  -2.844  0.00  0.00    +0.004 A 
ATOM     37  C   UNL     1       0.834  -7.782  -4.169  0.00  0.00    +0.000 A 
ATOM     38  C   UNL     1       1.070  -8.790  -5.084  0.00  0.00    +0.000 A 
ATOM     39  C   UNL     1       1.664  -9.970  -4.676  0.00  0.00    +0.000 A 
ATOM     40  C   UNL     1       2.026 -10.139  -3.352  0.00  0.00    +0.004 A 
ENDBRANCH  34  35
ENDBRANCH  10  34
TORSDOF 7
