REMARK  Name = ZINC63485981
REMARK  12 active torsions:
REMARK  status: ('A' for Active; 'I' for Inactive)
REMARK    1  A    between atoms: C_1  and  C_2
REMARK    2  A    between atoms: C_7  and  O_32
REMARK    3  A    between atoms: C_13  and  C_15
REMARK    4  A    between atoms: C_15  and  C_16
REMARK    5  A    between atoms: N_18  and  C_19
REMARK    6  A    between atoms: C_19  and  C_20
REMARK    7  A    between atoms: C_20  and  C_21
REMARK    8  A    between atoms: C_24  and  O_30
REMARK    9  A    between atoms: O_30  and  C_31
REMARK   10  A    between atoms: O_32  and  C_33
REMARK   11  A    between atoms: C_33  and  C_34
REMARK   12  A    between atoms: C_34  and  C_36
REMARK                            x       y       z     vdW  Elec       q    Type
REMARK                         _______ _______ _______ _____ _____    ______ ____
ROOT
ATOM      1  C   UNL     1       0.441  -1.995   1.458  0.00  0.00    +0.111 C 
ENDROOT
BRANCH   1  13
ATOM      2  C   UNL     1      -0.019   1.526   0.010  0.00  0.00    +0.013 C 
ATOM      3  C   UNL     1       0.002  -0.004   0.002  0.00  0.00    +0.034 C 
ATOM      4  C   UNL     1       0.705  -0.489  -1.241  0.00  0.00    -0.001 A 
ATOM      5  C   UNL     1      -0.004  -0.514  -2.432  0.00  0.00    +0.011 A 
ATOM      6  C   UNL     1       0.599  -0.943  -3.596  0.00  0.00    +0.046 A 
ATOM      7  C   UNL     1       1.925  -1.353  -3.580  0.00  0.00    +0.124 A 
ATOM      8  C   UNL     1       2.636  -1.332  -2.392  0.00  0.00    +0.092 A 
ATOM      9  C   UNL     1       2.025  -0.903  -1.219  0.00  0.00    +0.139 A 
ATOM     10  O   UNL     1       2.754  -0.916  -0.069  0.00  0.00    -0.425 OA
ATOM     11  C   UNL     1       2.223  -0.312   1.012  0.00  0.00    +0.316 C 
ATOM     12  O   UNL     1       2.898   0.355   1.760  0.00  0.00    -0.250 OA
ATOM     13  C   UNL     1       0.740  -0.510   1.245  0.00  0.00    +0.114 C 
BRANCH   7  14
ATOM     14  O   UNL     1       2.524  -1.772  -4.725  0.00  0.00    -0.488 OA
BRANCH  14  15
ATOM     15  C   UNL     1       1.728  -1.766  -5.912  0.00  0.00    +0.259 C 
BRANCH  15  16
ATOM     16  C   UNL     1       2.554  -2.259  -7.073  0.00  0.00    -0.043 C 
ATOM     17  C   UNL     1       3.803  -2.610  -6.886  0.00  0.00    +0.011 C 
ATOM     18  C   UNL     1       1.944  -2.349  -8.448  0.00  0.00    +0.042 C 
ENDBRANCH  15  16
ENDBRANCH  14  15
ENDBRANCH   7  14
ENDBRANCH   1  13
BRANCH   1  19
ATOM     19  C   UNL     1       1.070  -2.455   2.748  0.00  0.00    +0.214 C 
ATOM     20  O   UNL     1       1.695  -1.671   3.431  0.00  0.00    -0.276 OA
ATOM     21  N   UNL     1       0.937  -3.736   3.144  0.00  0.00    -0.315 N 
ATOM     22  H   UNL     1       0.437  -4.363   2.598  0.00  0.00    +0.149 HD
BRANCH  21  23
ATOM     23  C   UNL     1       1.548  -4.183   4.398  0.00  0.00    +0.108 C 
BRANCH  23  24
ATOM     24  C   UNL     1       1.249  -5.668   4.611  0.00  0.00    +0.052 C 
BRANCH  24  25
ATOM     25  C   UNL     1       1.878  -6.127   5.901  0.00  0.00    -0.040 C 
ATOM     26  C   UNL     1       1.281  -6.210   7.112  0.00  0.00    +0.002 A 
ATOM     27  C   UNL     1      -0.078  -5.909   7.574  0.00  0.00    +0.055 A 
ATOM     28  C   UNL     1      -0.395  -6.093   8.878  0.00  0.00    +0.121 A 
ATOM     29  C   UNL     1       0.537  -6.566   9.818  0.00  0.00    +0.047 A 
ATOM     30  C   UNL     1       1.811  -6.870   9.488  0.00  0.00    +0.029 A 
ATOM     31  C   UNL     1       2.263  -6.709   8.102  0.00  0.00    +0.043 A 
ATOM     32  N   UNL     1       3.419  -6.926   7.527  0.00  0.00    -0.380 N 
ATOM     33  C   UNL     1       3.302  -6.595   6.103  0.00  0.00    +0.144 C 
ATOM     34  H   UNL     1       4.218  -7.254   7.969  0.00  0.00    +0.160 HD
BRANCH  28  35
ATOM     35  O   UNL     1      -1.658  -5.809   9.293  0.00  0.00    -0.495 OA
ATOM     36  C   UNL     1      -1.949  -6.018  10.676  0.00  0.00    +0.277 C 
ENDBRANCH  28  35
ENDBRANCH  24  25
ENDBRANCH  23  24
ENDBRANCH  21  23
ENDBRANCH   1  19
TORSDOF 9
