REMARK  Name = ZINC37361012
REMARK  4 active torsions:
REMARK  status: ('A' for Active; 'I' for Inactive)
REMARK    1  A    between atoms: C_4  and  C_7
REMARK    2  A    between atoms: C_7  and  N_8
REMARK    3  A    between atoms: C_9  and  N_36
REMARK    4  A    between atoms: C_11  and  C_29
REMARK                            x       y       z     vdW  Elec       q    Type
REMARK                         _______ _______ _______ _____ _____    ______ ____
ROOT
ATOM      1  N   UNL     1       4.637  -1.118   1.095  0.00  0.00    -0.244 N 
ATOM      2  C   UNL     1       5.043  -0.180   1.968  0.00  0.00    +0.126 A 
ATOM      3  C   UNL     1       4.774  -0.652   3.246  0.00  0.00    +0.086 A 
ATOM      4  C   UNL     1       4.950  -0.170   4.562  0.00  0.00    +0.089 A 
ATOM      5  N   UNL     1       4.554  -0.935   5.571  0.00  0.00    -0.214 NA
ATOM      6  C   UNL     1       4.002  -2.129   5.378  0.00  0.00    +0.220 A 
ATOM      7  N   UNL     1       3.800  -2.655   4.188  0.00  0.00    -0.193 NA
ATOM      8  C   UNL     1       4.157  -1.981   3.078  0.00  0.00    +0.188 A 
ATOM      9  N   UNL     1       4.094  -2.208   1.784  0.00  0.00    -0.149 NA
ATOM     10  N   UNL     1       3.618  -2.859   6.489  0.00  0.00    -0.297 N 
ATOM     11  C   UNL     1       3.813  -2.320   7.843  0.00  0.00    +0.127 C 
ATOM     12  C   UNL     1       2.464  -2.325   8.572  0.00  0.00    +0.125 C 
ATOM     13  N   UNL     1       1.853  -3.653   8.420  0.00  0.00    -0.314 N 
ATOM     14  C   UNL     1       1.658  -4.192   7.067  0.00  0.00    +0.125 C 
ATOM     15  C   UNL     1       3.002  -4.185   6.337  0.00  0.00    +0.127 C 
ATOM     16  C   UNL     1       1.468  -4.386   9.536  0.00  0.00    +0.099 A 
ATOM     17  C   UNL     1       1.534  -3.806  10.799  0.00  0.00    +0.042 A 
ATOM     18  C   UNL     1       1.148  -4.547  11.901  0.00  0.00    +0.005 A 
ATOM     19  C   UNL     1       0.706  -5.848  11.702  0.00  0.00    +0.018 A 
ATOM     20  C   UNL     1       0.666  -6.361  10.421  0.00  0.00    +0.084 A 
ATOM     21  N   UNL     1       1.036  -5.629   9.388  0.00  0.00    -0.350 N 
ATOM     22  H   UNL     1       0.994  -6.012   8.498  0.00  0.00    +0.166 HD
ENDROOT
BRANCH   4  23
ATOM     23  C   UNL     1       5.563   1.155   4.809  0.00  0.00    +0.003 A 
ATOM     24  C   UNL     1       5.155   2.265   4.067  0.00  0.00    +0.010 A 
ATOM     25  C   UNL     1       5.729   3.497   4.302  0.00  0.00    +0.002 A 
ATOM     26  C   UNL     1       6.707   3.635   5.270  0.00  0.00    +0.020 A 
ATOM     27  C   UNL     1       7.117   2.539   6.010  0.00  0.00    +0.042 A 
ATOM     28  C   UNL     1       6.545   1.301   5.788  0.00  0.00    +0.030 A 
ATOM     29 CL   UNL     1       8.345   2.722   7.222  0.00  0.00    -0.084 Cl
ENDBRANCH   4  23
BRANCH   2  30
ATOM     30  N   UNL     1       5.625   1.034   1.651  0.00  0.00    -0.343 N 
ATOM     31  H   UNL     1       5.541   1.392   0.753  0.00  0.00    +0.144 HD
ATOM     32  H   UNL     1       6.116   1.527   2.326  0.00  0.00    +0.144 HD
ENDBRANCH   2  30
BRANCH   1  33
ATOM     33  C   UNL     1       4.741  -1.012  -0.363  0.00  0.00    +0.180 C 
BRANCH  33  37
ATOM     34  C   UNL     1       1.206   0.815  -1.916  0.00  0.00    +0.000 A 
ATOM     35  C   UNL     1       2.285   1.598  -1.550  0.00  0.00    +0.000 A 
ATOM     36  C   UNL     1       3.429   1.006  -1.047  0.00  0.00    +0.005 A 
ATOM     37  C   UNL     1       3.494  -0.368  -0.910  0.00  0.00    -0.026 A 
ATOM     38  C   UNL     1       2.415  -1.150  -1.276  0.00  0.00    +0.005 A 
ATOM     39  C   UNL     1       1.271  -0.559  -1.780  0.00  0.00    +0.000 A 
ENDBRANCH  33  37
ENDBRANCH   1  33
TORSDOF 4
