REMARK  Name = ZINC13113435
REMARK  6 active torsions:
REMARK  status: ('A' for Active; 'I' for Inactive)
REMARK    1  A    between atoms: C_3  and  S_21
REMARK    2  A    between atoms: C_6  and  C_7
REMARK    3  A    between atoms: C_7  and  N_54
REMARK    4  A    between atoms: C_8  and  C_9
REMARK    5  A    between atoms: C_8  and  N_54
REMARK    6  A    between atoms: S_21  and  N_24
REMARK                            x       y       z     vdW  Elec       q    Type
REMARK                         _______ _______ _______ _____ _____    ______ ____
ROOT
ATOM      1  C   UNL     1       1.151   3.592   0.010  0.00  0.00    -0.046 C 
ENDROOT
BRANCH   1   7
ATOM      2  C   UNL     1      -0.017   1.378   0.010  0.00  0.00    +0.003 A 
ATOM      3  C   UNL     1       0.002  -0.004   0.002  0.00  0.00    +0.029 A 
ATOM      4  C   UNL     1       1.208  -0.679  -0.013  0.00  0.00    +0.105 A 
ATOM      5  C   UNL     1       2.396   0.029  -0.021  0.00  0.00    +0.029 A 
ATOM      6  C   UNL     1       2.377   1.411  -0.015  0.00  0.00    +0.003 A 
ATOM      7  C   UNL     1       1.171   2.086   0.002  0.00  0.00    -0.064 A 
BRANCH   4   8
ATOM      8  S   UNL     1       1.232  -2.441  -0.022  0.00  0.00    +0.061 S 
ATOM      9  O   UNL     1       2.489  -2.832   0.515  0.00  0.00    -0.153 OA
ATOM     10  O   UNL     1      -0.002  -2.866   0.539  0.00  0.00    -0.153 OA
BRANCH   8  11
ATOM     11  N   UNL     1       1.223  -2.923  -1.606  0.00  0.00    -0.172 NA
ATOM     12  C   UNL     1      -0.042  -3.167  -2.316  0.00  0.00    +0.137 C 
ATOM     13  C   UNL     1      -0.005  -2.390  -3.642  0.00  0.00    +0.177 C 
ATOM     14  O   UNL     1       1.193  -2.723  -4.348  0.00  0.00    -0.377 OA
ATOM     15  C   UNL     1       2.395  -2.357  -3.666  0.00  0.00    +0.177 C 
ATOM     16  C   UNL     1       2.481  -3.126  -2.343  0.00  0.00    +0.137 C 
ENDBRANCH   8  11
ENDBRANCH   4   8
ENDBRANCH   1   7
BRANCH   1  17
ATOM     17  N   UNL     1       1.157   4.069   1.406  0.00  0.00    +0.384 N 
ATOM     18  H   UNL     1       2.004   3.729   1.876  0.00  0.00    -0.085 HD
ATOM     19  H   UNL     1       0.328   3.706   1.891  0.00  0.00    -0.085 HD
BRANCH  17  20
ATOM     20  C   UNL     1       1.137   5.543   1.444  0.00  0.00    -0.046 C 
BRANCH  20  21
ATOM     21  C   UNL     1       1.144   6.000   2.880  0.00  0.00    -0.059 A 
ATOM     22  C   UNL     1       2.347   6.225   3.526  0.00  0.00    +0.051 A 
ATOM     23  C   UNL     1       2.350   6.645   4.846  0.00  0.00    +0.164 A 
ATOM     24  C   UNL     1       1.151   6.838   5.516  0.00  0.00    +0.180 A 
ATOM     25  C   UNL     1      -0.051   6.612   4.867  0.00  0.00    +0.086 A 
ATOM     26  C   UNL     1      -0.051   6.198   3.546  0.00  0.00    +0.025 A 
ATOM     27 CL   UNL     1      -1.553   6.853   5.705  0.00  0.00    -0.080 Cl
ATOM     28  O   UNL     1       1.165   7.251   6.817  0.00  0.00    -0.487 OA
ATOM     29  C   UNL     1       1.628   8.584   7.044  0.00  0.00    +0.232 C 
ATOM     30  C   UNL     1       3.146   8.619   7.133  0.00  0.00    +0.082 C 
ATOM     31  C   UNL     1       3.812   8.232   5.823  0.00  0.00    +0.232 C 
ATOM     32  O   UNL     1       3.530   6.870   5.494  0.00  0.00    -0.488 OA
ENDBRANCH  20  21
ENDBRANCH  17  20
ENDBRANCH   1  17
TORSDOF 6
