REMARK  Name = ZINC39890635
REMARK  6 active torsions:
REMARK  status: ('A' for Active; 'I' for Inactive)
REMARK    1  A    between atoms: C_1  and  C_2
REMARK    2  A    between atoms: N_15  and  C_34
REMARK    3  A    between atoms: N_23  and  C_26
REMARK    4  A    between atoms: C_26  and  C_27
REMARK    5  A    between atoms: C_34  and  C_35
REMARK    6  A    between atoms: C_35  and  O_36
REMARK                            x       y       z     vdW  Elec       q    Type
REMARK                         _______ _______ _______ _____ _____    ______ ____
ROOT
ATOM      1  C   UNL     1      -2.814   0.492  -0.974  0.00  0.00    +0.044 C 
ATOM      2  C   UNL     1      -2.277  -0.914  -0.901  0.00  0.00    -0.050 A 
ATOM      3  C   UNL     1      -1.987  -1.605  -2.069  0.00  0.00    +0.007 A 
ATOM      4  C   UNL     1      -1.499  -2.892  -2.025  0.00  0.00    +0.047 A 
ATOM      5  C   UNL     1      -1.290  -3.518  -0.796  0.00  0.00    +0.139 A 
ATOM      6  C   UNL     1      -1.582  -2.807   0.379  0.00  0.00    +0.065 A 
ATOM      7  C   UNL     1      -2.074  -1.504   0.316  0.00  0.00    +0.018 A 
ATOM      8  C   UNL     1      -1.348  -3.459   1.692  0.00  0.00    +0.199 A 
ATOM      9  O   UNL     1      -1.726  -2.985   2.749  0.00  0.00    -0.287 OA
ATOM     10  C   UNL     1      -0.620  -4.729   1.597  0.00  0.00    +0.084 A 
ATOM     11  C   UNL     1      -0.391  -5.319   0.385  0.00  0.00    +0.200 A 
ATOM     12  O   UNL     1      -0.818  -4.785  -0.776  0.00  0.00    -0.450 OA
ATOM     13  C   UNL     1       0.363  -6.565   0.611  0.00  0.00    +0.284 C 
ATOM     14  O   UNL     1       0.729  -7.326  -0.262  0.00  0.00    -0.267 OA
ATOM     15  N   UNL     1       0.587  -6.738   1.932  0.00  0.00    -0.271 N 
ATOM     16  C   UNL     1      -0.012  -5.601   2.640  0.00  0.00    +0.174 C 
ATOM     17  C   UNL     1      -1.004  -6.055   3.662  0.00  0.00    +0.011 A 
ATOM     18  C   UNL     1      -2.178  -6.768   3.545  0.00  0.00    +0.008 A 
ATOM     19  C   UNL     1      -2.877  -7.031   4.718  0.00  0.00    +0.000 A 
ATOM     20  C   UNL     1      -2.413  -6.597   5.943  0.00  0.00    +0.002 A 
ATOM     21  C   UNL     1      -1.234  -5.879   6.069  0.00  0.00    +0.024 A 
ATOM     22  C   UNL     1      -0.523  -5.607   4.899  0.00  0.00    +0.043 A 
ATOM     23  N   UNL     1       0.665  -4.919   4.733  0.00  0.00    -0.264 N 
ATOM     24  C   UNL     1       1.041  -4.864   3.437  0.00  0.00    +0.253 C 
ATOM     25  O   UNL     1       2.035  -4.325   2.997  0.00  0.00    -0.272 OA
ENDROOT
BRANCH  23  26
ATOM     26  C   UNL     1       1.427  -4.322   5.833  0.00  0.00    +0.151 C 
BRANCH  26  27
ATOM     27  C   UNL     1       1.094  -2.855   5.936  0.00  0.00    +0.005 A 
ATOM     28  C   UNL     1       1.918  -1.916   5.344  0.00  0.00    +0.008 A 
ATOM     29  C   UNL     1       1.613  -0.572   5.438  0.00  0.00    +0.000 A 
ATOM     30  C   UNL     1       0.484  -0.164   6.124  0.00  0.00    +0.003 A 
ATOM     31  C   UNL     1      -0.341  -1.101   6.716  0.00  0.00    +0.038 A 
ATOM     32  C   UNL     1      -0.040  -2.449   6.618  0.00  0.00    +0.128 A 
ATOM     33  F   UNL     1      -0.849  -3.366   7.192  0.00  0.00    -0.205 F 
ENDBRANCH  26  27
ENDBRANCH  23  26
BRANCH  15  34
ATOM     34  C   UNL     1       1.301  -7.859   2.547  0.00  0.00    +0.137 C 
BRANCH  34  35
ATOM     35  C   UNL     1       2.807  -7.597   2.491  0.00  0.00    +0.175 C 
BRANCH  35  36
ATOM     36  O   UNL     1       3.132  -6.500   3.348  0.00  0.00    -0.393 OA
ATOM     37  H   UNL     1       4.059  -6.229   3.305  0.00  0.00    +0.209 HD
ENDBRANCH  35  36
ENDBRANCH  34  35
ENDBRANCH  15  34
TORSDOF 5
