REMARK  Name = ZINC01776176
REMARK  3 active torsions:
REMARK  status: ('A' for Active; 'I' for Inactive)
REMARK    1  A    between atoms: C_4  and  C_7
REMARK    2  A    between atoms: C_7  and  N_8
REMARK    3  A    between atoms: C_18  and  C_20
REMARK                            x       y       z     vdW  Elec       q    Type
REMARK                         _______ _______ _______ _____ _____    ______ ____
ROOT
ATOM      1  N   UNL     1       4.157  -1.030   1.323  0.00  0.00    +0.383 N 
ATOM      2  C   UNL     1       4.402   0.261   1.978  0.00  0.00    -0.073 C 
ATOM      3  C   UNL     1       4.785   0.031   3.441  0.00  0.00    +0.048 C 
ATOM      4  C   UNL     1       6.059  -0.820   3.502  0.00  0.00    +0.177 C 
ATOM      5  C   UNL     1       5.809  -2.136   2.756  0.00  0.00    +0.048 C 
ATOM      6  C   UNL     1       5.389  -1.827   1.317  0.00  0.00    -0.073 C 
ATOM      7  N   UNL     1       6.428  -1.079   4.872  0.00  0.00    -0.177 NA
ATOM      8  C   UNL     1       7.769  -1.738   4.929  0.00  0.00    +0.138 C 
ATOM      9  C   UNL     1       7.815  -2.164   6.371  0.00  0.00    +0.023 C 
ATOM     10  C   UNL     1       6.531  -2.180   6.779  0.00  0.00    +0.048 C 
ATOM     11  N   UNL     1       5.683  -1.816   5.714  0.00  0.00    -0.273 N 
ATOM     12  C   UNL     1       8.710  -0.639   4.536  0.00  0.00    +0.018 A 
ATOM     13  C   UNL     1       9.906  -0.399   5.157  0.00  0.00    +0.024 A 
ATOM     14  C   UNL     1      10.702   0.653   4.729  0.00  0.00    +0.018 A 
ATOM     15  C   UNL     1      10.281   1.452   3.681  0.00  0.00    +0.019 A 
ATOM     16  C   UNL     1       9.076   1.207   3.051  0.00  0.00    +0.047 A 
ATOM     17  C   UNL     1       8.277   0.153   3.466  0.00  0.00    +0.128 A 
ATOM     18  O   UNL     1       7.119  -0.112   2.844  0.00  0.00    -0.469 OA
ATOM     19 BR   UNL     1      12.358   0.995   5.576  0.00  0.00    -0.050 Br
ATOM     20  H   UNL     1       4.748  -2.051   5.609  0.00  0.00    +0.167 HD
ATOM     21  H   UNL     1       3.437  -1.528   1.826  0.00  0.00    -0.081 HD
ENDROOT
BRANCH  10  22
ATOM     22  C   UNL     1       6.078  -2.529   8.145  0.00  0.00    +0.015 A 
ATOM     23  C   UNL     1       6.428  -3.757   8.707  0.00  0.00    +0.012 A 
ATOM     24  C   UNL     1       6.004  -4.077   9.980  0.00  0.00    +0.021 A 
ATOM     25  C   UNL     1       5.232  -3.182  10.701  0.00  0.00    +0.042 A 
ATOM     26  C   UNL     1       4.881  -1.962  10.150  0.00  0.00    +0.040 A 
ATOM     27  C   UNL     1       5.304  -1.628   8.878  0.00  0.00    +0.051 A 
ATOM     28 CL   UNL     1       4.869  -0.095   8.190  0.00  0.00    -0.083 Cl
ATOM     29 CL   UNL     1       4.702  -3.592  12.302  0.00  0.00    -0.083 Cl
ENDBRANCH  10  22
BRANCH   1  30
ATOM     30  C   UNL     1       3.717  -0.800  -0.059  0.00  0.00    -0.043 C 
BRANCH  30  34
ATOM     31  C   UNL     1      -0.049   1.217  -0.042  0.00  0.00    +0.000 A 
ATOM     32  C   UNL     1       1.126   1.946  -0.049  0.00  0.00    +0.000 A 
ATOM     33  C   UNL     1       2.345   1.293  -0.054  0.00  0.00    +0.002 A 
ATOM     34  C   UNL     1       2.389  -0.089  -0.052  0.00  0.00    -0.064 A 
ATOM     35  C   UNL     1       1.214  -0.818  -0.045  0.00  0.00    +0.002 A 
ATOM     36  C   UNL     1      -0.004  -0.165  -0.041  0.00  0.00    +0.000 A 
ENDBRANCH  30  34
ENDBRANCH   1  30
TORSDOF 3
