REMARK  Name = ZINC59863058
REMARK  5 active torsions:
REMARK  status: ('A' for Active; 'I' for Inactive)
REMARK    1  A    between atoms: C_5  and  N_7
REMARK    2  A    between atoms: N_7  and  C_8
REMARK    3  A    between atoms: C_17  and  N_18
REMARK    4  A    between atoms: N_23  and  C_26
REMARK    5  A    between atoms: C_29  and  O_32
REMARK                            x       y       z     vdW  Elec       q    Type
REMARK                         _______ _______ _______ _____ _____    ______ ____
ROOT
ATOM      1  C   UNL     1       0.056  -2.777   0.177  0.00  0.00    +0.070 A 
ATOM      2  C   UNL     1       0.036  -4.192   0.200  0.00  0.00    +0.007 A 
ATOM      3  C   UNL     1       1.208  -4.950   0.329  0.00  0.00    +0.010 A 
ATOM      4  C   UNL     1       1.140  -6.325   0.345  0.00  0.00    +0.001 A 
ATOM      5  C   UNL     1      -0.074  -6.990   0.235  0.00  0.00    +0.014 A 
ATOM      6  C   UNL     1      -1.254  -6.270   0.105  0.00  0.00    +0.046 A 
ATOM      7  C   UNL     1      -1.201  -4.858   0.088  0.00  0.00    +0.008 A 
ATOM      8  C   UNL     1      -2.401  -4.120  -0.045  0.00  0.00    +0.048 A 
ATOM      9  C   UNL     1      -2.347  -2.729  -0.064  0.00  0.00    +0.048 A 
ATOM     10  C   UNL     1      -1.134  -2.075   0.052  0.00  0.00    +0.149 A 
ATOM     11  C   UNL     1      -3.667  -4.849  -0.159  0.00  0.00    +0.258 C 
ATOM     12  O   UNL     1      -4.711  -4.234  -0.275  0.00  0.00    -0.269 OA
ATOM     13  N   UNL     1      -3.684  -6.195  -0.138  0.00  0.00    -0.202 N 
ATOM     14  C   UNL     1      -2.562  -6.929  -0.015  0.00  0.00    +0.258 C 
ATOM     15  O   UNL     1      -2.631  -8.143  -0.003  0.00  0.00    -0.269 OA
ENDROOT
BRANCH  13  16
ATOM     16  C   UNL     1      -4.915  -6.857  -0.251  0.00  0.00    +0.045 A 
ATOM     17  C   UNL     1      -5.431  -7.553   0.834  0.00  0.00    +0.027 A 
ATOM     18  C   UNL     1      -6.643  -8.205   0.723  0.00  0.00    +0.047 A 
ATOM     19  C   UNL     1      -7.345  -8.165  -0.472  0.00  0.00    +0.117 A 
ATOM     20  C   UNL     1      -6.830  -7.470  -1.557  0.00  0.00    +0.047 A 
ATOM     21  C   UNL     1      -5.621  -6.813  -1.445  0.00  0.00    +0.027 A 
BRANCH  19  22
ATOM     22  O   UNL     1      -8.539  -8.807  -0.582  0.00  0.00    -0.507 OA
ATOM     23  H   UNL     1      -9.301  -8.263  -0.343  0.00  0.00    +0.292 HD
ENDBRANCH  19  22
ENDBRANCH  13  16
BRANCH  10  24
ATOM     24  N   UNL     1      -1.104  -0.595   0.036  0.00  0.00    +0.058 N 
ATOM     25  O   UNL     1      -2.139   0.031   0.019  0.00  0.00    -0.126 OA
ATOM     26  O   UNL     1      -0.045  -0.012   0.039  0.00  0.00    -0.126 OA
ENDBRANCH  10  24
BRANCH   1  27
ATOM     27  N   UNL     1       1.255  -2.098   0.285  0.00  0.00    -0.311 N 
ATOM     28  H   UNL     1       1.548  -1.766   1.149  0.00  0.00    +0.152 HD
BRANCH  27  33
ATOM     29  C   UNL     1       2.470  -2.258  -3.179  0.00  0.00    +0.002 A 
ATOM     30  C   UNL     1       3.610  -1.479  -3.093  0.00  0.00    +0.001 A 
ATOM     31  C   UNL     1       3.970  -0.905  -1.888  0.00  0.00    +0.017 A 
ATOM     32  C   UNL     1       3.191  -1.108  -0.765  0.00  0.00    +0.039 A 
ATOM     33  C   UNL     1       2.045  -1.890  -0.848  0.00  0.00    +0.046 A 
ATOM     34  C   UNL     1       1.687  -2.465  -2.061  0.00  0.00    +0.024 A 
ATOM     35 BR   UNL     1       3.684  -0.324   0.884  0.00  0.00    -0.048 Br
ENDBRANCH  27  33
ENDBRANCH   1  27
TORSDOF 5
