REMARK  Name = ZINC20167956
REMARK  11 active torsions:
REMARK  status: ('A' for Active; 'I' for Inactive)
REMARK    1  A    between atoms: C_1  and  C_2
REMARK    2  A    between atoms: C_2  and  O_3
REMARK    3  A    between atoms: O_3  and  C_4
REMARK    4  A    between atoms: C_4  and  C_6
REMARK    5  A    between atoms: C_7  and  N_33
REMARK    6  A    between atoms: C_9  and  C_10
REMARK    7  A    between atoms: C_16  and  C_28
REMARK    8  A    between atoms: C_18  and  C_23
REMARK    9  A    between atoms: C_28  and  O_30
REMARK   10  A    between atoms: O_30  and  C_31
REMARK   11  A    between atoms: C_31  and  C_32
REMARK                            x       y       z     vdW  Elec       q    Type
REMARK                         _______ _______ _______ _____ _____    ______ ____
ROOT
ATOM      1  C   UNL     1      -4.223   5.704   2.390  0.00  0.00    +0.155 A 
ATOM      2  C   UNL     1      -4.774   6.969   2.385  0.00  0.00    +0.065 A 
ATOM      3  C   UNL     1      -4.066   7.747   1.358  0.00  0.00    +0.024 A 
ATOM      4  C   UNL     1      -4.256   9.085   1.036  0.00  0.00    +0.027 C 
ATOM      5  C   UNL     1      -3.117   6.814   0.747  0.00  0.00    +0.079 A 
ATOM      6  C   UNL     1      -2.299   7.052  -0.347  0.00  0.00    +0.118 C 
ATOM      7  S   UNL     1      -1.317   5.706  -0.943  0.00  0.00    -0.098 S 
ATOM      8  C   UNL     1      -1.062   4.696   0.545  0.00  0.00    +0.177 C 
ATOM      9  C   UNL     1      -2.359   4.570   1.300  0.00  0.00    +0.251 C 
ATOM     10  O   UNL     1      -2.664   3.500   1.782  0.00  0.00    -0.271 OA
ATOM     11  N   UNL     1      -3.188   5.623   1.450  0.00  0.00    -0.270 N 
ENDROOT
BRANCH   4  12
ATOM     12  C   UNL     1      -5.079   9.893   1.841  0.00  0.00    +0.013 A 
ATOM     13  C   UNL     1      -5.191   9.924   3.232  0.00  0.00    +0.015 A 
ATOM     14  C   UNL     1      -6.079  10.822   3.762  0.00  0.00    +0.008 A 
ATOM     15  C   UNL     1      -6.804  11.616   2.927  0.00  0.00    +0.046 A 
ATOM     16  S   UNL     1      -6.259  11.138   1.352  0.00  0.00    -0.097 S 
ENDBRANCH   4  12
BRANCH   8  17
ATOM     17  C   UNL     1      -0.579   3.326   0.145  0.00  0.00    +0.012 A 
ATOM     18  C   UNL     1       0.576   2.698   0.473  0.00  0.00    +0.013 A 
ATOM     19  C   UNL     1       0.811   1.426  -0.015  0.00  0.00    +0.008 A 
ATOM     20  C   UNL     1      -0.122   0.845  -0.808  0.00  0.00    +0.045 A 
ATOM     21  S   UNL     1      -1.378   2.111  -0.891  0.00  0.00    -0.100 S 
ENDBRANCH   8  17
BRANCH   2  22
ATOM     22  N   UNL     1      -5.801   7.420   3.194  0.00  0.00    -0.356 N 
ATOM     23  H   UNL     1      -6.162   8.455   3.100  0.00  0.00    +0.142 HD
ATOM     24  H   UNL     1      -6.258   6.744   3.931  0.00  0.00    +0.142 HD
ENDBRANCH   2  22
BRANCH   1  25
ATOM     25  C   UNL     1      -4.640   4.646   3.223  0.00  0.00    +0.358 C 
ATOM     26  O   UNL     1      -3.814   3.908   3.730  0.00  0.00    -0.243 OA
BRANCH  25  27
ATOM     27  O   UNL     1      -5.955   4.451   3.459  0.00  0.00    -0.460 OA
BRANCH  27  29
ATOM     28  C   UNL     1      -7.828   3.299   4.462  0.00  0.00    +0.048 C 
ATOM     29  C   UNL     1      -6.306   3.361   4.313  0.00  0.00    +0.229 C 
ENDBRANCH  27  29
ENDBRANCH  25  27
ENDBRANCH   1  25
BRANCH   6  30
ATOM     30  C   UNL     1      -2.252   8.319  -0.962  0.00  0.00    +0.348 C 
ATOM     31  O   UNL     1      -2.965   8.558  -1.920  0.00  0.00    -0.244 OA
BRANCH  30  32
ATOM     32  O   UNL     1      -1.416   9.269  -0.488  0.00  0.00    -0.461 OA
BRANCH  32  33
ATOM     33  C   UNL     1      -1.420  10.530  -1.160  0.00  0.00    +0.229 C 
ATOM     34  C   UNL     1      -0.418  11.470  -0.487  0.00  0.00    +0.048 C 
ENDBRANCH  32  33
ENDBRANCH  30  32
ENDBRANCH   6  30
TORSDOF 9
