REMARK  Name = ZINC02933925
REMARK  7 active torsions:
REMARK  status: ('A' for Active; 'I' for Inactive)
REMARK    1  A    between atoms: C_3  and  S_13
REMARK    2  A    between atoms: C_6  and  C_7
REMARK    3  A    between atoms: S_13  and  N_16
REMARK    4  A    between atoms: N_16  and  C_17
REMARK    5  A    between atoms: C_17  and  C_18
REMARK    6  A    between atoms: C_18  and  S_19
REMARK    7  A    between atoms: S_19  and  C_20
REMARK                            x       y       z     vdW  Elec       q    Type
REMARK                         _______ _______ _______ _____ _____    ______ ____
ROOT
ATOM      1  S   UNL     1       4.907   7.753  -0.376  0.00  0.00    +0.058 S 
ATOM      2  O   UNL     1       6.324   7.801  -0.277  0.00  0.00    -0.153 OA
ATOM      3  O   UNL     1       4.213   8.105  -1.565  0.00  0.00    -0.153 OA
ENDROOT
BRANCH   1   6
ATOM      4  C   UNL     1       4.552   9.871   3.021  0.00  0.00    +0.006 A 
ATOM      5  C   UNL     1       5.045   9.055   2.020  0.00  0.00    +0.029 A 
ATOM      6  C   UNL     1       4.278   8.793   0.900  0.00  0.00    +0.105 A 
ATOM      7  C   UNL     1       3.019   9.351   0.779  0.00  0.00    +0.029 A 
ATOM      8  C   UNL     1       2.523  10.163   1.783  0.00  0.00    +0.006 A 
ATOM      9  C   UNL     1       3.291  10.425   2.902  0.00  0.00    -0.044 A 
BRANCH   9  10
ATOM     10  C   UNL     1       2.753  11.315   3.993  0.00  0.00    +0.019 C 
ATOM     11  C   UNL     1       1.469  10.707   4.560  0.00  0.00    +0.008 C 
ATOM     12  C   UNL     1       0.923  11.610   5.668  0.00  0.00    +0.001 C 
ATOM     13  C   UNL     1       0.621  12.996   5.093  0.00  0.00    +0.000 C 
ATOM     14  C   UNL     1       1.906  13.604   4.527  0.00  0.00    +0.001 C 
ATOM     15  C   UNL     1       2.452  12.701   3.419  0.00  0.00    +0.008 C 
ENDBRANCH   9  10
ENDBRANCH   1   6
BRANCH   1  16
ATOM     16  N   UNL     1       4.459   6.202  -0.008  0.00  0.00    -0.189 NA
ATOM     17  H   UNL     1       5.136   5.538   0.200  0.00  0.00    +0.148 HD
BRANCH  16  18
ATOM     18  C   UNL     1       3.042   5.831   0.004  0.00  0.00    +0.117 C 
BRANCH  18  19
ATOM     19  C   UNL     1       2.913   4.307  -0.003  0.00  0.00    +0.091 C 
BRANCH  19  20
ATOM     20  S   UNL     1       1.158   3.848   0.011  0.00  0.00    -0.124 S 
BRANCH  20  21
ATOM     21  C   UNL     1       1.178   2.086   0.002  0.00  0.00    +0.008 A 
ATOM     22  C   UNL     1      -0.017   1.377   0.010  0.00  0.00    +0.016 A 
ATOM     23  C   UNL     1       0.002  -0.004   0.002  0.00  0.00    +0.021 A 
ATOM     24  C   UNL     1       1.209  -0.681  -0.013  0.00  0.00    +0.041 A 
ATOM     25  C   UNL     1       2.401   0.023  -0.020  0.00  0.00    +0.021 A 
ATOM     26  C   UNL     1       2.388   1.404  -0.013  0.00  0.00    +0.016 A 
ATOM     27 CL   UNL     1       1.228  -2.417  -0.021  0.00  0.00    -0.084 Cl
ENDBRANCH  20  21
ENDBRANCH  19  20
ENDBRANCH  18  19
ENDBRANCH  16  18
ENDBRANCH   1  16
TORSDOF 7
