REMARK  Name = ZINC36005383
REMARK  14 active torsions:
REMARK  status: ('A' for Active; 'I' for Inactive)
REMARK    1  A    between atoms: C_1  and  C_2
REMARK    2  A    between atoms: C_2  and  N_3
REMARK    3  A    between atoms: N_9  and  C_12
REMARK    4  A    between atoms: C_12  and  C_13
REMARK    5  A    between atoms: C_14  and  C_32
REMARK    6  A    between atoms: C_15  and  C_22
REMARK    7  A    between atoms: N_20  and  C_21
REMARK    8  A    between atoms: C_25  and  C_28
REMARK    9  A    between atoms: C_28  and  C_29
REMARK   10  A    between atoms: C_28  and  C_30
REMARK   11  A    between atoms: C_28  and  C_31
REMARK   12  A    between atoms: C_32  and  O_34
REMARK   13  A    between atoms: O_34  and  C_35
REMARK   14  A    between atoms: C_35  and  C_36
REMARK                            x       y       z     vdW  Elec       q    Type
REMARK                         _______ _______ _______ _____ _____    ______ ____
ROOT
ATOM      1  C   UNL     1       5.347  -4.723   4.751  0.00  0.00    +0.041 C 
ATOM      2  C   UNL     1       6.135  -5.622   4.125  0.00  0.00    +0.080 C 
ATOM      3  C   UNL     1       6.234  -7.011   4.724  0.00  0.00    +0.144 C 
ATOM      4  N   UNL     1       5.457  -7.266   5.949  0.00  0.00    -0.288 N 
ATOM      5  C   UNL     1       4.714  -6.264   6.457  0.00  0.00    +0.307 C 
ATOM      6  O   UNL     1       4.069  -6.464   7.468  0.00  0.00    -0.252 OA
ATOM      7  N   UNL     1       4.667  -5.052   5.889  0.00  0.00    -0.260 N 
ATOM      8  C   UNL     1       3.835  -4.025   6.519  0.00  0.00    +0.139 C 
ATOM      9  H   UNL     1       5.480  -8.135   6.379  0.00  0.00    +0.151 HD
ENDROOT
BRANCH   3  10
ATOM     10  C   UNL     1       5.791  -8.001   3.678  0.00  0.00    -0.022 A 
ATOM     11  C   UNL     1       4.443  -8.207   3.449  0.00  0.00    +0.006 A 
ATOM     12  C   UNL     1       4.036  -9.115   2.490  0.00  0.00    +0.004 A 
ATOM     13  C   UNL     1       4.977  -9.817   1.759  0.00  0.00    -0.042 A 
ATOM     14  C   UNL     1       6.324  -9.610   1.988  0.00  0.00    +0.004 A 
ATOM     15  C   UNL     1       6.731  -8.699   2.944  0.00  0.00    +0.006 A 
BRANCH  13  16
ATOM     16  C   UNL     1       4.533 -10.808   0.714  0.00  0.00    -0.013 C 
ATOM     17  C   UNL     1       3.700 -10.089  -0.349  0.00  0.00    +0.015 C 
ATOM     18  C   UNL     1       5.761 -11.441   0.058  0.00  0.00    +0.015 C 
ATOM     19  C   UNL     1       3.687 -11.899   1.373  0.00  0.00    +0.015 C 
ENDBRANCH  13  16
ENDBRANCH   3  10
BRANCH   2  20
ATOM     20  C   UNL     1       6.844  -5.281   2.949  0.00  0.00    +0.339 C 
ATOM     21  O   UNL     1       6.453  -5.676   1.867  0.00  0.00    -0.245 OA
BRANCH  20  22
ATOM     22  O   UNL     1       7.953  -4.516   3.028  0.00  0.00    -0.462 OA
BRANCH  22  23
ATOM     23  C   UNL     1       8.619  -4.210   1.801  0.00  0.00    +0.229 C 
ATOM     24  C   UNL     1       9.845  -3.341   2.089  0.00  0.00    +0.048 C 
ENDBRANCH  22  23
ENDBRANCH  20  22
ENDBRANCH   2  20
BRANCH   1  25
ATOM     25  C   UNL     1       5.220  -3.330   4.189  0.00  0.00    +0.136 C 
BRANCH  25  32
ATOM     26  N   UNL     1       0.838  -0.683   0.804  0.00  0.00    -0.300 N 
ATOM     27  C   UNL     1       1.019  -2.001   1.022  0.00  0.00    +0.302 C 
ATOM     28  O   UNL     1       0.581  -2.813   0.230  0.00  0.00    -0.253 OA
ATOM     29  N   UNL     1       1.686  -2.418   2.116  0.00  0.00    -0.283 N 
ATOM     30  C   UNL     1       2.124  -1.461   3.144  0.00  0.00    +0.124 C 
ATOM     31  C   UNL     1       3.614  -1.690   3.419  0.00  0.00    +0.104 C 
ATOM     32  N   UNL     1       3.836  -3.103   3.751  0.00  0.00    -0.294 NA
ATOM     33  C   UNL     1       3.491  -3.977   2.622  0.00  0.00    +0.104 C 
ATOM     34  C   UNL     1       1.990  -3.843   2.317  0.00  0.00    +0.124 C 
ATOM     35  H   UNL     1       1.123  -0.038   1.470  0.00  0.00    +0.150 HD
BRANCH  26  37
ATOM     36  C   UNL     1       0.124   1.303  -0.432  0.00  0.00    +0.024 C 
ATOM     37  C   UNL     1       0.210  -0.225  -0.437  0.00  0.00    +0.102 C 
ENDBRANCH  26  37
ENDBRANCH  25  32
ENDBRANCH   1  25
TORSDOF 8
