REMARK  Name = ZINC59819199
REMARK  10 active torsions:
REMARK  status: ('A' for Active; 'I' for Inactive)
REMARK    1  A    between atoms: C_1  and  C_2
REMARK    2  A    between atoms: C_2  and  N_3
REMARK    3  A    between atoms: N_3  and  C_4
REMARK    4  A    between atoms: C_5  and  C_7
REMARK    5  A    between atoms: C_7  and  C_9
REMARK    6  A    between atoms: C_7  and  S_10
REMARK    7  A    between atoms: S_10  and  C_11
REMARK    8  A    between atoms: N_16  and  N_17
REMARK    9  A    between atoms: C_18  and  C_19
REMARK   10  A    between atoms: C_24  and  O_25
REMARK                            x       y       z     vdW  Elec       q    Type
REMARK                         _______ _______ _______ _____ _____    ______ ____
ROOT
ATOM      1  C   UNL     1       0.473  -2.594  -6.005  0.00  0.00    +0.211 A 
ATOM      2  N   UNL     1       0.011  -3.246  -7.078  0.00  0.00    -0.186 NA
ATOM      3  C   UNL     1       1.016  -3.584  -7.858  0.00  0.00    +0.232 A 
ATOM      4  N   UNL     1       2.156  -3.145  -7.284  0.00  0.00    -0.245 N 
ATOM      5  N   UNL     1       1.779  -2.505  -6.091  0.00  0.00    -0.144 NA
ATOM      6  N   UNL     1       0.920  -4.269  -9.055  0.00  0.00    -0.205 N 
ATOM      7  H   UNL     1       1.722  -4.474  -9.562  0.00  0.00    +0.177 HD
ATOM      8  H   UNL     1       3.057  -3.248  -7.628  0.00  0.00    +0.192 HD
ENDROOT
BRANCH   6   9
ATOM      9  N   UNL     1      -0.334  -4.667  -9.537  0.00  0.00    -0.187 NA
ATOM     10  C   UNL     1      -0.423  -5.311 -10.661  0.00  0.00    +0.142 C 
BRANCH  10  11
ATOM     11  C   UNL     1      -1.742  -5.729 -11.167  0.00  0.00    +0.038 A 
ATOM     12  C   UNL     1      -1.842  -6.427 -12.373  0.00  0.00    +0.028 A 
ATOM     13  C   UNL     1      -3.080  -6.816 -12.842  0.00  0.00    +0.020 A 
ATOM     14  C   UNL     1      -4.225  -6.518 -12.121  0.00  0.00    +0.034 A 
ATOM     15  C   UNL     1      -4.138  -5.829 -10.926  0.00  0.00    +0.061 A 
ATOM     16  C   UNL     1      -2.902  -5.436 -10.438  0.00  0.00    +0.139 A 
ATOM     17 BR   UNL     1      -5.709  -5.427  -9.952  0.00  0.00    -0.046 Br
ATOM     18 BR   UNL     1      -3.214  -7.760 -14.475  0.00  0.00    -0.050 Br
BRANCH  16  19
ATOM     19  O   UNL     1      -2.816  -4.763  -9.261  0.00  0.00    -0.505 OA
ATOM     20  H   UNL     1      -2.868  -3.802  -9.352  0.00  0.00    +0.292 HD
ENDBRANCH  16  19
ENDBRANCH  10  11
ENDBRANCH   6   9
BRANCH   1  21
ATOM     21  S   UNL     1      -0.512  -1.954  -4.693  0.00  0.00    -0.072 S 
BRANCH  21  22
ATOM     22  C   UNL     1       0.692  -1.190  -3.572  0.00  0.00    +0.137 C 
ATOM     23  C   UNL     1       1.364  -0.008  -4.273  0.00  0.00    +0.029 C 
BRANCH  22  26
ATOM     24  N   UNL     1       0.688  -0.476  -1.203  0.00  0.00    -0.304 N 
ATOM     25  C   UNL     1       2.135  -0.701  -1.182  0.00  0.00    +0.132 C 
ATOM     26  C   UNL     1      -0.013  -0.705  -2.332  0.00  0.00    +0.228 C 
ATOM     27  O   UNL     1      -1.211  -0.518  -2.349  0.00  0.00    -0.274 OA
BRANCH  24  29
ATOM     28  C   UNL     1      -0.019   1.526   0.010  0.00  0.00    +0.024 C 
ATOM     29  C   UNL     1       0.002  -0.004   0.002  0.00  0.00    +0.104 C 
ENDBRANCH  24  29
ENDBRANCH  22  26
ENDBRANCH  21  22
ENDBRANCH   1  21
TORSDOF 7
