REMARK  Name = ZINC36581343
REMARK  15 active torsions:
REMARK  status: ('A' for Active; 'I' for Inactive)
REMARK    1  A    between atoms: C_1  and  C_2
REMARK    2  A    between atoms: C_5  and  C_8
REMARK    3  A    between atoms: C_8  and  C_10
REMARK    4  A    between atoms: C_8  and  N_17
REMARK    5  A    between atoms: N_12  and  C_13
REMARK    6  A    between atoms: C_13  and  C_14
REMARK    7  A    between atoms: C_13  and  C_15
REMARK    8  A    between atoms: C_13  and  C_16
REMARK    9  A    between atoms: N_17  and  C_28
REMARK   10  A    between atoms: C_18  and  C_20
REMARK   11  A    between atoms: C_20  and  C_21
REMARK   12  A    between atoms: C_26  and  C_27
REMARK   13  A    between atoms: C_28  and  C_29
REMARK   14  A    between atoms: C_28  and  C_30
REMARK   15  A    between atoms: C_28  and  C_31
REMARK                            x       y       z     vdW  Elec       q    Type
REMARK                         _______ _______ _______ _____ _____    ______ ____
ROOT
ATOM      1  C   UNL     1       1.202  -3.631   0.030  0.00  0.00    +0.193 C 
ENDROOT
BRANCH   1   6
ATOM      2  C   UNL     1       3.579  -8.246  -2.507  0.00  0.00    +0.044 C 
ATOM      3  C   UNL     1       2.959  -7.042  -1.846  0.00  0.00    -0.050 A 
ATOM      4  C   UNL     1       3.763  -6.019  -1.381  0.00  0.00    +0.004 A 
ATOM      5  C   UNL     1       3.195  -4.914  -0.774  0.00  0.00    +0.006 A 
ATOM      6  C   UNL     1       1.822  -4.834  -0.633  0.00  0.00    -0.018 A 
ATOM      7  C   UNL     1       1.018  -5.857  -1.099  0.00  0.00    +0.006 A 
ATOM      8  C   UNL     1       1.586  -6.959  -1.709  0.00  0.00    +0.004 A 
ENDBRANCH   1   6
BRANCH   1   9
ATOM      9  C   UNL     1       1.045  -2.525  -0.982  0.00  0.00    +0.239 C 
ATOM     10  O   UNL     1      -0.043  -2.024  -1.170  0.00  0.00    -0.273 OA
ATOM     11  N   UNL     1       2.115  -2.092  -1.678  0.00  0.00    -0.309 N 
ATOM     12  H   UNL     1       2.986  -2.493  -1.528  0.00  0.00    +0.149 HD
BRANCH  11  13
ATOM     13  C   UNL     1       1.963  -1.017  -2.662  0.00  0.00    +0.026 C 
ATOM     14  C   UNL     1       1.442   0.241  -1.966  0.00  0.00    +0.031 C 
ATOM     15  C   UNL     1       3.319  -0.720  -3.306  0.00  0.00    +0.031 C 
ATOM     16  C   UNL     1       0.970  -1.451  -3.742  0.00  0.00    +0.031 C 
ENDBRANCH  11  13
ENDBRANCH   1   9
BRANCH   1  17
ATOM     17  N   UNL     1      -0.113  -3.992   0.566  0.00  0.00    -0.281 N 
ATOM     18  C   UNL     1      -1.124  -4.290  -0.274  0.00  0.00    +0.221 C 
ATOM     19  O   UNL     1      -0.964  -4.199  -1.472  0.00  0.00    -0.275 OA
BRANCH  17  20
ATOM     20  C   UNL     1      -0.329  -4.028   2.014  0.00  0.00    +0.030 C 
ATOM     21  C   UNL     1       0.873  -3.402   2.725  0.00  0.00    +0.031 C 
ATOM     22  C   UNL     1      -1.594  -3.241   2.362  0.00  0.00    +0.031 C 
ATOM     23  C   UNL     1      -0.490  -5.480   2.470  0.00  0.00    +0.031 C 
ENDBRANCH  17  20
BRANCH  18  24
ATOM     24  C   UNL     1      -2.454  -4.736   0.277  0.00  0.00    +0.131 C 
BRANCH  24  25
ATOM     25  C   UNL     1      -3.370  -5.107  -0.860  0.00  0.00    -0.036 A 
ATOM     26  C   UNL     1      -4.258  -4.175  -1.365  0.00  0.00    +0.004 A 
ATOM     27  C   UNL     1      -5.099  -4.515  -2.408  0.00  0.00    +0.000 A 
ATOM     28  C   UNL     1      -5.051  -5.787  -2.948  0.00  0.00    +0.000 A 
ATOM     29  C   UNL     1      -4.162  -6.718  -2.445  0.00  0.00    +0.003 A 
ATOM     30  C   UNL     1      -3.319  -6.377  -1.404  0.00  0.00    -0.047 A 
ATOM     31  C   UNL     1      -2.346  -7.391  -0.858  0.00  0.00    +0.044 C 
ENDBRANCH  24  25
ENDBRANCH  18  24
ENDBRANCH   1  17
TORSDOF 7
