REMARK  Name = ZINC34657456
REMARK  14 active torsions:
REMARK  status: ('A' for Active; 'I' for Inactive)
REMARK    1  A    between atoms: C_1  and  C_2
REMARK    2  A    between atoms: C_6  and  C_34
REMARK    3  A    between atoms: C_8  and  O_11
REMARK    4  A    between atoms: O_11  and  C_12
REMARK    5  A    between atoms: C_12  and  C_14
REMARK    6  A    between atoms: C_14  and  O_15
REMARK    7  A    between atoms: O_15  and  C_16
REMARK    8  A    between atoms: C_16  and  C_18
REMARK    9  A    between atoms: C_20  and  N_25
REMARK   10  A    between atoms: C_23  and  O_24
REMARK   11  A    between atoms: N_25  and  S_26
REMARK   12  A    between atoms: S_26  and  C_29
REMARK   13  A    between atoms: C_34  and  C_35
REMARK   14  A    between atoms: C_34  and  C_36
REMARK                            x       y       z     vdW  Elec       q    Type
REMARK                         _______ _______ _______ _____ _____    ______ ____
ROOT
ATOM      1  C   UNL     1      -4.626  -4.192   5.583  0.00  0.00    +0.102 A 
ATOM      2  C   UNL     1      -3.757  -3.852   6.624  0.00  0.00    +0.043 A 
ATOM      3  C   UNL     1      -4.187  -3.943   7.936  0.00  0.00    +0.049 A 
ATOM      4  C   UNL     1      -5.479  -4.373   8.220  0.00  0.00    +0.028 A 
ATOM      5  C   UNL     1      -6.342  -4.711   7.198  0.00  0.00    +0.048 A 
ATOM      6  C   UNL     1      -5.928  -4.618   5.877  0.00  0.00    +0.131 A 
ENDROOT
BRANCH   1   7
ATOM      7  C   UNL     1      -4.176  -4.098   4.182  0.00  0.00    +0.343 C 
ATOM      8  O   UNL     1      -4.936  -4.390   3.280  0.00  0.00    -0.245 OA
BRANCH   7   9
ATOM      9  O   UNL     1      -2.924  -3.688   3.903  0.00  0.00    -0.450 OA
BRANCH   9  10
ATOM     10  C   UNL     1      -2.555  -3.620   2.524  0.00  0.00    +0.352 C 
BRANCH  10  11
ATOM     11  C   UNL     1      -1.130  -3.146   2.407  0.00  0.00    +0.346 C 
ATOM     12  O   UNL     1      -0.494  -2.892   3.403  0.00  0.00    -0.247 OA
BRANCH  11  13
ATOM     13  O   UNL     1      -0.566  -3.006   1.197  0.00  0.00    -0.459 OA
BRANCH  13  19
ATOM     14  C   UNL     1       0.109   0.971  -0.238  0.00  0.00    +0.007 C 
ATOM     15  C   UNL     1       0.085  -0.558  -0.170  0.00  0.00    -0.011 C 
ATOM     16  C   UNL     1       0.784  -1.134  -1.403  0.00  0.00    +0.004 C 
ATOM     17  C   UNL     1       0.759  -2.663  -1.335  0.00  0.00    +0.007 C 
ATOM     18  C   UNL     1       1.487  -3.128  -0.072  0.00  0.00    +0.032 C 
ATOM     19  C   UNL     1       0.788  -2.552   1.161  0.00  0.00    +0.180 C 
ATOM     20  C   UNL     1       0.813  -1.023   1.093  0.00  0.00    +0.048 C 
BRANCH  18  21
ATOM     21  C   UNL     1       1.463  -4.657  -0.003  0.00  0.00    -0.011 C 
ATOM     22  C   UNL     1       2.162  -5.233  -1.236  0.00  0.00    +0.007 C 
ATOM     23  C   UNL     1       2.191  -5.122   1.259  0.00  0.00    +0.007 C 
ENDBRANCH  18  21
ENDBRANCH  13  19
ENDBRANCH  11  13
ENDBRANCH  10  11
ENDBRANCH   9  10
ENDBRANCH   7   9
ENDBRANCH   1   7
BRANCH   6  24
ATOM     24  O   UNL     1      -6.781  -4.945   4.873  0.00  0.00    -0.506 OA
ATOM     25  H   UNL     1      -6.746  -5.877   4.615  0.00  0.00    +0.292 HD
ENDBRANCH   6  24
BRANCH   3  26
ATOM     26  N   UNL     1      -3.319  -3.603   8.980  0.00  0.00    -0.216 N 
ATOM     27  H   UNL     1      -2.407  -3.933   8.979  0.00  0.00    +0.174 HD
BRANCH  26  28
ATOM     28  S   UNL     1      -3.849  -2.637  10.216  0.00  0.00    +0.079 S 
ATOM     29  O   UNL     1      -5.045  -3.227  10.707  0.00  0.00    -0.149 OA
ATOM     30  O   UNL     1      -2.724  -2.389  11.049  0.00  0.00    -0.149 OA
BRANCH  28  31
ATOM     31  C   UNL     1      -4.304  -1.089   9.510  0.00  0.00    +0.146 A 
ATOM     32  C   UNL     1      -5.526  -0.658   9.111  0.00  0.00    +0.036 A 
ATOM     33  C   UNL     1      -5.649   0.611   8.579  0.00  0.00    +0.010 A 
ATOM     34  C   UNL     1      -4.543   1.389   8.471  0.00  0.00    +0.047 A 
ATOM     35  S   UNL     1      -3.276   0.324   9.140  0.00  0.00    -0.077 S 
ENDBRANCH  28  31
ENDBRANCH  26  28
ENDBRANCH   3  26
TORSDOF 11
