REMARK  Name = ZINC16311629
REMARK  9 active torsions:
REMARK  status: ('A' for Active; 'I' for Inactive)
REMARK    1  A    between atoms: C_1  and  C_2
REMARK    2  A    between atoms: C_2  and  C_3
REMARK    3  A    between atoms: C_2  and  C_4
REMARK    4  A    between atoms: C_9  and  N_10
REMARK    5  A    between atoms: N_10  and  C_11
REMARK    6  A    between atoms: C_11  and  N_13
REMARK    7  A    between atoms: N_13  and  N_14
REMARK    8  A    between atoms: C_15  and  C_17
REMARK    9  A    between atoms: C_17  and  C_18
REMARK                            x       y       z     vdW  Elec       q    Type
REMARK                         _______ _______ _______ _____ _____    ______ ____
ROOT
ATOM      1  N   UNL     1       4.007  -2.314   1.562  0.00  0.00    -0.246 N 
ATOM      2  H   UNL     1       4.873  -2.737   1.672  0.00  0.00    +0.172 HD
ENDROOT
BRANCH   1   3
ATOM      3  N   UNL     1       3.216  -2.034   2.684  0.00  0.00    -0.235 N 
ATOM      4  C   UNL     1       3.658  -2.354   3.917  0.00  0.00    +0.233 C 
ATOM      5  O   UNL     1       4.741  -2.882   4.055  0.00  0.00    -0.274 OA
ATOM      6  H   UNL     1       2.350  -1.612   2.574  0.00  0.00    +0.173 HD
BRANCH   4   7
ATOM      7  C   UNL     1       2.807  -2.053   5.124  0.00  0.00    +0.134 C 
BRANCH   7   8
ATOM      8  C   UNL     1       3.525  -2.505   6.370  0.00  0.00    -0.014 A 
ATOM      9  C   UNL     1       3.376  -3.684   6.994  0.00  0.00    +0.087 A 
ATOM     10  N   UNL     1       4.192  -3.737   8.091  0.00  0.00    -0.360 N 
ATOM     11  H   UNL     1       4.259  -4.490   8.700  0.00  0.00    +0.165 HD
ATOM     12  C   UNL     1       4.904  -2.564   8.202  0.00  0.00    +0.047 A 
ATOM     13  C   UNL     1       4.523  -1.743   7.125  0.00  0.00    +0.003 A 
ATOM     14  C   UNL     1       5.094  -0.478   6.977  0.00  0.00    +0.010 A 
ATOM     15  C   UNL     1       6.025  -0.045   7.878  0.00  0.00    +0.001 A 
ATOM     16  C   UNL     1       6.409  -0.852   8.940  0.00  0.00    +0.002 A 
ATOM     17  C   UNL     1       5.850  -2.101   9.110  0.00  0.00    +0.026 A 
ENDBRANCH   7   8
ENDBRANCH   4   7
ENDBRANCH   1   3
BRANCH   1  18
ATOM     18  C   UNL     1       3.565  -1.995   0.330  0.00  0.00    +0.151 C 
ATOM     19  S   UNL     1       4.532  -2.336  -1.042  0.00  0.00    -0.017 S 
BRANCH  18  20
ATOM     20  N   UNL     1       2.362  -1.407   0.177  0.00  0.00    -0.296 N 
ATOM     21  H   UNL     1       1.842  -1.156   0.956  0.00  0.00    +0.154 HD
BRANCH  20  27
ATOM     22  C   UNL     1       0.557  -1.509  -1.425  0.00  0.00    -0.024 A 
ATOM     23  C   UNL     1       0.066  -1.257  -2.692  0.00  0.00    +0.006 A 
ATOM     24  C   UNL     1       0.874  -0.663  -3.643  0.00  0.00    +0.000 A 
ATOM     25  C   UNL     1       2.177  -0.318  -3.330  0.00  0.00    +0.002 A 
ATOM     26  C   UNL     1       2.674  -0.567  -2.066  0.00  0.00    +0.023 A 
ATOM     27  C   UNL     1       1.863  -1.159  -1.107  0.00  0.00    +0.036 A 
BRANCH  22  29
ATOM     28  C   UNL     1      -1.536  -1.264  -0.119  0.00  0.00    +0.012 C 
ATOM     29  C   UNL     1      -0.324  -2.158  -0.390  0.00  0.00    +0.015 C 
ATOM     30  C   UNL     1      -0.799  -3.518  -0.903  0.00  0.00    +0.012 C 
ENDBRANCH  22  29
ENDBRANCH  20  27
ENDBRANCH  18  20
ENDBRANCH   1  18
TORSDOF 7
