REMARK  Name = ZINC32915916
REMARK  6 active torsions:
REMARK  status: ('A' for Active; 'I' for Inactive)
REMARK    1  A    between atoms: C_1  and  C_2
REMARK    2  A    between atoms: C_5  and  N_8
REMARK    3  A    between atoms: N_8  and  C_9
REMARK    4  A    between atoms: C_14  and  N_15
REMARK    5  A    between atoms: N_15  and  S_16
REMARK    6  A    between atoms: S_16  and  C_19
REMARK                            x       y       z     vdW  Elec       q    Type
REMARK                         _______ _______ _______ _____ _____    ______ ____
ROOT
ATOM      1  N   UNL     1       0.258   0.870   0.258  0.00  0.00    -0.214 N 
ATOM      2  H   UNL     1       0.148  -0.221   0.164  0.00  0.00    +0.174 HD
ENDROOT
BRANCH   1   8
ATOM      3  C   UNL     1      -1.879   1.192   1.351  0.00  0.00    +0.054 A 
ATOM      4  C   UNL     1      -2.987   1.986   1.606  0.00  0.00    +0.025 A 
ATOM      5  C   UNL     1      -3.083   3.242   1.038  0.00  0.00    +0.002 A 
ATOM      6  C   UNL     1      -2.076   3.712   0.214  0.00  0.00    +0.002 A 
ATOM      7  C   UNL     1      -0.966   2.929  -0.042  0.00  0.00    +0.026 A 
ATOM      8  C   UNL     1      -0.864   1.665   0.519  0.00  0.00    +0.069 A 
BRANCH   3   9
ATOM      9  N   UNL     1      -1.779  -0.081   1.925  0.00  0.00    -0.313 N 
ATOM     10  H   UNL     1      -0.965  -0.757   1.626  0.00  0.00    +0.152 HD
BRANCH   9  15
ATOM     11  C   UNL     1      -5.572  -1.749   5.797  0.00  0.00    +0.044 C 
ATOM     12  C   UNL     1      -4.564  -1.306   4.768  0.00  0.00    -0.050 A 
ATOM     13  C   UNL     1      -4.147  -2.186   3.787  0.00  0.00    +0.005 A 
ATOM     14  C   UNL     1      -3.224  -1.784   2.843  0.00  0.00    +0.023 A 
ATOM     15  C   UNL     1      -2.714  -0.492   2.879  0.00  0.00    +0.031 A 
ATOM     16  C   UNL     1      -3.131   0.389   3.869  0.00  0.00    +0.023 A 
ATOM     17  C   UNL     1      -4.059  -0.019   4.807  0.00  0.00    +0.005 A 
ENDBRANCH   9  15
ENDBRANCH   3   9
ENDBRANCH   1   8
BRANCH   1  18
ATOM     18  S   UNL     1       1.749   1.570   0.089  0.00  0.00    +0.073 S 
ATOM     19  O   UNL     1       2.685   0.508  -0.031  0.00  0.00    -0.150 OA
ATOM     20  O   UNL     1       1.613   2.580  -0.901  0.00  0.00    -0.150 OA
BRANCH  18  21
ATOM     21  C   UNL     1       2.112   2.394   1.603  0.00  0.00    +0.116 A 
ATOM     22  C   UNL     1       2.261   3.753   1.642  0.00  0.00    +0.031 A 
ATOM     23  C   UNL     1       2.542   4.459   2.811  0.00  0.00    +0.026 A 
ATOM     24  C   UNL     1       2.696   3.782   4.007  0.00  0.00    +0.042 A 
ATOM     25  C   UNL     1       2.548   2.400   3.951  0.00  0.00    +0.017 A 
ATOM     26  C   UNL     1       2.261   1.669   2.797  0.00  0.00    +0.011 A 
ATOM     27  C   UNL     1       2.147   0.275   2.932  0.00  0.00    +0.010 A 
ATOM     28  C   UNL     1       2.321  -0.288   4.168  0.00  0.00    +0.001 A 
ATOM     29  C   UNL     1       2.607   0.457   5.312  0.00  0.00    +0.014 A 
ATOM     30  C   UNL     1       2.727   1.833   5.221  0.00  0.00    +0.047 A 
ATOM     31  C   UNL     1       3.003   2.981   6.093  0.00  0.00    +0.249 C 
ATOM     32  O   UNL     1       3.220   2.935   7.290  0.00  0.00    -0.270 OA
ATOM     33  N   UNL     1       2.974   4.105   5.329  0.00  0.00    -0.281 N 
ATOM     34  H   UNL     1       3.132   5.154   5.617  0.00  0.00    +0.155 HD
ENDBRANCH  18  21
ENDBRANCH   1  18
TORSDOF 5
