REMARK  Name = ZINC01386105
REMARK  2 active torsions:
REMARK  status: ('A' for Active; 'I' for Inactive)
REMARK    1  A    between atoms: C_1  and  N_2
REMARK    2  A    between atoms: C_10  and  C_11
REMARK                            x       y       z     vdW  Elec       q    Type
REMARK                         _______ _______ _______ _____ _____    ______ ____
ROOT
ATOM      1  C   UNL     1      -0.037   1.460   0.012  0.00  0.00    +0.151 C 
ATOM      2  N   UNL     1      -0.007  -0.004   0.003  0.00  0.00    -0.327 N 
ATOM      3  C   UNL     1      -0.094  -0.820  -1.110  0.00  0.00    +0.070 A 
ATOM      4  C   UNL     1      -0.228  -0.579  -2.470  0.00  0.00    +0.049 A 
ATOM      5  C   UNL     1      -0.288  -1.637  -3.353  0.00  0.00    +0.061 A 
ATOM      6  C   UNL     1      -0.217  -2.946  -2.889  0.00  0.00    +0.061 A 
ATOM      7  C   UNL     1      -0.085  -3.204  -1.544  0.00  0.00    +0.051 A 
ATOM      8  C   UNL     1      -0.021  -2.141  -0.635  0.00  0.00    +0.091 A 
ATOM      9  N   UNL     1       0.105  -2.077   0.713  0.00  0.00    -0.227 NA
ATOM     10  C   UNL     1       0.120  -0.822   1.095  0.00  0.00    +0.147 A 
ATOM     11 CL   UNL     1      -0.296  -4.264  -4.016  0.00  0.00    -0.082 Cl
ATOM     12 CL   UNL     1      -0.456  -1.333  -5.054  0.00  0.00    -0.082 Cl
ENDROOT
BRANCH  10  13
ATOM     13  C   UNL     1       0.250  -0.361   2.490  0.00  0.00    +0.082 A 
ATOM     14  C   UNL     1       1.258   0.526   2.850  0.00  0.00    +0.018 A 
ATOM     15  C   UNL     1       1.351   0.941   4.181  0.00  0.00    +0.018 A 
ATOM     16  C   UNL     1       0.467   0.481   5.100  0.00  0.00    +0.086 A 
ATOM     17  N   UNL     1      -0.519  -0.384   4.755  0.00  0.00    -0.329 N 
ATOM     18  H   UNL     1      -1.138  -0.698   5.433  0.00  0.00    +0.168 HD
ATOM     19  C   UNL     1      -0.655  -0.810   3.485  0.00  0.00    +0.259 A 
ATOM     20  O   UNL     1      -1.551  -1.583   3.192  0.00  0.00    -0.267 OA
ENDBRANCH  10  13
TORSDOF 1
