REMARK  Name = ZINC14383052
REMARK  9 active torsions:
REMARK  status: ('A' for Active; 'I' for Inactive)
REMARK    1  A    between atoms: C_4  and  C_7
REMARK    2  A    between atoms: C_7  and  N_8
REMARK    3  A    between atoms: C_9  and  N_39
REMARK    4  A    between atoms: C_10  and  N_17
REMARK    5  A    between atoms: N_17  and  C_18
REMARK    6  A    between atoms: C_18  and  C_19
REMARK    7  A    between atoms: C_25  and  C_27
REMARK    8  A    between atoms: C_27  and  C_28
REMARK    9  A    between atoms: C_28  and  C_29
REMARK                            x       y       z     vdW  Elec       q    Type
REMARK                         _______ _______ _______ _____ _____    ______ ____
ROOT
ATOM      1  N   UNL     1       1.168   3.344  -0.028  0.00  0.00    -0.260 N 
ATOM      2  C   UNL     1       2.321   4.044  -0.062  0.00  0.00    +0.221 C 
ATOM      3  O   UNL     1       3.371   3.475  -0.276  0.00  0.00    -0.275 OA
ENDROOT
BRANCH   1   6
ATOM      4  N   UNL     1       0.680  -0.068  -1.303  0.00  0.00    -0.276 N 
ATOM      5  C   UNL     1       0.638   1.305  -1.228  0.00  0.00    +0.128 A 
ATOM      6  C   UNL     1       1.194   1.937  -0.134  0.00  0.00    +0.140 A 
ATOM      7  C   UNL     1       1.787   1.154   0.874  0.00  0.00    +0.277 A 
ATOM      8  O   UNL     1       2.281   1.686   1.854  0.00  0.00    -0.266 OA
ATOM      9  N   UNL     1       1.801  -0.188   0.752  0.00  0.00    -0.273 N 
ATOM     10  H   UNL     1       2.221  -0.745   1.468  0.00  0.00    +0.173 HD
ATOM     11  C   UNL     1       1.255  -0.786  -0.321  0.00  0.00    +0.331 A 
ATOM     12  O   UNL     1       1.280  -1.999  -0.406  0.00  0.00    -0.246 OA
BRANCH   5  13
ATOM     13  N   UNL     1       0.051   2.039  -2.230  0.00  0.00    -0.343 N 
ATOM     14  H   UNL     1      -0.273   1.595  -3.030  0.00  0.00    +0.144 HD
ATOM     15  H   UNL     1      -0.039   3.000  -2.139  0.00  0.00    +0.144 HD
ENDBRANCH   5  13
BRANCH   4  16
ATOM     16  C   UNL     1       0.094  -0.752  -2.458  0.00  0.00    +0.163 C 
BRANCH  16  20
ATOM     17  C   UNL     1      -4.011  -1.627  -1.665  0.00  0.00    +0.000 A 
ATOM     18  C   UNL     1      -3.663  -0.428  -2.259  0.00  0.00    +0.000 A 
ATOM     19  C   UNL     1      -2.334  -0.145  -2.515  0.00  0.00    +0.005 A 
ATOM     20  C   UNL     1      -1.355  -1.060  -2.178  0.00  0.00    -0.028 A 
ATOM     21  C   UNL     1      -1.704  -2.261  -1.589  0.00  0.00    +0.005 A 
ATOM     22  C   UNL     1      -3.032  -2.542  -1.327  0.00  0.00    +0.000 A 
ENDBRANCH  16  20
ENDBRANCH   4  16
ENDBRANCH   1   6
BRANCH   1  23
ATOM     23  C   UNL     1      -0.111   4.043   0.119  0.00  0.00    +0.149 C 
BRANCH  23  24
ATOM     24  C   UNL     1      -0.513   4.054   1.571  0.00  0.00    -0.030 A 
ATOM     25  C   UNL     1      -1.181   2.972   2.111  0.00  0.00    +0.005 A 
ATOM     26  C   UNL     1      -1.546   2.980   3.445  0.00  0.00    +0.000 A 
ATOM     27  C   UNL     1      -1.252   4.075   4.235  0.00  0.00    +0.000 A 
ATOM     28  C   UNL     1      -0.589   5.160   3.693  0.00  0.00    +0.000 A 
ATOM     29  C   UNL     1      -0.219   5.150   2.361  0.00  0.00    +0.005 A 
ENDBRANCH  23  24
ENDBRANCH   1  23
BRANCH   2  30
ATOM     30  C   UNL     1       2.304   5.534   0.167  0.00  0.00    +0.101 C 
BRANCH  30  31
ATOM     31  C   UNL     1       3.708   6.100  -0.054  0.00  0.00    +0.046 C 
BRANCH  31  32
ATOM     32  C   UNL     1       3.691   7.589   0.175  0.00  0.00    -0.022 A 
ATOM     33  C   UNL     1       3.554   8.539  -0.764  0.00  0.00    +0.087 A 
ATOM     34  N   UNL     1       3.583   9.777  -0.182  0.00  0.00    -0.360 N 
ATOM     35  H   UNL     1       3.501  10.619  -0.658  0.00  0.00    +0.165 HD
ATOM     36  C   UNL     1       3.753   9.651   1.179  0.00  0.00    +0.047 A 
ATOM     37  C   UNL     1       3.828   8.275   1.462  0.00  0.00    +0.003 A 
ATOM     38  C   UNL     1       4.000   7.843   2.778  0.00  0.00    +0.010 A 
ATOM     39  C   UNL     1       4.095   8.761   3.786  0.00  0.00    +0.001 A 
ATOM     40  C   UNL     1       4.022  10.119   3.512  0.00  0.00    +0.002 A 
ATOM     41  C   UNL     1       3.852  10.568   2.220  0.00  0.00    +0.026 A 
ENDBRANCH  31  32
ENDBRANCH  30  31
ENDBRANCH   2  30
TORSDOF 9
