REMARK  Name = ZINC05695448
REMARK  6 active torsions:
REMARK  status: ('A' for Active; 'I' for Inactive)
REMARK    1  A    between atoms: C_1  and  O_2
REMARK    2  A    between atoms: O_2  and  C_3
REMARK    3  A    between atoms: C_3  and  C_5
REMARK    4  A    between atoms: C_5  and  N_6
REMARK    5  A    between atoms: C_8  and  C_15
REMARK    6  A    between atoms: N_21  and  C_22
REMARK                            x       y       z     vdW  Elec       q    Type
REMARK                         _______ _______ _______ _____ _____    ______ ____
ROOT
ATOM      1  C   UNL     1       5.660   3.362  -3.574  0.00  0.00    +0.030 C 
ATOM      2  C   UNL     1       4.736   2.374  -3.426  0.00  0.00    +0.078 C 
ATOM      3  C   UNL     1       4.876   0.968  -3.623  0.00  0.00    +0.256 C 
ATOM      4  O   UNL     1       5.940   0.490  -3.973  0.00  0.00    -0.269 OA
ATOM      5  N   UNL     1       3.825   0.197  -3.408  0.00  0.00    -0.260 N 
ATOM      6  C   UNL     1       2.625   0.754  -3.016  0.00  0.00    +0.166 C 
ATOM      7  N   UNL     1       1.481   0.156  -2.763  0.00  0.00    -0.226 NA
ATOM      8  S   UNL     1       3.022   2.493  -2.933  0.00  0.00    -0.049 S 
ATOM      9  H   UNL     1       3.905  -0.892  -3.542  0.00  0.00    +0.157 HD
ENDROOT
BRANCH   1  12
ATOM     10  N   UNL     1       9.036   1.994  -3.761  0.00  0.00    -0.335 N 
ATOM     11  C   UNL     1       7.766   1.990  -3.278  0.00  0.00    +0.095 A 
ATOM     12  C   UNL     1       7.060   3.021  -3.832  0.00  0.00    +0.001 A 
ATOM     13  C   UNL     1       7.985   3.718  -4.746  0.00  0.00    +0.007 A 
ATOM     14  C   UNL     1       9.208   3.033  -4.654  0.00  0.00    +0.050 A 
ATOM     15  C   UNL     1      10.291   3.467  -5.409  0.00  0.00    +0.026 A 
ATOM     16  C   UNL     1      10.159   4.564  -6.233  0.00  0.00    +0.002 A 
ATOM     17  C   UNL     1       8.953   5.243  -6.318  0.00  0.00    +0.001 A 
ATOM     18  C   UNL     1       7.868   4.828  -5.577  0.00  0.00    +0.010 A 
BRANCH  10  19
ATOM     19  C   UNL     1      10.076   1.033  -3.387  0.00  0.00    +0.242 C 
BRANCH  19  20
ATOM     20  C   UNL     1      10.913   1.606  -2.273  0.00  0.00    +0.327 C 
ATOM     21  O   UNL     1      10.666   2.705  -1.836  0.00  0.00    -0.249 OA
BRANCH  20  23
ATOM     22  C   UNL     1      12.696   1.511  -0.695  0.00  0.00    +0.280 C 
ATOM     23  O   UNL     1      11.933   0.896  -1.766  0.00  0.00    -0.467 OA
ENDBRANCH  20  23
ENDBRANCH  19  20
ENDBRANCH  10  19
ENDBRANCH   1  12
BRANCH   7  24
ATOM     24  C   UNL     1       0.395   0.893  -2.377  0.00  0.00    +0.067 A 
ATOM     25  C   UNL     1      -0.857   0.648  -2.946  0.00  0.00    +0.028 A 
ATOM     26  C   UNL     1      -1.947   1.398  -2.555  0.00  0.00    +0.002 A 
ATOM     27  C   UNL     1      -1.804   2.384  -1.595  0.00  0.00    +0.000 A 
ATOM     28  C   UNL     1      -0.567   2.632  -1.027  0.00  0.00    +0.002 A 
ATOM     29  C   UNL     1       0.532   1.893  -1.412  0.00  0.00    +0.028 A 
ENDBRANCH   7  24
TORSDOF 5
