REMARK  Name = ZINC66675634
REMARK  6 active torsions:
REMARK  status: ('A' for Active; 'I' for Inactive)
REMARK    1  A    between atoms: C_1  and  C_2
REMARK    2  A    between atoms: C_7  and  C_12
REMARK    3  A    between atoms: N_14  and  C_15
REMARK    4  A    between atoms: N_14  and  C_16
REMARK    5  A    between atoms: C_16  and  C_17
REMARK    6  A    between atoms: N_19  and  C_20
REMARK                            x       y       z     vdW  Elec       q    Type
REMARK                         _______ _______ _______ _____ _____    ______ ____
ROOT
ATOM      1  C   UNL     1      -0.219  -5.516   2.409  0.00  0.00    +0.263 C 
ATOM      2  O   UNL     1      -0.244  -6.535   1.745  0.00  0.00    -0.268 OA
ATOM      3  N   UNL     1       0.127  -5.568   3.710  0.00  0.00    -0.291 N 
ATOM      4  C   UNL     1       0.135  -4.344   4.515  0.00  0.00    +0.133 C 
ENDROOT
BRANCH   1  11
ATOM      5  C   UNL     1      -2.019   1.499   0.711  0.00  0.00    +0.044 C 
ATOM      6  C   UNL     1      -1.674   0.039   0.568  0.00  0.00    -0.048 A 
ATOM      7  C   UNL     1      -1.609  -0.532  -0.697  0.00  0.00    +0.004 A 
ATOM      8  C   UNL     1      -1.298  -1.852  -0.848  0.00  0.00    +0.010 A 
ATOM      9  C   UNL     1      -1.041  -2.641   0.281  0.00  0.00    +0.000 A 
ATOM     10  C   UNL     1      -0.700  -4.004   0.457  0.00  0.00    +0.040 A 
ATOM     11  C   UNL     1      -0.567  -4.228   1.791  0.00  0.00    +0.103 A 
ATOM     12  N   UNL     1      -0.812  -3.052   2.474  0.00  0.00    -0.351 N 
ATOM     13  H   UNL     1      -0.782  -2.942   3.437  0.00  0.00    +0.166 HD
ATOM     14  C   UNL     1      -1.105  -2.064   1.564  0.00  0.00    +0.047 A 
ATOM     15  C   UNL     1      -1.419  -0.714   1.692  0.00  0.00    +0.029 A 
ENDBRANCH   1  11
BRANCH   3  16
ATOM     16  C   UNL     1       0.495  -6.848   4.320  0.00  0.00    +0.203 C 
BRANCH  16  17
ATOM     17  C   UNL     1       1.980  -7.064   4.176  0.00  0.00    +0.235 C 
ATOM     18  O   UNL     1       2.663  -6.230   3.620  0.00  0.00    -0.274 OA
ATOM     19  N   UNL     1       2.549  -8.183   4.667  0.00  0.00    -0.284 N 
ATOM     20  H   UNL     1       2.015  -8.818   5.170  0.00  0.00    +0.155 HD
BRANCH  19  21
ATOM     21  C   UNL     1       3.909  -8.430   4.449  0.00  0.00    +0.039 A 
ATOM     22  C   UNL     1       4.356  -9.729   4.250  0.00  0.00    +0.061 A 
ATOM     23  C   UNL     1       5.701  -9.971   4.035  0.00  0.00    +0.128 A 
ATOM     24  C   UNL     1       6.601  -8.918   4.019  0.00  0.00    +0.076 A 
ATOM     25  C   UNL     1       6.157  -7.622   4.217  0.00  0.00    +0.128 A 
ATOM     26  C   UNL     1       4.812  -7.375   4.426  0.00  0.00    +0.061 A 
ATOM     27  F   UNL     1       7.037  -6.597   4.201  0.00  0.00    -0.205 F 
ATOM     28  F   UNL     1       6.137 -11.235   3.841  0.00  0.00    -0.205 F 
ENDBRANCH  19  21
ENDBRANCH  16  17
ENDBRANCH   3  16
TORSDOF 4
