REMARK  Name = ZINC39324824
REMARK  9 active torsions:
REMARK  status: ('A' for Active; 'I' for Inactive)
REMARK    1  A    between atoms: C_1  and  C_2
REMARK    2  A    between atoms: C_4  and  C_38
REMARK    3  A    between atoms: C_5  and  S_9
REMARK    4  A    between atoms: C_6  and  C_8
REMARK    5  A    between atoms: S_9  and  N_12
REMARK    6  A    between atoms: N_12  and  C_13
REMARK    7  A    between atoms: N_12  and  C_21
REMARK    8  A    between atoms: C_13  and  C_14
REMARK    9  A    between atoms: C_21  and  C_22
REMARK                            x       y       z     vdW  Elec       q    Type
REMARK                         _______ _______ _______ _____ _____    ______ ____
ROOT
ATOM      1  N   UNL     1       0.673  -5.470   0.293  0.00  0.00    -0.171 NA
ENDROOT
BRANCH   1   2
ATOM      2  S   UNL     1      -0.691  -4.566   0.037  0.00  0.00    +0.062 S 
ATOM      3  O   UNL     1      -1.516  -4.743   1.181  0.00  0.00    -0.153 OA
ATOM      4  O   UNL     1      -1.137  -4.867  -1.278  0.00  0.00    -0.153 OA
BRANCH   2   9
ATOM      5  C   UNL     1       0.995   1.227   0.003  0.00  0.00    +0.044 C 
ATOM      6  C   UNL     1       0.574  -0.220   0.011  0.00  0.00    -0.050 A 
ATOM      7  C   UNL     1       0.161  -0.813   1.190  0.00  0.00    +0.008 A 
ATOM      8  C   UNL     1      -0.225  -2.140   1.198  0.00  0.00    -0.024 A 
ATOM      9  C   UNL     1      -0.199  -2.874   0.027  0.00  0.00    +0.111 A 
ATOM     10  C   UNL     1       0.213  -2.281  -1.152  0.00  0.00    -0.024 A 
ATOM     11  C   UNL     1       0.595  -0.953  -1.160  0.00  0.00    +0.008 A 
ATOM     12  C   UNL     1       0.241  -3.082  -2.428  0.00  0.00    +0.046 C 
ATOM     13  C   UNL     1      -0.674  -2.787   2.483  0.00  0.00    +0.046 C 
ENDBRANCH   2   9
ENDBRANCH   1   2
BRANCH   1  14
ATOM     14  C   UNL     1       1.093  -5.793   1.659  0.00  0.00    +0.144 C 
BRANCH  14  15
ATOM     15  C   UNL     1       0.587  -7.163   2.030  0.00  0.00    -0.031 A 
ATOM     16  C   UNL     1      -0.655  -7.305   2.619  0.00  0.00    +0.008 A 
ATOM     17  C   UNL     1      -1.120  -8.562   2.959  0.00  0.00    +0.038 A 
ATOM     18  C   UNL     1      -0.341  -9.678   2.709  0.00  0.00    +0.123 A 
ATOM     19  C   UNL     1       0.904  -9.535   2.119  0.00  0.00    +0.038 A 
ATOM     20  C   UNL     1       1.364  -8.278   1.775  0.00  0.00    +0.008 A 
ATOM     21  F   UNL     1      -0.794 -10.907   3.041  0.00  0.00    -0.205 F 
ENDBRANCH  14  15
ENDBRANCH   1  14
BRANCH   1  22
ATOM     22  C   UNL     1       1.460  -5.948  -0.847  0.00  0.00    +0.126 C 
BRANCH  22  23
ATOM     23  C   UNL     1       2.886  -5.404  -0.746  0.00  0.00    +0.114 C 
ATOM     24  C   UNL     1       3.691  -5.996  -1.886  0.00  0.00    -0.003 C 
ATOM     25  C   UNL     1       4.280  -5.128  -2.752  0.00  0.00    -0.003 A 
ATOM     26  C   UNL     1       5.076  -5.617  -3.878  0.00  0.00    +0.059 A 
ATOM     27  C   UNL     1       5.652  -4.724  -4.727  0.00  0.00    +0.163 A 
ATOM     28  C   UNL     1       5.493  -3.336  -4.541  0.00  0.00    +0.164 A 
ATOM     29  C   UNL     1       4.755  -2.824  -3.493  0.00  0.00    +0.073 A 
ATOM     30  C   UNL     1       4.129  -3.672  -2.572  0.00  0.00    +0.044 A 
ATOM     31  N   UNL     1       3.419  -3.155  -1.565  0.00  0.00    -0.284 N 
ATOM     32  C   UNL     1       2.802  -3.896  -0.663  0.00  0.00    +0.225 C 
ATOM     33  O   UNL     1       2.170  -3.368   0.232  0.00  0.00    -0.275 OA
ATOM     34  O   UNL     1       6.069  -2.460  -5.407  0.00  0.00    -0.485 OA
ATOM     35  C   UNL     1       7.121  -2.964  -6.234  0.00  0.00    +0.270 C 
ATOM     36  C   UNL     1       6.661  -4.297  -6.839  0.00  0.00    +0.270 C 
ATOM     37  O   UNL     1       6.392  -5.205  -5.766  0.00  0.00    -0.485 OA
ATOM     38  H   UNL     1       3.353  -2.190  -1.494  0.00  0.00    +0.155 HD
ENDBRANCH  22  23
ENDBRANCH   1  22
TORSDOF 6
