REMARK  Name = ZINC40729937
REMARK  9 active torsions:
REMARK  status: ('A' for Active; 'I' for Inactive)
REMARK    1  A    between atoms: C_1  and  C_2
REMARK    2  A    between atoms: C_2  and  C_3
REMARK    3  A    between atoms: C_2  and  O_4
REMARK    4  A    between atoms: O_4  and  C_5
REMARK    5  A    between atoms: C_6  and  C_13
REMARK    6  A    between atoms: C_13  and  N_14
REMARK    7  A    between atoms: N_14  and  C_15
REMARK    8  A    between atoms: C_19  and  C_26
REMARK    9  A    between atoms: C_22  and  C_25
REMARK                            x       y       z     vdW  Elec       q    Type
REMARK                         _______ _______ _______ _____ _____    ______ ____
ROOT
ATOM      1  N   UNL     1       1.388   2.467  -0.228  0.00  0.00    +0.386 N 
ATOM      2  H   UNL     1       0.758   1.837   0.244  0.00  0.00    -0.085 HD
ATOM      3  H   UNL     1       2.161   2.689   0.382  0.00  0.00    -0.085 HD
ENDROOT
BRANCH   1   4
ATOM      4  C   UNL     1       0.673   3.701  -0.581  0.00  0.00    -0.067 C 
ATOM      5  C   UNL     1      -0.442   3.376  -1.577  0.00  0.00    -0.009 C 
ATOM      6  C   UNL     1      -1.187   4.661  -1.945  0.00  0.00    -0.011 C 
ATOM      7  C   UNL     1      -1.793   5.279  -0.683  0.00  0.00    +0.010 C 
ATOM      8  C   UNL     1      -0.678   5.603   0.312  0.00  0.00    -0.033 C 
ATOM      9  C   UNL     1       0.067   4.318   0.680  0.00  0.00    -0.006 C 
ATOM     10  C   UNL     1       0.299   6.595  -0.322  0.00  0.00    +0.013 C 
ATOM     11  C   UNL     1       0.905   5.978  -1.584  0.00  0.00    -0.033 C 
ATOM     12  C   UNL     1      -0.210   5.653  -2.579  0.00  0.00    +0.010 C 
ATOM     13  C   UNL     1       1.650   4.693  -1.216  0.00  0.00    -0.006 C 
ATOM     14  C   UNL     1       1.883   6.970  -2.218  0.00  0.00    +0.011 C 
ATOM     15  C   UNL     1      -1.284   6.221   1.574  0.00  0.00    +0.011 C 
ENDBRANCH   1   4
BRANCH   1  16
ATOM     16  C   UNL     1       1.897   1.829  -1.449  0.00  0.00    -0.042 C 
BRANCH  16  18
ATOM     17  C   UNL     1       2.124  -0.558  -0.717  0.00  0.00    +0.136 A 
ATOM     18  C   UNL     1       2.736   0.633  -1.079  0.00  0.00    -0.021 A 
ATOM     19  C   UNL     1       4.114   0.722  -1.101  0.00  0.00    +0.020 A 
ATOM     20  C   UNL     1       4.885  -0.376  -0.762  0.00  0.00    +0.019 A 
ATOM     21  C   UNL     1       4.278  -1.565  -0.401  0.00  0.00    +0.034 A 
ATOM     22  C   UNL     1       2.899  -1.657  -0.372  0.00  0.00    +0.061 A 
ATOM     23 BR   UNL     1       2.069  -3.280   0.131  0.00  0.00    -0.046 Br
ATOM     24 BR   UNL     1       6.771  -0.250  -0.793  0.00  0.00    -0.050 Br
BRANCH  17  25
ATOM     25  O   UNL     1       0.768  -0.647  -0.694  0.00  0.00    -0.488 OA
BRANCH  25  27
ATOM     26  C   UNL     1       0.035  -2.430  -2.152  0.00  0.00    +0.051 C 
ATOM     27  C   UNL     1       0.115  -0.918  -1.936  0.00  0.00    +0.167 C 
ATOM     28  C   UNL     1      -1.298  -0.332  -1.907  0.00  0.00    +0.051 C 
ENDBRANCH  25  27
ENDBRANCH  17  25
ENDBRANCH  16  18
ENDBRANCH   1  16
TORSDOF 5
