REMARK  Name = ZINC08834864
REMARK  12 active torsions:
REMARK  status: ('A' for Active; 'I' for Inactive)
REMARK    1  A    between atoms: C_1  and  C_2
REMARK    2  A    between atoms: C_2  and  N_62
REMARK    3  A    between atoms: C_3  and  C_4
REMARK    4  A    between atoms: C_3  and  N_62
REMARK    5  A    between atoms: C_5  and  C_6
REMARK    6  A    between atoms: C_5  and  N_62
REMARK    7  A    between atoms: C_6  and  C_7
REMARK    8  A    between atoms: C_7  and  N_8
REMARK    9  A    between atoms: C_9  and  C_25
REMARK   10  A    between atoms: C_29  and  O_31
REMARK   11  A    between atoms: O_31  and  C_32
REMARK   12  A    between atoms: C_32  and  C_33
REMARK                            x       y       z     vdW  Elec       q    Type
REMARK                         _______ _______ _______ _____ _____    ______ ____
ROOT
ATOM      1  N   UNL     1       2.653  -2.501  -0.039  0.00  0.00    -0.284 N 
ATOM      2  C   UNL     1       3.418  -1.248  -0.056  0.00  0.00    +0.145 C 
ATOM      3  C   UNL     1       2.398  -0.139  -0.036  0.00  0.00    +0.072 A 
ATOM      4  C   UNL     1       2.520   1.322  -0.041  0.00  0.00    +0.199 A 
ATOM      5  O   UNL     1       3.606   1.874  -0.064  0.00  0.00    -0.287 OA
ATOM      6  C   UNL     1       1.260   2.091  -0.015  0.00  0.00    +0.065 A 
ATOM      7  C   UNL     1       1.259   3.485  -0.018  0.00  0.00    +0.030 A 
ATOM      8  C   UNL     1       0.060   4.164   0.005  0.00  0.00    +0.019 A 
ATOM      9  C   UNL     1      -1.139   3.462   0.031  0.00  0.00    +0.019 A 
ATOM     10  C   UNL     1      -1.150   2.085   0.028  0.00  0.00    +0.048 A 
ATOM     11  C   UNL     1       0.049   1.378   0.010  0.00  0.00    +0.140 A 
ATOM     12  O   UNL     1       0.050   0.033   0.012  0.00  0.00    -0.450 OA
ATOM     13  C   UNL     1       1.171  -0.714  -0.011  0.00  0.00    +0.199 A 
ATOM     14  C   UNL     1       1.346  -2.188  -0.012  0.00  0.00    +0.283 C 
ATOM     15  O   UNL     1       0.439  -2.995   0.007  0.00  0.00    -0.267 OA
ATOM     16 BR   UNL     1       0.046   6.055   0.003  0.00  0.00    -0.050 Br
ENDROOT
BRANCH   2  17
ATOM     17  C   UNL     1       4.251  -1.165  -1.309  0.00  0.00    -0.019 A 
ATOM     18  C   UNL     1       3.746  -1.635  -2.507  0.00  0.00    +0.006 A 
ATOM     19  C   UNL     1       4.505  -1.556  -3.659  0.00  0.00    +0.004 A 
ATOM     20  C   UNL     1       5.776  -1.016  -3.614  0.00  0.00    +0.045 A 
ATOM     21  C   UNL     1       6.288  -0.548  -2.413  0.00  0.00    +0.121 A 
ATOM     22  C   UNL     1       5.521  -0.624  -1.259  0.00  0.00    +0.051 A 
BRANCH  21  23
ATOM     23  O   UNL     1       7.537  -0.016  -2.366  0.00  0.00    -0.492 OA
BRANCH  23  24
ATOM     24  C   UNL     1       8.269   0.029  -3.592  0.00  0.00    +0.225 C 
ATOM     25  C   UNL     1       9.643   0.656  -3.344  0.00  0.00    +0.048 C 
ENDBRANCH  23  24
ENDBRANCH  21  23
ENDBRANCH   2  17
BRANCH   1  26
ATOM     26  C   UNL     1       3.216  -3.853  -0.049  0.00  0.00    +0.107 C 
BRANCH  26  27
ATOM     27  C   UNL     1       3.441  -4.323   1.390  0.00  0.00    +0.000 C 
BRANCH  27  28
ATOM     28  C   UNL     1       4.028  -5.736   1.380  0.00  0.00    -0.077 C 
BRANCH  28  29
ATOM     29  N   UNL     1       4.370  -6.116   2.766  0.00  0.00    +0.379 N 
ATOM     30  H   UNL     1       4.808  -5.314   3.234  0.00  0.00    -0.082 HD
BRANCH  29  32
ATOM     31  C   UNL     1       3.495  -6.664   4.984  0.00  0.00    -0.017 C 
ATOM     32  C   UNL     1       3.146  -6.493   3.504  0.00  0.00    -0.082 C 
ENDBRANCH  29  32
BRANCH  29  33
ATOM     33  C   UNL     1       5.324  -7.246   2.759  0.00  0.00    -0.082 C 
ATOM     34  C   UNL     1       6.716  -6.710   2.420  0.00  0.00    -0.017 C 
ENDBRANCH  29  33
ENDBRANCH  28  29
ENDBRANCH  27  28
ENDBRANCH  26  27
ENDBRANCH   1  26
TORSDOF 9
