REMARK  Name = ZINC17525525
REMARK  5 active torsions:
REMARK  status: ('A' for Active; 'I' for Inactive)
REMARK    1  A    between atoms: C_1  and  C_2
REMARK    2  A    between atoms: C_14  and  C_16
REMARK    3  A    between atoms: C_19  and  S_22
REMARK    4  A    between atoms: S_22  and  N_25
REMARK    5  A    between atoms: C_28  and  C_31
REMARK                            x       y       z     vdW  Elec       q    Type
REMARK                         _______ _______ _______ _____ _____    ______ ____
ROOT
ATOM      1  C   UNL     1       3.359  -3.944   0.238  0.00  0.00    +0.037 A 
ATOM      2  C   UNL     1       2.708  -4.479   1.351  0.00  0.00    +0.015 A 
ATOM      3  C   UNL     1       3.399  -5.292   2.225  0.00  0.00    +0.029 A 
ATOM      4  C   UNL     1       4.734  -5.578   2.001  0.00  0.00    +0.106 A 
ATOM      5  C   UNL     1       5.385  -5.051   0.900  0.00  0.00    +0.029 A 
ATOM      6  C   UNL     1       4.705  -4.241   0.015  0.00  0.00    +0.015 A 
ENDROOT
BRANCH   1  19
ATOM      7  C   UNL     1       4.061  -2.350  -5.808  0.00  0.00    +0.019 C 
ATOM      8  C   UNL     1       4.126  -1.925  -4.340  0.00  0.00    +0.050 C 
ATOM      9  C   UNL     1       2.723  -1.923  -3.753  0.00  0.00    +0.033 C 
ATOM     10  C   UNL     1       2.593  -1.294  -2.391  0.00  0.00    +0.115 C 
ATOM     11  N   UNL     1       3.276  -2.093  -1.362  0.00  0.00    -0.266 N 
ATOM     12  C   UNL     1       4.620  -1.812  -1.084  0.00  0.00    +0.050 A 
ATOM     13  C   UNL     1       4.959  -1.175   0.105  0.00  0.00    +0.024 A 
ATOM     14  C   UNL     1       6.280  -0.854   0.359  0.00  0.00    +0.002 A 
ATOM     15  C   UNL     1       7.269  -1.157  -0.559  0.00  0.00    +0.001 A 
ATOM     16  C   UNL     1       6.944  -1.808  -1.738  0.00  0.00    +0.016 A 
ATOM     17  C   UNL     1       5.627  -2.148  -1.978  0.00  0.00    +0.030 A 
ATOM     18  S   UNL     1       5.181  -3.085  -3.422  0.00  0.00    -0.120 S 
ATOM     19  C   UNL     1       2.625  -3.072  -0.703  0.00  0.00    +0.251 C 
ATOM     20  O   UNL     1       1.435  -3.238  -0.883  0.00  0.00    -0.270 OA
ENDBRANCH   1  19
BRANCH   4  21
ATOM     21  S   UNL     1       5.609  -6.617   3.123  0.00  0.00    +0.061 S 
ATOM     22  O   UNL     1       6.985  -6.290   2.991  0.00  0.00    -0.153 OA
ATOM     23  O   UNL     1       4.924  -6.540   4.366  0.00  0.00    -0.153 OA
BRANCH  21  24
ATOM     24  N   UNL     1       5.438  -8.173   2.584  0.00  0.00    -0.177 NA
ATOM     25  C   UNL     1       4.311  -9.002   3.034  0.00  0.00    +0.110 C 
ATOM     26  C   UNL     1       3.582  -9.551   1.804  0.00  0.00    +0.020 C 
ATOM     27  C   UNL     1       4.582 -10.284   0.907  0.00  0.00    -0.012 C 
ATOM     28  C   UNL     1       5.657  -9.304   0.433  0.00  0.00    +0.020 C 
ATOM     29  C   UNL     1       6.407  -8.750   1.642  0.00  0.00    +0.110 C 
ATOM     30  C   UNL     1       3.850 -10.863  -0.306  0.00  0.00    +0.007 C 
ENDBRANCH  21  24
ENDBRANCH   4  21
TORSDOF 3
