REMARK  Name = ZINC36704402
REMARK  12 active torsions:
REMARK  status: ('A' for Active; 'I' for Inactive)
REMARK    1  A    between atoms: C_1  and  N_2
REMARK    2  A    between atoms: N_2  and  C_3
REMARK    3  A    between atoms: N_2  and  C_4
REMARK    4  A    between atoms: C_4  and  C_5
REMARK    5  A    between atoms: C_5  and  N_6
REMARK    6  A    between atoms: C_10  and  O_18
REMARK    7  A    between atoms: C_13  and  O_16
REMARK    8  A    between atoms: O_16  and  C_17
REMARK    9  A    between atoms: O_18  and  C_19
REMARK   10  A    between atoms: C_20  and  C_22
REMARK   11  A    between atoms: N_27  and  S_28
REMARK   12  A    between atoms: S_28  and  C_31
REMARK                            x       y       z     vdW  Elec       q    Type
REMARK                         _______ _______ _______ _____ _____    ______ ____
ROOT
ATOM      1  N   UNL     1       2.567  -0.792  -2.365  0.00  0.00    -0.251 N 
ATOM      2  C   UNL     1       2.428  -0.266  -3.639  0.00  0.00    +0.168 A 
ATOM      3  N   UNL     1       1.833   0.843  -4.012  0.00  0.00    -0.221 NA
ATOM      4  C   UNL     1       1.775   1.236  -5.304  0.00  0.00    +0.125 A 
ATOM      5  C   UNL     1       1.167   2.403  -5.836  0.00  0.00    +0.147 A 
ATOM      6  C   UNL     1       1.198   2.656  -7.186  0.00  0.00    +0.051 A 
ATOM      7  C   UNL     1       1.819   1.788  -8.073  0.00  0.00    +0.050 A 
ATOM      8  C   UNL     1       2.422   0.639  -7.587  0.00  0.00    +0.136 A 
ATOM      9  C   UNL     1       2.397   0.377  -6.234  0.00  0.00    +0.086 A 
ATOM     10  S   UNL     1       3.021  -0.920  -5.193  0.00  0.00    -0.048 S 
ATOM     11  C   UNL     1       3.103  -2.017  -2.196  0.00  0.00    +0.240 C 
ATOM     12  O   UNL     1       3.290  -2.449  -1.078  0.00  0.00    -0.273 OA
ENDROOT
BRANCH  11  13
ATOM     13  C   UNL     1       3.472  -2.850  -3.396  0.00  0.00    +0.166 C 
ATOM     14  C   UNL     1       4.874  -2.452  -3.901  0.00  0.00    +0.031 C 
ATOM     15  C   UNL     1       5.794  -3.519  -3.251  0.00  0.00    +0.019 C 
ATOM     16  C   UNL     1       4.888  -4.776  -3.291  0.00  0.00    +0.110 C 
ATOM     17  N   UNL     1       3.526  -4.271  -3.021  0.00  0.00    -0.164 NA
BRANCH  17  18
ATOM     18  S   UNL     1       2.271  -5.154  -2.399  0.00  0.00    +0.068 S 
ATOM     19  O   UNL     1       2.851  -6.234  -1.681  0.00  0.00    -0.152 OA
ATOM     20  O   UNL     1       1.383  -4.226  -1.792  0.00  0.00    -0.152 OA
BRANCH  18  21
ATOM     21  C   UNL     1       1.406  -5.861  -3.761  0.00  0.00    +0.143 A 
ATOM     22  C   UNL     1       1.604  -7.056  -4.371  0.00  0.00    +0.036 A 
ATOM     23  C   UNL     1       0.794  -7.407  -5.435  0.00  0.00    +0.010 A 
ATOM     24  C   UNL     1      -0.174  -6.548  -5.836  0.00  0.00    +0.047 A 
ATOM     25  S   UNL     1       0.036  -5.194  -4.692  0.00  0.00    -0.077 S 
ENDBRANCH  18  21
ENDBRANCH  17  18
ENDBRANCH  11  13
BRANCH   8  26
ATOM     26  O   UNL     1       3.036  -0.225  -8.439  0.00  0.00    -0.494 OA
ATOM     27  C   UNL     1       3.022   0.113  -9.828  0.00  0.00    +0.277 C 
ENDBRANCH   8  26
BRANCH   5  28
ATOM     28  O   UNL     1       0.547   3.279  -5.001  0.00  0.00    -0.493 OA
ATOM     29  C   UNL     1      -0.046   4.435  -5.597  0.00  0.00    +0.277 C 
ENDBRANCH   5  28
BRANCH   1  30
ATOM     30  C   UNL     1       2.130  -0.018  -1.201  0.00  0.00    +0.097 C 
BRANCH  30  31
ATOM     31  C   UNL     1       0.701  -0.420  -0.827  0.00  0.00    -0.060 C 
BRANCH  31  33
ATOM     32  C   UNL     1       0.254   1.714   0.174  0.00  0.00    -0.097 C 
ATOM     33  N   UNL     1       0.308   0.265   0.411  0.00  0.00    +0.377 N 
ATOM     34  C   UNL     1      -1.016  -0.211   0.835  0.00  0.00    -0.097 C 
ATOM     35  H   UNL     1       0.983   0.067   1.134  0.00  0.00    -0.083 HD
ENDBRANCH  31  33
ENDBRANCH  30  31
ENDBRANCH   1  30
TORSDOF 8
