REMARK  Name = ZINC62575433
REMARK  8 active torsions:
REMARK  status: ('A' for Active; 'I' for Inactive)
REMARK    1  A    between atoms: N_9  and  S_10
REMARK    2  A    between atoms: S_10  and  C_13
REMARK    3  A    between atoms: C_13  and  C_14
REMARK    4  A    between atoms: C_14  and  N_15
REMARK    5  A    between atoms: N_18  and  C_19
REMARK    6  A    between atoms: C_19  and  C_20
REMARK    7  A    between atoms: C_20  and  S_21
REMARK    8  A    between atoms: S_21  and  N_24
REMARK                            x       y       z     vdW  Elec       q    Type
REMARK                         _______ _______ _______ _____ _____    ______ ____
ROOT
ATOM      1  N   UNL     1       7.387   0.299   3.219  0.00  0.00    -0.298 N 
ATOM      2  C   UNL     1       8.636   0.674   3.559  0.00  0.00    +0.300 C 
ATOM      3  O   UNL     1       9.451   0.929   2.693  0.00  0.00    -0.253 OA
ATOM      4  N   UNL     1       8.982   0.767   4.858  0.00  0.00    -0.298 N 
ATOM      5  H   UNL     1       6.737   0.096   3.909  0.00  0.00    +0.150 HD
ATOM      6  H   UNL     1       8.331   0.564   5.549  0.00  0.00    +0.150 HD
ENDROOT
BRANCH   1   7
ATOM      7  C   UNL     1       7.012   0.198   1.806  0.00  0.00    +0.130 C 
BRANCH   7   8
ATOM      8  C   UNL     1       5.551  -0.243   1.697  0.00  0.00    +0.207 C 
BRANCH   8   9
ATOM      9  S   UNL     1       5.086  -0.369  -0.052  0.00  0.00    +0.047 S 
ATOM     10  O   UNL     1       5.785  -1.442  -0.668  0.00  0.00    -0.155 OA
ATOM     11  O   UNL     1       5.069   0.921  -0.647  0.00  0.00    -0.155 OA
BRANCH   9  20
ATOM     12  C   UNL     1      -0.017   1.378   0.010  0.00  0.00    +0.000 A 
ATOM     13  C   UNL     1       1.173   2.083   0.002  0.00  0.00    +0.002 A 
ATOM     14  C   UNL     1       2.377   1.411  -0.013  0.00  0.00    +0.025 A 
ATOM     15  C   UNL     1       2.405   0.015  -0.022  0.00  0.00    +0.054 A 
ATOM     16  C   UNL     1       1.206  -0.682  -0.014  0.00  0.00    -0.023 A 
ATOM     17  C   UNL     1       0.002  -0.004   0.002  0.00  0.00    +0.005 A 
ATOM     18  C   UNL     1       1.510  -2.163  -0.025  0.00  0.00    +0.058 C 
ATOM     19  C   UNL     1       3.046  -2.241  -0.041  0.00  0.00    +0.136 C 
ATOM     20  N   UNL     1       3.501  -0.849  -0.038  0.00  0.00    -0.207 N 
ENDBRANCH   9  20
ENDBRANCH   8   9
ENDBRANCH   7   8
ENDBRANCH   1   7
BRANCH   4  21
ATOM     21  C   UNL     1      10.339   1.175   5.228  0.00  0.00    +0.130 C 
BRANCH  21  22
ATOM     22  C   UNL     1      10.467   1.200   6.752  0.00  0.00    +0.207 C 
BRANCH  22  23
ATOM     23  S   UNL     1      12.148   1.705   7.210  0.00  0.00    +0.047 S 
ATOM     24  O   UNL     1      13.080   0.701   6.834  0.00  0.00    -0.155 OA
ATOM     25  O   UNL     1      12.365   3.064   6.855  0.00  0.00    -0.155 OA
BRANCH  23  26
ATOM     26  N   UNL     1      12.160   1.694   8.866  0.00  0.00    -0.207 N 
ATOM     27  C   UNL     1      11.812   2.836   9.716  0.00  0.00    +0.136 C 
ATOM     28  C   UNL     1      11.975   2.329  11.158  0.00  0.00    +0.058 C 
ATOM     29  C   UNL     1      12.418   0.891  11.008  0.00  0.00    -0.023 A 
ATOM     30  C   UNL     1      12.496   0.594   9.656  0.00  0.00    +0.054 A 
ATOM     31  C   UNL     1      12.883  -0.691   9.266  0.00  0.00    +0.025 A 
ATOM     32  C   UNL     1      13.177  -1.646  10.216  0.00  0.00    +0.002 A 
ATOM     33  C   UNL     1      13.091  -1.340  11.561  0.00  0.00    +0.000 A 
ATOM     34  C   UNL     1      12.718  -0.068  11.955  0.00  0.00    +0.005 A 
ENDBRANCH  23  26
ENDBRANCH  22  23
ENDBRANCH  21  22
ENDBRANCH   4  21
TORSDOF 8
