REMARK  Name = ZINC12656000
REMARK  8 active torsions:
REMARK  status: ('A' for Active; 'I' for Inactive)
REMARK    1  A    between atoms: C_1  and  C_2
REMARK    2  A    between atoms: C_2  and  O_4
REMARK    3  A    between atoms: O_4  and  C_5
REMARK    4  A    between atoms: C_9  and  C_43
REMARK    5  A    between atoms: C_14  and  C_42
REMARK    6  A    between atoms: C_24  and  C_36
REMARK    7  A    between atoms: C_26  and  C_28
REMARK    8  A    between atoms: C_28  and  C_30
REMARK                            x       y       z     vdW  Elec       q    Type
REMARK                         _______ _______ _______ _____ _____    ______ ____
ROOT
ATOM      1  C   UNL     1       0.200  -1.406   0.773  0.00  0.00    +0.180 C 
ATOM      2  C   UNL     1       0.052   0.112   0.881  0.00  0.00    +0.046 C 
ATOM      3  C   UNL     1       1.431   0.771   0.825  0.00  0.00    +0.015 C 
ATOM      4  C   UNL     1       2.262   0.313   2.027  0.00  0.00    -0.008 C 
ATOM      5  C   UNL     1       3.640   0.951   1.983  0.00  0.00    +0.003 C 
ATOM      6  C   UNL     1       3.542   2.402   2.446  0.00  0.00    +0.005 C 
ATOM      7  C   UNL     1       4.921   3.077   2.503  0.00  0.00    +0.008 C 
ATOM      8  C   UNL     1       5.784   2.253   3.443  0.00  0.00    -0.019 C 
ATOM      9  C   UNL     1       5.972   0.855   2.768  0.00  0.00    -0.000 C 
ATOM     10  C   UNL     1       4.632   0.148   2.836  0.00  0.00    +0.000 C 
ATOM     11  C   UNL     1       4.757  -1.255   2.232  0.00  0.00    +0.031 C 
ATOM     12  C   UNL     1       3.396  -1.882   2.156  0.00  0.00    -0.027 C 
ATOM     13  C   UNL     1       2.301  -1.186   2.062  0.00  0.00    -0.064 C 
ATOM     14  C   UNL     1       0.979  -1.931   1.984  0.00  0.00    +0.075 C 
ATOM     15  C   UNL     1       7.113   0.231   3.564  0.00  0.00    +0.013 C 
ATOM     16  C   UNL     1       7.983   1.423   4.035  0.00  0.00    +0.030 C 
ATOM     17  C   UNL     1       7.236   2.720   3.592  0.00  0.00    +0.074 C 
ATOM     18  C   UNL     1       5.105   2.113   4.807  0.00  0.00    +0.012 C 
ATOM     19  C   UNL     1       1.551   0.801   3.292  0.00  0.00    +0.016 C 
ENDROOT
BRANCH  16  20
ATOM     20  C   UNL     1       9.352   1.343   3.411  0.00  0.00    -0.044 A 
ATOM     21  C   UNL     1       9.485   1.331   2.035  0.00  0.00    +0.004 A 
ATOM     22  C   UNL     1      10.742   1.261   1.463  0.00  0.00    +0.000 A 
ATOM     23  C   UNL     1      11.864   1.197   2.267  0.00  0.00    +0.000 A 
ATOM     24  C   UNL     1      11.731   1.204   3.642  0.00  0.00    +0.000 A 
ATOM     25  C   UNL     1      10.475   1.277   4.215  0.00  0.00    +0.004 A 
ENDBRANCH  16  20
BRANCH  17  26
ATOM     26  C   UNL     1       7.344   3.805   4.633  0.00  0.00    +0.167 C 
ATOM     27  O   UNL     1       7.509   3.512   5.798  0.00  0.00    -0.292 OA
BRANCH  26  28
ATOM     28  C   UNL     1       7.249   5.218   4.235  0.00  0.00    +0.018 A 
ATOM     29  C   UNL     1       7.065   5.560   2.892  0.00  0.00    +0.011 A 
ATOM     30  C   UNL     1       6.971   6.887   2.528  0.00  0.00    +0.001 A 
ATOM     31  C   UNL     1       7.071   7.880   3.487  0.00  0.00    +0.000 A 
ATOM     32  C   UNL     1       7.259   7.550   4.818  0.00  0.00    +0.001 A 
ATOM     33  C   UNL     1       7.349   6.228   5.198  0.00  0.00    +0.011 A 
ENDBRANCH  26  28
ENDBRANCH  17  26
BRANCH   1  34
ATOM     34  O   UNL     1      -1.116  -2.020   0.742  0.00  0.00    -0.461 OA
BRANCH  34  36
ATOM     35  C   UNL     1      -2.570  -3.866  -0.015  0.00  0.00    +0.136 C 
ATOM     36  C   UNL     1      -1.235  -3.172   0.062  0.00  0.00    +0.304 C 
ATOM     37  O   UNL     1      -0.271  -3.651  -0.487  0.00  0.00    -0.251 OA
ENDBRANCH  34  36
ENDBRANCH   1  34
TORSDOF 5
