REMARK  Name = ZINC54643609
REMARK  6 active torsions:
REMARK  status: ('A' for Active; 'I' for Inactive)
REMARK    1  A    between atoms: C_1  and  C_2
REMARK    2  A    between atoms: C_2  and  C_31
REMARK    3  A    between atoms: C_6  and  C_22
REMARK    4  A    between atoms: C_11  and  S_13
REMARK    5  A    between atoms: S_13  and  C_14
REMARK    6  A    between atoms: C_14  and  C_15
REMARK                            x       y       z     vdW  Elec       q    Type
REMARK                         _______ _______ _______ _____ _____    ______ ____
ROOT
ATOM      1  C   UNL     1      -0.019   1.526   0.010  0.00  0.00    +0.011 C 
ATOM      2  C   UNL     1       0.002  -0.004   0.002  0.00  0.00    -0.023 C 
ATOM      3  C   UNL     1      -1.431  -0.539   0.041  0.00  0.00    +0.058 C 
ATOM      4  C   UNL     1      -1.409  -2.049   0.077  0.00  0.00    +0.020 C 
ATOM      5  C   UNL     1      -0.393  -2.714   0.667  0.00  0.00    +0.044 C 
ATOM      6  C   UNL     1      -0.342  -4.225   0.717  0.00  0.00    +0.211 C 
ATOM      7  N   UNL     1      -1.642  -4.780   0.360  0.00  0.00    -0.217 N 
ATOM      8  C   UNL     1      -2.629  -4.054  -0.221  0.00  0.00    +0.220 A 
ATOM      9  N   UNL     1      -3.651  -4.841  -0.415  0.00  0.00    -0.187 NA
ATOM     10  C   UNL     1      -3.361  -6.072   0.032  0.00  0.00    +0.211 A 
ATOM     11  N   UNL     1      -2.137  -6.074   0.516  0.00  0.00    -0.141 NA
ATOM     12  N   UNL     1      -2.463  -2.709  -0.507  0.00  0.00    -0.287 N 
ATOM     13  C   UNL     1       0.675  -2.019   1.263  0.00  0.00    +0.164 C 
ATOM     14  O   UNL     1       1.563  -2.646   1.806  0.00  0.00    -0.292 OA
ATOM     15  C   UNL     1       0.742  -0.517   1.242  0.00  0.00    +0.086 C 
ATOM     16  C   UNL     1       0.706  -0.503  -1.262  0.00  0.00    +0.011 C 
ATOM     17  H   UNL     1      -3.074  -2.246  -1.101  0.00  0.00    +0.155 HD
ENDROOT
BRANCH   6  18
ATOM     18  C   UNL     1       0.695  -4.724  -0.256  0.00  0.00    +0.136 A 
ATOM     19  C   UNL     1       1.778  -5.458   0.057  0.00  0.00    +0.048 A 
ATOM     20  C   UNL     1       2.471  -5.701  -1.151  0.00  0.00    +0.057 A 
ATOM     21  C   UNL     1       1.770  -5.100  -2.130  0.00  0.00    +0.170 A 
ATOM     22  O   UNL     1       0.693  -4.515  -1.583  0.00  0.00    -0.451 OA
ATOM     23 BR   UNL     1       2.222  -5.088  -3.967  0.00  0.00    -0.008 Br
ENDBRANCH   6  18
BRANCH  10  24
ATOM     24  S   UNL     1      -4.443  -7.462  -0.021  0.00  0.00    -0.080 S 
BRANCH  24  25
ATOM     25  C   UNL     1      -5.952  -6.814  -0.792  0.00  0.00    +0.112 C 
BRANCH  25  26
ATOM     26  C   UNL     1      -6.974  -7.916  -0.898  0.00  0.00    -0.037 A 
ATOM     27  C   UNL     1      -7.013  -8.716  -2.025  0.00  0.00    +0.004 A 
ATOM     28  C   UNL     1      -7.950  -9.727  -2.122  0.00  0.00    +0.000 A 
ATOM     29  C   UNL     1      -8.849  -9.938  -1.093  0.00  0.00    +0.000 A 
ATOM     30  C   UNL     1      -8.810  -9.138   0.033  0.00  0.00    +0.000 A 
ATOM     31  C   UNL     1      -7.870  -8.130   0.133  0.00  0.00    +0.004 A 
ENDBRANCH  25  26
ENDBRANCH  24  25
ENDBRANCH  10  24
TORSDOF 4
