REMARK  Name = ZINC65375632
REMARK  5 active torsions:
REMARK  status: ('A' for Active; 'I' for Inactive)
REMARK    1  A    between atoms: C_1  and  O_2
REMARK    2  A    between atoms: O_2  and  C_3
REMARK    3  A    between atoms: C_7  and  C_11
REMARK    4  A    between atoms: C_8  and  O_9
REMARK    5  A    between atoms: O_9  and  C_10
REMARK                            x       y       z     vdW  Elec       q    Type
REMARK                         _______ _______ _______ _____ _____    ______ ____
ROOT
ATOM      1  C   UNL     1       1.856  -4.201  -2.072  0.00  0.00    +0.137 C 
ATOM      2  C   UNL     1       2.387  -4.682  -3.399  0.00  0.00    +0.058 A 
ATOM      3  C   UNL     1       3.446  -5.515  -3.517  0.00  0.00    +0.039 A 
ATOM      4  N   UNL     1       3.641  -5.730  -4.844  0.00  0.00    -0.349 N 
ATOM      5  H   UNL     1       4.330  -6.285  -5.244  0.00  0.00    +0.166 HD
ATOM      6  C   UNL     1       2.693  -5.023  -5.503  0.00  0.00    +0.171 A 
ATOM      7  N   UNL     1       1.948  -4.400  -4.627  0.00  0.00    -0.348 N 
ATOM      8  C   UNL     1       4.210  -6.060  -2.338  0.00  0.00    +0.070 C 
ATOM      9  C   UNL     1       3.357  -5.839  -1.081  0.00  0.00    +0.088 C 
ATOM     10  N   UNL     1       2.883  -4.448  -1.046  0.00  0.00    -0.304 NA
ATOM     11  H   UNL     1       3.652  -3.801  -1.141  0.00  0.00    +0.123 HD
ATOM     12  H   UNL     1       1.196  -3.824  -4.836  0.00  0.00    +0.166 HD
ENDROOT
BRANCH   1  17
ATOM     13  C   UNL     1       0.482  -0.768  -1.262  0.00  0.00    +0.163 A 
ATOM     14  C   UNL     1       1.013  -0.012  -2.295  0.00  0.00    +0.069 A 
ATOM     15  C   UNL     1       1.815  -0.612  -3.249  0.00  0.00    +0.045 A 
ATOM     16  C   UNL     1       2.086  -1.966  -3.176  0.00  0.00    +0.029 A 
ATOM     17  C   UNL     1       1.559  -2.726  -2.148  0.00  0.00    +0.022 A 
ATOM     18  C   UNL     1       0.760  -2.129  -1.186  0.00  0.00    +0.167 A 
ATOM     19 CL   UNL     1       2.480   0.337  -4.542  0.00  0.00    -0.083 Cl
BRANCH  13  21
ATOM     20  C   UNL     1      -0.549   1.221  -0.464  0.00  0.00    +0.277 C 
ATOM     21  O   UNL     1      -0.306  -0.180  -0.322  0.00  0.00    -0.491 OA
ENDBRANCH  13  21
BRANCH  18  22
ATOM     22  O   UNL     1       0.245  -2.874  -0.171  0.00  0.00    -0.491 OA
ATOM     23  C   UNL     1      -1.080  -3.380  -0.345  0.00  0.00    +0.277 C 
ENDBRANCH  18  22
ENDBRANCH   1  17
TORSDOF 3
