REMARK  Name = ZINC59170661
REMARK  9 active torsions:
REMARK  status: ('A' for Active; 'I' for Inactive)
REMARK    1  A    between atoms: C_1  and  C_2
REMARK    2  A    between atoms: C_2  and  C_3
REMARK    3  A    between atoms: C_8  and  N_9
REMARK    4  A    between atoms: C_10  and  C_12
REMARK    5  A    between atoms: C_17  and  O_34
REMARK    6  A    between atoms: N_22  and  N_23
REMARK    7  A    between atoms: N_23  and  S_24
REMARK    8  A    between atoms: S_24  and  C_27
REMARK    9  A    between atoms: C_30  and  C_33
REMARK                            x       y       z     vdW  Elec       q    Type
REMARK                         _______ _______ _______ _____ _____    ______ ____
ROOT
ATOM      1  C   UNL     1      -1.256  -0.530  -4.365  0.00  0.00    +0.099 A 
ATOM      2  C   UNL     1      -1.949  -0.524  -5.553  0.00  0.00    +0.030 A 
ATOM      3  C   UNL     1      -1.305   0.100  -6.713  0.00  0.00    +0.018 A 
ATOM      4  C   UNL     1      -2.039   0.384  -7.870  0.00  0.00    +0.015 A 
ATOM      5  C   UNL     1      -1.422   0.968  -8.940  0.00  0.00    +0.046 A 
ATOM      6  C   UNL     1      -0.067   1.283  -8.888  0.00  0.00    +0.120 A 
ATOM      7  C   UNL     1       0.676   1.006  -7.748  0.00  0.00    +0.092 A 
ATOM      8  C   UNL     1       0.066   0.414  -6.657  0.00  0.00    +0.141 A 
ATOM      9  O   UNL     1       0.779   0.131  -5.537  0.00  0.00    -0.437 OA
ATOM     10  C   UNL     1       0.085   0.101  -4.359  0.00  0.00    +0.225 A 
ATOM     11  N   UNL     1       0.586   0.605  -3.267  0.00  0.00    -0.260 N 
ATOM     12  H   UNL     1       0.098   0.534  -2.432  0.00  0.00    +0.189 HD
ENDROOT
BRANCH   1  14
ATOM     13  N   UNL     1      -3.026  -1.742  -3.198  0.00  0.00    -0.281 N 
ATOM     14  C   UNL     1      -1.824  -1.133  -3.150  0.00  0.00    +0.253 C 
ATOM     15  O   UNL     1      -1.209  -1.082  -2.101  0.00  0.00    -0.270 OA
ATOM     16  H   UNL     1      -3.553  -1.711  -4.011  0.00  0.00    +0.155 HD
BRANCH  13  22
ATOM     17  C   UNL     1      -4.377  -3.493  -2.230  0.00  0.00    -0.026 A 
ATOM     18  C   UNL     1      -4.852  -4.162  -1.119  0.00  0.00    +0.005 A 
ATOM     19  C   UNL     1      -4.472  -3.758   0.148  0.00  0.00    +0.000 A 
ATOM     20  C   UNL     1      -3.615  -2.683   0.306  0.00  0.00    +0.002 A 
ATOM     21  C   UNL     1      -3.137  -2.011  -0.800  0.00  0.00    +0.023 A 
ATOM     22  C   UNL     1      -3.512  -2.417  -2.075  0.00  0.00    +0.037 A 
BRANCH  17  24
ATOM     23  C   UNL     1      -3.651  -4.723  -4.258  0.00  0.00    +0.009 C 
ATOM     24  C   UNL     1      -4.791  -3.934  -3.610  0.00  0.00    +0.033 C 
ENDBRANCH  17  24
ENDBRANCH  13  22
ENDBRANCH   1  14
BRANCH  11  25
ATOM     25  N   UNL     1       1.829   1.250  -3.299  0.00  0.00    -0.157 N 
ATOM     26  H   UNL     1       2.282   1.387  -4.146  0.00  0.00    +0.194 HD
BRANCH  25  27
ATOM     27  S   UNL     1       2.525   1.777  -1.892  0.00  0.00    +0.085 S 
ATOM     28  O   UNL     1       3.867   2.122  -2.207  0.00  0.00    -0.149 OA
ATOM     29  O   UNL     1       1.617   2.703  -1.312  0.00  0.00    -0.149 OA
BRANCH  27  30
ATOM     30  C   UNL     1       2.603   0.396  -0.801  0.00  0.00    +0.110 A 
ATOM     31  C   UNL     1       1.514   0.076  -0.012  0.00  0.00    +0.029 A 
ATOM     32  C   UNL     1       1.575  -1.008   0.845  0.00  0.00    +0.005 A 
ATOM     33  C   UNL     1       2.726  -1.771   0.912  0.00  0.00    -0.050 A 
ATOM     34  C   UNL     1       3.814  -1.452   0.122  0.00  0.00    +0.005 A 
ATOM     35  C   UNL     1       3.752  -0.371  -0.737  0.00  0.00    +0.029 A 
ATOM     36  C   UNL     1       2.793  -2.952   1.846  0.00  0.00    +0.044 C 
ENDBRANCH  27  30
ENDBRANCH  25  27
ENDBRANCH  11  25
BRANCH   6  37
ATOM     37  O   UNL     1       0.532   1.864  -9.958  0.00  0.00    -0.507 OA
ATOM     38  H   UNL     1       0.507   2.831  -9.946  0.00  0.00    +0.292 HD
ENDBRANCH   6  37
TORSDOF 7
