REMARK  Name = ZINC09076222
REMARK  8 active torsions:
REMARK  status: ('A' for Active; 'I' for Inactive)
REMARK    1  A    between atoms: C_1  and  C_2
REMARK    2  A    between atoms: C_5  and  C_8
REMARK    3  A    between atoms: N_10  and  C_11
REMARK    4  A    between atoms: N_10  and  C_25
REMARK    5  A    between atoms: C_11  and  C_12
REMARK    6  A    between atoms: C_17  and  C_24
REMARK    7  A    between atoms: C_28  and  C_32
REMARK    8  A    between atoms: C_30  and  C_31
REMARK                            x       y       z     vdW  Elec       q    Type
REMARK                         _______ _______ _______ _____ _____    ______ ____
ROOT
ATOM      1  C   UNL     1       2.930   0.697  -1.185  0.00  0.00    +0.251 C 
ATOM      2  O   UNL     1       3.703  -0.241  -1.145  0.00  0.00    -0.270 OA
ATOM      3  N   UNL     1       2.671   1.404  -0.068  0.00  0.00    -0.263 N 
ENDROOT
BRANCH   3   4
ATOM      4  C   UNL     1       1.709   2.419  -0.091  0.00  0.00    +0.040 A 
ATOM      5  C   UNL     1       0.413   2.160   0.338  0.00  0.00    +0.024 A 
ATOM      6  C   UNL     1      -0.536   3.163   0.308  0.00  0.00    +0.005 A 
ATOM      7  C   UNL     1      -0.195   4.427  -0.138  0.00  0.00    -0.050 A 
ATOM      8  C   UNL     1       1.094   4.688  -0.564  0.00  0.00    +0.008 A 
ATOM      9  C   UNL     1       2.047   3.688  -0.542  0.00  0.00    -0.029 A 
ATOM     10  C   UNL     1       3.451   3.974  -1.008  0.00  0.00    +0.045 C 
ATOM     11  C   UNL     1      -1.232   5.520  -0.164  0.00  0.00    +0.044 C 
ENDBRANCH   3   4
BRANCH   1  16
ATOM     12  C   UNL     1       0.383   2.114  -6.146  0.00  0.00    +0.044 C 
ATOM     13  C   UNL     1       1.050   1.743  -4.847  0.00  0.00    -0.050 A 
ATOM     14  C   UNL     1       2.404   1.459  -4.824  0.00  0.00    +0.004 A 
ATOM     15  C   UNL     1       3.021   1.119  -3.639  0.00  0.00    +0.013 A 
ATOM     16  C   UNL     1       2.276   1.061  -2.459  0.00  0.00    +0.037 A 
ATOM     17  C   UNL     1       0.909   1.343  -2.490  0.00  0.00    +0.013 A 
ATOM     18  C   UNL     1       0.306   1.688  -3.682  0.00  0.00    +0.004 A 
ENDBRANCH   1  16
BRANCH   3  19
ATOM     19  C   UNL     1       3.396   1.110   1.171  0.00  0.00    +0.154 C 
BRANCH  19  20
ATOM     20  C   UNL     1       2.643   0.069   1.958  0.00  0.00    +0.035 A 
ATOM     21  C   UNL     1       2.973  -1.240   1.835  0.00  0.00    +0.020 A 
ATOM     22  C   UNL     1       2.223  -2.227   2.614  0.00  0.00    -0.001 A 
ATOM     23  C   UNL     1       2.518  -3.592   2.529  0.00  0.00    +0.010 A 
ATOM     24  C   UNL     1       1.799  -4.487   3.269  0.00  0.00    +0.004 A 
ATOM     25  C   UNL     1       0.779  -4.055   4.105  0.00  0.00    -0.048 A 
ATOM     26  C   UNL     1       0.471  -2.715   4.205  0.00  0.00    +0.029 A 
ATOM     27  C   UNL     1       1.189  -1.785   3.461  0.00  0.00    +0.049 A 
ATOM     28  N   UNL     1       0.903  -0.439   3.541  0.00  0.00    -0.322 N 
ATOM     29  H   UNL     1       0.094  -0.087   4.198  0.00  0.00    +0.169 HD
ATOM     30  C   UNL     1       1.601   0.461   2.826  0.00  0.00    +0.254 A 
ATOM     31  O   UNL     1       1.324   1.643   2.926  0.00  0.00    -0.268 OA
ATOM     32  C   UNL     1      -0.001  -5.061   4.913  0.00  0.00    +0.044 C 
ENDBRANCH  19  20
ENDBRANCH   3  19
TORSDOF 4
