REMARK  Name = ZINC00912783
REMARK  3 active torsions:
REMARK  status: ('A' for Active; 'I' for Inactive)
REMARK    1  A    between atoms: C_1  and  C_2
REMARK    2  A    between atoms: C_5  and  C_8
REMARK    3  A    between atoms: C_13  and  C_18
REMARK                            x       y       z     vdW  Elec       q    Type
REMARK                         _______ _______ _______ _____ _____    ______ ____
ROOT
ATOM      1  C   UNL     1       0.059  -4.275  -0.021  0.00  0.00    +0.090 C 
ATOM      2  C   UNL     1      -1.215  -4.770   0.637  0.00  0.00    +0.028 C 
ATOM      3  C   UNL     1      -1.107  -5.574   1.734  0.00  0.00    +0.050 C 
ATOM      4  C   UNL     1      -2.355  -6.090   2.413  0.00  0.00    +0.067 C 
ATOM      5  C   UNL     1      -3.487  -5.074   2.248  0.00  0.00    +0.068 C 
ATOM      6  C   UNL     1      -3.738  -4.851   0.753  0.00  0.00    +0.091 C 
ATOM      7  C   UNL     1      -2.455  -4.392   0.110  0.00  0.00    +0.163 C 
ATOM      8  O   UNL     1      -2.497  -3.687  -0.878  0.00  0.00    -0.292 OA
ATOM      9  N   UNL     1       0.076  -5.926   2.231  0.00  0.00    -0.251 NA
ATOM     10  C   UNL     1       1.250  -5.574   1.758  0.00  0.00    +0.080 C 
ATOM     11  C   UNL     1       1.352  -4.736   0.622  0.00  0.00    +0.038 C 
ATOM     12  C   UNL     1       2.654  -4.511   0.333  0.00  0.00    +0.193 C 
ATOM     13  C   UNL     1       3.498  -5.227   1.316  0.00  0.00    +0.031 A 
ATOM     14  C   UNL     1       2.636  -5.888   2.198  0.00  0.00    +0.012 A 
ATOM     15  C   UNL     1       3.156  -6.645   3.231  0.00  0.00    +0.011 A 
ATOM     16  C   UNL     1       4.534  -6.750   3.385  0.00  0.00    +0.001 A 
ATOM     17  C   UNL     1       5.384  -6.104   2.512  0.00  0.00    +0.001 A 
ATOM     18  C   UNL     1       4.869  -5.340   1.484  0.00  0.00    +0.012 A 
ATOM     19  O   UNL     1       3.111  -3.755  -0.690  0.00  0.00    -0.287 OA
ENDROOT
BRANCH   1  24
ATOM     20  C   UNL     1      -0.018   1.503   0.010  0.00  0.00    +0.044 C 
ATOM     21  C   UNL     1       0.002  -0.004   0.002  0.00  0.00    -0.050 A 
ATOM     22  C   UNL     1       0.006  -0.689  -1.199  0.00  0.00    +0.003 A 
ATOM     23  C   UNL     1       0.025  -2.071  -1.206  0.00  0.00    +0.005 A 
ATOM     24  C   UNL     1       0.040  -2.768  -0.013  0.00  0.00    -0.035 A 
ATOM     25  C   UNL     1       0.037  -2.084   1.188  0.00  0.00    +0.005 A 
ATOM     26  C   UNL     1       0.023  -0.702   1.195  0.00  0.00    +0.003 A 
ENDBRANCH   1  24
BRANCH   5  27
ATOM     27  C   UNL     1      -4.739  -5.604   2.899  0.00  0.00    +0.109 A 
ATOM     28  C   UNL     1      -5.413  -5.014   3.903  0.00  0.00    +0.045 A 
ATOM     29  C   UNL     1      -6.515  -5.848   4.201  0.00  0.00    +0.041 A 
ATOM     30  C   UNL     1      -6.449  -6.897   3.362  0.00  0.00    +0.195 A 
ATOM     31  O   UNL     1      -5.374  -6.741   2.571  0.00  0.00    -0.468 OA
ENDBRANCH   5  27
TORSDOF 2
