REMARK  Name = ZINC02882991
REMARK  10 active torsions:
REMARK  status: ('A' for Active; 'I' for Inactive)
REMARK    1  A    between atoms: C_1  and  C_2
REMARK    2  A    between atoms: C_2  and  C_4
REMARK    3  A    between atoms: C_2  and  N_44
REMARK    4  A    between atoms: C_10  and  C_11
REMARK    5  A    between atoms: C_10  and  N_44
REMARK    6  A    between atoms: C_13  and  O_22
REMARK    7  A    between atoms: C_14  and  O_18
REMARK    8  A    between atoms: O_18  and  C_19
REMARK    9  A    between atoms: C_19  and  C_20
REMARK   10  A    between atoms: O_22  and  C_23
REMARK                            x       y       z     vdW  Elec       q    Type
REMARK                         _______ _______ _______ _____ _____    ______ ____
ROOT
ATOM      1  C   UNL     1       0.936   0.439   4.819  0.00  0.00    -0.060 A 
ATOM      2  C   UNL     1       1.347   1.612   4.212  0.00  0.00    +0.051 A 
ATOM      3  C   UNL     1       0.807   1.988   2.993  0.00  0.00    +0.163 A 
ATOM      4  C   UNL     1      -0.148   1.182   2.381  0.00  0.00    +0.175 A 
ATOM      5  C   UNL     1      -0.559   0.010   2.995  0.00  0.00    +0.059 A 
ATOM      6  C   UNL     1      -0.012  -0.362   4.210  0.00  0.00    +0.020 A 
ATOM      7  I   UNL     1      -2.003  -1.202   2.082  0.00  0.00    -0.040 I 
ENDROOT
BRANCH   3   8
ATOM      8  O   UNL     1       1.209   3.141   2.396  0.00  0.00    -0.491 OA
ATOM      9  C   UNL     1       2.193   3.918   3.083  0.00  0.00    +0.277 C 
ENDBRANCH   3   8
BRANCH   1  10
ATOM     10  C   UNL     1       1.525   0.032   6.145  0.00  0.00    -0.046 C 
BRANCH  10  11
ATOM     11  N   UNL     1       0.703   0.597   7.232  0.00  0.00    +0.386 N 
ATOM     12  H   UNL     1       0.695   1.620   7.153  0.00  0.00    -0.085 HD
ATOM     13  H   UNL     1      -0.256   0.240   7.152  0.00  0.00    -0.085 HD
BRANCH  11  15
ATOM     14  C   UNL     1       2.354   1.203   8.944  0.00  0.00    -0.009 C 
ATOM     15  C   UNL     1       1.257   0.214   8.544  0.00  0.00    -0.044 C 
BRANCH  15  16
ATOM     16  C   UNL     1       0.156   0.242   9.573  0.00  0.00    -0.062 A 
ATOM     17  C   UNL     1      -0.787   1.252   9.549  0.00  0.00    +0.002 A 
ATOM     18  C   UNL     1      -1.800   1.276  10.489  0.00  0.00    +0.000 A 
ATOM     19  C   UNL     1      -1.864   0.294  11.460  0.00  0.00    +0.000 A 
ATOM     20  C   UNL     1      -0.918  -0.714  11.488  0.00  0.00    +0.000 A 
ATOM     21  C   UNL     1       0.092  -0.740  10.544  0.00  0.00    +0.002 A 
ENDBRANCH  15  16
ENDBRANCH  11  15
ENDBRANCH  10  11
ENDBRANCH   1  10
BRANCH   4  22
ATOM     22  O   UNL     1      -0.682   1.547   1.184  0.00  0.00    -0.483 OA
BRANCH  22  23
ATOM     23  C   UNL     1      -0.013   1.086   0.008  0.00  0.00    +0.256 C 
BRANCH  23  24
ATOM     24  C   UNL     1      -0.742   1.585  -1.213  0.00  0.00    +0.006 C 
ATOM     25  C   UNL     1      -0.069   2.095  -2.215  0.00  0.00    +0.007 C 
ENDBRANCH  23  24
ENDBRANCH  22  23
ENDBRANCH   4  22
TORSDOF 8
