REMARK  Name = ZINC63190813
REMARK  4 active torsions:
REMARK  status: ('A' for Active; 'I' for Inactive)
REMARK    1  A    between atoms: C_1  and  S_2
REMARK    2  A    between atoms: S_2  and  C_5
REMARK    3  A    between atoms: C_10  and  N_11
REMARK    4  A    between atoms: C_16  and  C_18
REMARK                            x       y       z     vdW  Elec       q    Type
REMARK                         _______ _______ _______ _____ _____    ______ ____
ROOT
ATOM      1  N   UNL     1      -1.044   0.798  -2.616  0.00  0.00    -0.327 N 
ATOM      2  C   UNL     1      -1.037   2.267  -2.621  0.00  0.00    +0.105 C 
ATOM      3  C   UNL     1      -1.902   2.761  -3.785  0.00  0.00    +0.019 C 
ATOM      4  C   UNL     1      -3.296   2.139  -3.678  0.00  0.00    +0.003 C 
ATOM      5  C   UNL     1      -3.186   0.615  -3.770  0.00  0.00    +0.021 C 
ATOM      6  C   UNL     1      -2.335   0.098  -2.612  0.00  0.00    +0.060 C 
ENDROOT
BRANCH   6   7
ATOM      7  C   UNL     1      -2.104  -1.406  -2.781  0.00  0.00    -0.051 C 
ATOM      8  C   UNL     1      -1.478  -1.689  -4.163  0.00  0.00    -0.016 C 
ATOM      9  C   UNL     1      -2.176  -3.004  -4.599  0.00  0.00    -0.021 C 
ATOM     10  C   UNL     1      -3.600  -2.809  -4.021  0.00  0.00    -0.082 C 
ATOM     11  N   UNL     1      -3.392  -2.121  -2.725  0.00  0.00    +0.382 N 
ATOM     12  H   UNL     1      -3.373  -2.798  -1.978  0.00  0.00    -0.085 HD
ATOM     13  H   UNL     1      -4.139  -1.462  -2.566  0.00  0.00    -0.085 HD
ENDBRANCH   6   7
BRANCH   1  19
ATOM     14  C   UNL     1       0.693  -0.383  -1.428  0.00  0.00    +0.109 A 
ATOM     15  C   UNL     1       1.876  -1.097  -1.437  0.00  0.00    +0.029 A 
ATOM     16  C   UNL     1       2.527  -1.344  -2.631  0.00  0.00    +0.002 A 
ATOM     17  C   UNL     1       1.997  -0.878  -3.821  0.00  0.00    +0.002 A 
ATOM     18  C   UNL     1       0.815  -0.165  -3.819  0.00  0.00    +0.025 A 
ATOM     19  C   UNL     1       0.155   0.081  -2.621  0.00  0.00    +0.055 A 
BRANCH  14  21
ATOM     20  C   UNL     1       0.848   1.225   0.902  0.00  0.00    +0.200 C 
ATOM     21  S   UNL     1      -0.135  -0.069   0.095  0.00  0.00    -0.004 S 
ATOM     22  O   UNL     1      -0.034  -1.286   0.821  0.00  0.00    -0.170 OA
ATOM     23  O   UNL     1      -1.405   0.446  -0.283  0.00  0.00    -0.170 OA
ENDBRANCH  14  21
ENDBRANCH   1  19
TORSDOF 3
