REMARK  Name = ZINC22321608
REMARK  14 active torsions:
REMARK  status: ('A' for Active; 'I' for Inactive)
REMARK    1  A    between atoms: C_1  and  C_2
REMARK    2  A    between atoms: C_2  and  C_3
REMARK    3  A    between atoms: N_9  and  C_10
REMARK    4  A    between atoms: C_10  and  C_11
REMARK    5  A    between atoms: C_11  and  C_12
REMARK    6  A    between atoms: C_12  and  N_13
REMARK    7  A    between atoms: C_14  and  C_16
REMARK    8  A    between atoms: C_16  and  N_17
REMARK    9  A    between atoms: N_17  and  C_18
REMARK   10  A    between atoms: N_17  and  S_26
REMARK   11  A    between atoms: C_21  and  O_24
REMARK   12  A    between atoms: O_24  and  C_25
REMARK   13  A    between atoms: S_26  and  C_29
REMARK   14  A    between atoms: C_32  and  C_35
REMARK                            x       y       z     vdW  Elec       q    Type
REMARK                         _______ _______ _______ _____ _____    ______ ____
ROOT
ATOM      1  N   UNL     1      -0.416   2.993  -8.946  0.00  0.00    -0.194 N 
ENDROOT
BRANCH   1   2
ATOM      2  C   UNL     1      -1.210   1.877  -9.234  0.00  0.00    +0.052 A 
ATOM      3  C   UNL     1      -1.502   1.554 -10.553  0.00  0.00    +0.028 A 
ATOM      4  C   UNL     1      -2.280   0.449 -10.837  0.00  0.00    +0.047 A 
ATOM      5  C   UNL     1      -2.781  -0.330  -9.805  0.00  0.00    +0.120 A 
ATOM      6  C   UNL     1      -2.496  -0.005  -8.487  0.00  0.00    +0.047 A 
ATOM      7  C   UNL     1      -1.712   1.096  -8.202  0.00  0.00    +0.028 A 
BRANCH   5   8
ATOM      8  O   UNL     1      -3.552  -1.415 -10.085  0.00  0.00    -0.495 OA
ATOM      9  C   UNL     1      -3.806  -1.692 -11.464  0.00  0.00    +0.277 C 
ENDBRANCH   5   8
ENDBRANCH   1   2
BRANCH   1  10
ATOM     10  S   UNL     1      -0.357   4.263 -10.006  0.00  0.00    +0.075 S 
ATOM     11  O   UNL     1      -1.525   4.177 -10.810  0.00  0.00    -0.150 OA
ATOM     12  O   UNL     1      -0.043   5.418  -9.240  0.00  0.00    -0.150 OA
BRANCH  10  13
ATOM     13  C   UNL     1       1.013   3.983 -11.079  0.00  0.00    +0.109 A 
ATOM     14  C   UNL     1       2.283   4.370 -10.693  0.00  0.00    +0.029 A 
ATOM     15  C   UNL     1       3.359   4.146 -11.532  0.00  0.00    +0.005 A 
ATOM     16  C   UNL     1       3.163   3.544 -12.761  0.00  0.00    -0.050 A 
ATOM     17  C   UNL     1       1.892   3.161 -13.149  0.00  0.00    +0.005 A 
ATOM     18  C   UNL     1       0.817   3.381 -12.308  0.00  0.00    +0.029 A 
ATOM     19  C   UNL     1       4.334   3.304 -13.678  0.00  0.00    +0.044 C 
ENDBRANCH  10  13
ENDBRANCH   1  10
BRANCH   1  20
ATOM     20  C   UNL     1       0.362   3.037  -7.705  0.00  0.00    +0.227 C 
BRANCH  20  22
ATOM     21  N   UNL     1       0.000   3.672  -5.342  0.00  0.00    -0.314 N 
ATOM     22  C   UNL     1      -0.507   3.546  -6.585  0.00  0.00    +0.232 C 
ATOM     23  O   UNL     1      -1.663   3.843  -6.801  0.00  0.00    -0.274 OA
ATOM     24  H   UNL     1       1.048   3.402  -5.147  0.00  0.00    +0.149 HD
BRANCH  21  25
ATOM     25  C   UNL     1      -0.845   4.167  -4.253  0.00  0.00    +0.102 C 
BRANCH  25  26
ATOM     26  C   UNL     1      -0.032   4.213  -2.958  0.00  0.00    +0.000 C 
BRANCH  26  27
ATOM     27  C   UNL     1      -0.914   4.730  -1.820  0.00  0.00    -0.077 C 
BRANCH  27  33
ATOM     28  C   UNL     1      -0.812   5.586   0.443  0.00  0.00    -0.069 C 
ATOM     29  C   UNL     1       0.093   5.730   1.668  0.00  0.00    -0.015 C 
ATOM     30  C   UNL     1       0.414   4.340   2.226  0.00  0.00    -0.003 C 
ATOM     31  C   UNL     1       1.075   3.499   1.131  0.00  0.00    -0.019 C 
ATOM     32  C   UNL     1       0.142   3.420  -0.079  0.00  0.00    -0.078 C 
ATOM     33  N   UNL     1      -0.134   4.774  -0.576  0.00  0.00    +0.382 N 
ATOM     34  H   UNL     1       0.832   5.253  -0.798  0.00  0.00    -0.081 HD
BRANCH  28  36
ATOM     35  C   UNL     1       0.176   7.611  -0.637  0.00  0.00    +0.002 C 
ATOM     36  C   UNL     1      -1.118   6.971  -0.130  0.00  0.00    -0.019 C 
ENDBRANCH  28  36
ENDBRANCH  27  33
ENDBRANCH  26  27
ENDBRANCH  25  26
ENDBRANCH  21  25
ENDBRANCH  20  22
ENDBRANCH   1  20
TORSDOF 11
