REMARK  Name = ZINC12411608
REMARK  14 active torsions:
REMARK  status: ('A' for Active; 'I' for Inactive)
REMARK    1  A    between atoms: C_1  and  C_2
REMARK    2  A    between atoms: C_2  and  N_65
REMARK    3  A    between atoms: C_3  and  C_4
REMARK    4  A    between atoms: C_3  and  N_65
REMARK    5  A    between atoms: C_5  and  C_6
REMARK    6  A    between atoms: C_5  and  N_65
REMARK    7  A    between atoms: C_6  and  C_7
REMARK    8  A    between atoms: C_7  and  C_8
REMARK    9  A    between atoms: C_8  and  C_10
REMARK   10  A    between atoms: C_8  and  N_11
REMARK   11  A    between atoms: C_15  and  O_32
REMARK   12  A    between atoms: C_20  and  C_22
REMARK   13  A    between atoms: C_23  and  C_24
REMARK   14  A    between atoms: O_32  and  C_33
REMARK                            x       y       z     vdW  Elec       q    Type
REMARK                         _______ _______ _______ _____ _____    ______ ____
ROOT
ATOM      1  N   UNL     1       3.968   5.061  -0.392  0.00  0.00    -0.326 N 
ATOM      2  C   UNL     1       2.771   4.380  -0.469  0.00  0.00    +0.131 A 
ATOM      3  C   UNL     1       1.546   5.028  -0.165  0.00  0.00    +0.044 A 
ATOM      4  C   UNL     1       1.497   6.370   0.222  0.00  0.00    +0.059 A 
ATOM      5  C   UNL     1       0.278   6.949   0.507  0.00  0.00    +0.121 A 
ATOM      6  C   UNL     1      -0.902   6.207   0.411  0.00  0.00    +0.048 A 
ATOM      7  C   UNL     1      -0.878   4.898   0.036  0.00  0.00    +0.032 A 
ATOM      8  C   UNL     1       0.346   4.280  -0.260  0.00  0.00    +0.077 A 
ATOM      9  N   UNL     1       0.415   2.996  -0.637  0.00  0.00    -0.228 NA
ATOM     10  C   UNL     1       1.584   2.438  -0.906  0.00  0.00    +0.155 A 
ATOM     11  N   UNL     1       2.737   3.107  -0.828  0.00  0.00    -0.213 NA
ATOM     12  H   UNL     1       3.979   5.994  -0.128  0.00  0.00    +0.148 HD
ENDROOT
BRANCH   1  13
ATOM     13  C   UNL     1       5.223   4.375  -0.711  0.00  0.00    +0.069 C 
ATOM     14  C   UNL     1       5.730   3.638   0.531  0.00  0.00    +0.028 C 
BRANCH  13  15
ATOM     15  C   UNL     1       6.266   5.400  -1.157  0.00  0.00    +0.020 C 
BRANCH  15  16
ATOM     16  C   UNL     1       5.816   6.048  -2.468  0.00  0.00    -0.017 C 
BRANCH  16  17
ATOM     17  C   UNL     1       6.860   7.074  -2.914  0.00  0.00    -0.079 C 
BRANCH  17  18
ATOM     18  N   UNL     1       6.421   7.676  -4.191  0.00  0.00    +0.379 N 
ATOM     19  H   UNL     1       6.198   6.924  -4.854  0.00  0.00    -0.082 HD
BRANCH  18  21
ATOM     20  C   UNL     1       5.498   9.617  -2.969  0.00  0.00    -0.017 C 
ATOM     21  C   UNL     1       5.212   8.498  -3.973  0.00  0.00    -0.082 C 
ENDBRANCH  18  21
BRANCH  18  22
ATOM     22  C   UNL     1       7.504   8.509  -4.756  0.00  0.00    -0.082 C 
ATOM     23  C   UNL     1       7.177   8.815  -6.219  0.00  0.00    -0.017 C 
ENDBRANCH  18  22
ENDBRANCH  17  18
ENDBRANCH  16  17
ENDBRANCH  15  16
ENDBRANCH  13  15
ENDBRANCH   1  13
BRANCH  10  24
ATOM     24  C   UNL     1       1.615   1.024  -1.312  0.00  0.00    +0.049 C 
ATOM     25  C   UNL     1       0.470   0.324  -1.399  0.00  0.00    +0.013 C 
BRANCH  25  26
ATOM     26  C   UNL     1       0.501  -1.091  -1.805  0.00  0.00    -0.007 A 
ATOM     27  C   UNL     1       1.718  -1.708  -2.107  0.00  0.00    +0.011 A 
ATOM     28  C   UNL     1       1.740  -3.035  -2.482  0.00  0.00    +0.020 A 
ATOM     29  C   UNL     1       0.559  -3.753  -2.571  0.00  0.00    +0.042 A 
ATOM     30  C   UNL     1      -0.651  -3.148  -2.279  0.00  0.00    +0.040 A 
ATOM     31  C   UNL     1      -0.688  -1.822  -1.897  0.00  0.00    +0.049 A 
ATOM     32 CL   UNL     1      -2.207  -1.063  -1.532  0.00  0.00    -0.083 Cl
ATOM     33 CL   UNL     1       0.596  -5.421  -3.051  0.00  0.00    -0.083 Cl
ENDBRANCH  25  26
ENDBRANCH  10  24
BRANCH   5  34
ATOM     34  O   UNL     1       0.223   8.254   0.884  0.00  0.00    -0.495 OA
ATOM     35  C   UNL     1      -1.069   8.794   1.165  0.00  0.00    +0.277 C 
ENDBRANCH   5  34
TORSDOF 10
