REMARK  Name = ZINC44546322
REMARK  9 active torsions:
REMARK  status: ('A' for Active; 'I' for Inactive)
REMARK    1  A    between atoms: C_1  and  C_2
REMARK    2  A    between atoms: C_2  and  C_36
REMARK    3  A    between atoms: C_6  and  O_35
REMARK    4  A    between atoms: C_8  and  C_16
REMARK    5  A    between atoms: C_11  and  C_13
REMARK    6  A    between atoms: C_16  and  N_17
REMARK    7  A    between atoms: C_18  and  O_20
REMARK    8  A    between atoms: O_20  and  C_21
REMARK    9  A    between atoms: C_21  and  C_22
REMARK                            x       y       z     vdW  Elec       q    Type
REMARK                         _______ _______ _______ _____ _____    ______ ____
ROOT
ATOM      1  N   UNL     1      -1.116  -3.614   5.057  0.00  0.00    -0.279 N 
ATOM      2  C   UNL     1      -1.500  -3.686   6.347  0.00  0.00    +0.400 C 
ATOM      3  O   UNL     1      -2.578  -3.239   6.685  0.00  0.00    -0.226 OA
ATOM      4  H   UNL     1      -0.255  -3.971   4.787  0.00  0.00    +0.152 HD
ENDROOT
BRANCH   1   5
ATOM      5  C   UNL     1      -1.997  -2.997   4.063  0.00  0.00    +0.142 C 
BRANCH   5  11
ATOM      6  C   UNL     1      -0.019   1.526   0.010  0.00  0.00    +0.074 C 
ATOM      7  C   UNL     1       0.002  -0.004   0.002  0.00  0.00    +0.169 C 
ATOM      8  O   UNL     1      -1.366  -0.517   0.012  0.00  0.00    -0.337 OA
ATOM      9  C   UNL     1      -1.237  -1.655   0.797  0.00  0.00    +0.224 C 
ATOM     10  C   UNL     1      -2.259  -2.388   1.618  0.00  0.00    +0.179 C 
ATOM     11  C   UNL     1      -1.328  -3.044   2.688  0.00  0.00    +0.170 C 
ATOM     12  O   UNL     1      -0.100  -2.271   2.706  0.00  0.00    -0.330 OA
ATOM     13  C   UNL     1      -0.367  -1.071   1.983  0.00  0.00    +0.307 C 
ATOM     14  O   UNL     1       0.673  -0.493   1.194  0.00  0.00    -0.306 OA
ATOM     15  C   UNL     1       0.733  -0.505  -1.245  0.00  0.00    +0.074 C 
BRANCH  13  16
ATOM     16  C   UNL     1      -1.114  -0.048   2.799  0.00  0.00    +0.417 C 
ATOM     17  O   UNL     1      -1.220  -0.189   4.005  0.00  0.00    -0.240 OA
ATOM     18  O   UNL     1      -1.612   0.922   2.252  0.00  0.00    -0.240 OA
ENDBRANCH  13  16
BRANCH  10  19
ATOM     19  O   UNL     1      -3.186  -1.482   2.220  0.00  0.00    -0.386 OA
ATOM     20  H   UNL     1      -3.863  -1.914   2.759  0.00  0.00    +0.210 HD
ENDBRANCH  10  19
ENDBRANCH   5  11
ENDBRANCH   1   5
BRANCH   2  21
ATOM     21  O   UNL     1      -0.690  -4.254   7.260  0.00  0.00    -0.449 OA
BRANCH  21  22
ATOM     22  C   UNL     1      -1.161  -4.296   8.608  0.00  0.00    +0.246 C 
BRANCH  22  23
ATOM     23  C   UNL     1      -0.113  -4.972   9.494  0.00  0.00    +0.088 C 
ATOM     24  C   UNL     1      -0.006  -6.436   9.148  0.00  0.00    -0.029 A 
ATOM     25  C   UNL     1       0.340  -7.090   7.984  0.00  0.00    +0.005 A 
ATOM     26  C   UNL     1       0.355  -8.473   7.944  0.00  0.00    +0.000 A 
ATOM     27  C   UNL     1       0.024  -9.203   9.072  0.00  0.00    +0.001 A 
ATOM     28  C   UNL     1      -0.323  -8.557  10.240  0.00  0.00    +0.009 A 
ATOM     29  C   UNL     1      -0.341  -7.162  10.288  0.00  0.00    -0.014 A 
ATOM     30  C   UNL     1      -0.669  -6.226  11.391  0.00  0.00    -0.014 A 
ATOM     31  C   UNL     1      -0.540  -4.915  10.940  0.00  0.00    -0.029 A 
ATOM     32  C   UNL     1      -0.794  -3.859  11.790  0.00  0.00    +0.005 A 
ATOM     33  C   UNL     1      -1.179  -4.099  13.097  0.00  0.00    +0.000 A 
ATOM     34  C   UNL     1      -1.310  -5.398  13.554  0.00  0.00    +0.001 A 
ATOM     35  C   UNL     1      -1.058  -6.460  12.711  0.00  0.00    +0.009 A 
ENDBRANCH  22  23
ENDBRANCH  21  22
ENDBRANCH   2  21
TORSDOF 7
