REMARK  Name = ZINC33028437
REMARK  9 active torsions:
REMARK  status: ('A' for Active; 'I' for Inactive)
REMARK    1  A    between atoms: C_1  and  C_2
REMARK    2  A    between atoms: N_4  and  C_5
REMARK    3  A    between atoms: C_5  and  C_7
REMARK    4  A    between atoms: C_5  and  C_18
REMARK    5  A    between atoms: C_7  and  C_8
REMARK    6  A    between atoms: N_20  and  C_21
REMARK    7  A    between atoms: C_21  and  C_22
REMARK    8  A    between atoms: C_22  and  C_24
REMARK    9  A    between atoms: C_22  and  N_31
REMARK                            x       y       z     vdW  Elec       q    Type
REMARK                         _______ _______ _______ _____ _____    ______ ____
ROOT
ATOM      1  C   UNL     1       6.071   0.201  -0.502  0.00  0.00    +0.234 C 
ATOM      2  O   UNL     1       6.922   0.890  -1.021  0.00  0.00    -0.274 OA
ATOM      3  N   UNL     1       6.427  -0.882   0.218  0.00  0.00    -0.315 N 
ATOM      4  H   UNL     1       5.654  -1.508   0.689  0.00  0.00    +0.149 HD
ENDROOT
BRANCH   1   5
ATOM      5  C   UNL     1       4.614   0.553  -0.662  0.00  0.00    +0.163 C 
BRANCH   5   9
ATOM      6  C   UNL     1       4.936   3.851  -2.580  0.00  0.00    +0.109 C 
ATOM      7  C   UNL     1       5.061   2.402  -2.186  0.00  0.00    +0.211 C 
ATOM      8  O   UNL     1       5.674   1.631  -2.894  0.00  0.00    -0.276 OA
ATOM      9  N   UNL     1       4.492   1.962  -1.046  0.00  0.00    -0.304 N 
ATOM     10  H   UNL     1       3.937   2.661  -0.403  0.00  0.00    +0.149 HD
ENDBRANCH   5   9
BRANCH   5  11
ATOM     11  C   UNL     1       3.993  -0.327  -1.749  0.00  0.00    +0.069 C 
BRANCH  11  12
ATOM     12  C   UNL     1       2.512  -0.061  -1.825  0.00  0.00    -0.020 A 
ATOM     13  C   UNL     1       1.543  -0.756  -1.208  0.00  0.00    +0.087 A 
ATOM     14  N   UNL     1       0.320  -0.223  -1.512  0.00  0.00    -0.360 N 
ATOM     15  H   UNL     1      -0.594  -0.668  -1.092  0.00  0.00    +0.165 HD
ATOM     16  C   UNL     1       0.476   0.856  -2.353  0.00  0.00    +0.047 A 
ATOM     17  C   UNL     1       1.855   1.005  -2.586  0.00  0.00    +0.003 A 
ATOM     18  C   UNL     1       2.315   2.032  -3.412  0.00  0.00    +0.010 A 
ATOM     19  C   UNL     1       1.422   2.888  -3.991  0.00  0.00    +0.001 A 
ATOM     20  C   UNL     1       0.060   2.745  -3.765  0.00  0.00    +0.002 A 
ATOM     21  C   UNL     1      -0.415   1.742  -2.949  0.00  0.00    +0.026 A 
ENDBRANCH  11  12
ENDBRANCH   5  11
ENDBRANCH   1   5
BRANCH   3  22
ATOM     22  C   UNL     1       7.842  -1.225   0.374  0.00  0.00    +0.093 C 
BRANCH  22  23
ATOM     23  C   UNL     1       7.970  -2.487   1.229  0.00  0.00    -0.019 C 
BRANCH  23  24
ATOM     24  C   UNL     1       9.427  -2.841   1.387  0.00  0.00    -0.041 A 
ATOM     25  C   UNL     1       9.969  -3.880   0.653  0.00  0.00    +0.003 A 
ATOM     26  C   UNL     1      11.304  -4.205   0.798  0.00  0.00    +0.000 A 
ATOM     27  C   UNL     1      12.099  -3.492   1.676  0.00  0.00    +0.001 A 
ATOM     28  C   UNL     1      11.558  -2.454   2.410  0.00  0.00    +0.020 A 
ATOM     29  C   UNL     1      10.222  -2.124   2.262  0.00  0.00    +0.043 A 
ATOM     30 CL   UNL     1       9.544  -0.815   3.178  0.00  0.00    -0.083 Cl
ENDBRANCH  23  24
BRANCH  23  31
ATOM     31  N   UNL     1       7.264  -3.596   0.574  0.00  0.00    +0.385 N 
ATOM     32  C   UNL     1       7.639  -3.693  -0.860  0.00  0.00    -0.078 C 
ATOM     33  C   UNL     1       7.255  -5.147  -1.229  0.00  0.00    -0.020 C 
ATOM     34  C   UNL     1       7.628  -5.938   0.046  0.00  0.00    -0.020 C 
ATOM     35  C   UNL     1       7.640  -4.893   1.177  0.00  0.00    -0.078 C 
ATOM     36  H   UNL     1       6.192  -3.387   0.703  0.00  0.00    -0.081 HD
ENDBRANCH  23  31
ENDBRANCH  22  23
ENDBRANCH   3  22
TORSDOF 8
