REMARK  Name = ZINC62362481
REMARK  7 active torsions:
REMARK  status: ('A' for Active; 'I' for Inactive)
REMARK    1  A    between atoms: C_1  and  C_2
REMARK    2  A    between atoms: C_5  and  C_8
REMARK    3  A    between atoms: C_8  and  C_10
REMARK    4  A    between atoms: C_8  and  N_24
REMARK    5  A    between atoms: C_10  and  N_11
REMARK    6  A    between atoms: C_12  and  C_14
REMARK    7  A    between atoms: N_27  and  C_30
REMARK                            x       y       z     vdW  Elec       q    Type
REMARK                         _______ _______ _______ _____ _____    ______ ____
ROOT
ATOM      1  C   UNL     1       0.059  -4.275  -0.021  0.00  0.00    +0.104 C 
ENDROOT
BRANCH   1   2
ATOM      2  N   UNL     1       1.050  -4.758   0.950  0.00  0.00    -0.297 NA
ATOM      3  C   UNL     1       0.678  -4.372   2.318  0.00  0.00    +0.066 C 
ATOM      4  C   UNL     1       1.701  -4.943   3.302  0.00  0.00    -0.064 C 
ATOM      5  N   UNL     1       3.036  -4.425   2.976  0.00  0.00    +0.379 N 
ATOM      6  C   UNL     1       3.405  -4.839   1.616  0.00  0.00    -0.064 C 
ATOM      7  C   UNL     1       2.396  -4.267   0.618  0.00  0.00    +0.066 C 
ATOM      8  C   UNL     1       4.015  -4.959   3.932  0.00  0.00    -0.096 C 
ATOM      9  H   UNL     1       3.028  -3.418   3.031  0.00  0.00    -0.082 HD
ENDBRANCH   1   2
BRANCH   1  14
ATOM     10  C   UNL     1      -0.371   1.474   0.364  0.00  0.00    +0.044 C 
ATOM     11  C   UNL     1      -0.259  -0.025   0.264  0.00  0.00    -0.050 A 
ATOM     12  C   UNL     1      -0.758  -0.825   1.275  0.00  0.00    +0.003 A 
ATOM     13  C   UNL     1      -0.655  -2.200   1.182  0.00  0.00    +0.005 A 
ATOM     14  C   UNL     1      -0.054  -2.776   0.079  0.00  0.00    -0.029 A 
ATOM     15  C   UNL     1       0.444  -1.976  -0.933  0.00  0.00    +0.005 A 
ATOM     16  C   UNL     1       0.338  -0.601  -0.843  0.00  0.00    +0.003 A 
ENDBRANCH   1  14
BRANCH   1  17
ATOM     17  C   UNL     1      -1.300  -4.910   0.279  0.00  0.00    +0.128 C 
BRANCH  17  18
ATOM     18  N   UNL     1      -1.163  -6.369   0.299  0.00  0.00    -0.308 N 
ATOM     19  C   UNL     1      -2.239  -7.143   0.545  0.00  0.00    +0.264 C 
ATOM     20  O   UNL     1      -3.322  -6.631   0.751  0.00  0.00    -0.268 OA
ATOM     21  H   UNL     1      -0.299  -6.778   0.135  0.00  0.00    +0.149 HD
BRANCH  19  22
ATOM     22  C   UNL     1      -2.102  -8.614   0.566  0.00  0.00    +0.150 A 
ATOM     23  C   UNL     1      -3.123  -9.549   0.800  0.00  0.00    +0.005 A 
ATOM     24  C   UNL     1      -2.537 -10.769   0.725  0.00  0.00    +0.040 A 
ATOM     25  N   UNL     1      -1.236 -10.568   0.456  0.00  0.00    -0.281 N 
ATOM     26  H   UNL     1      -0.576 -11.271   0.345  0.00  0.00    +0.189 HD
ATOM     27  N   UNL     1      -0.994  -9.306   0.361  0.00  0.00    -0.169 NA
ATOM     28  C   UNL     1      -3.273 -12.069   0.920  0.00  0.00    +0.055 C 
ATOM     29  C   UNL     1      -4.612 -11.767   1.605  0.00  0.00    +0.006 C 
ATOM     30  C   UNL     1      -5.330 -10.640   0.857  0.00  0.00    +0.005 C 
ATOM     31  C   UNL     1      -4.583  -9.319   1.081  0.00  0.00    +0.039 C 
ENDBRANCH  19  22
ENDBRANCH  17  18
ENDBRANCH   1  17
TORSDOF 5
