REMARK  Name = ZINC05868788
REMARK  8 active torsions:
REMARK  status: ('A' for Active; 'I' for Inactive)
REMARK    1  A    between atoms: C_1  and  C_2
REMARK    2  A    between atoms: C_2  and  C_3
REMARK    3  A    between atoms: C_3  and  C_4
REMARK    4  A    between atoms: C_4  and  S_5
REMARK    5  A    between atoms: S_5  and  C_6
REMARK    6  A    between atoms: C_13  and  C_23
REMARK    7  A    between atoms: C_26  and  O_29
REMARK    8  A    between atoms: O_29  and  C_30
REMARK                            x       y       z     vdW  Elec       q    Type
REMARK                         _______ _______ _______ _____ _____    ______ ____
ROOT
ATOM      1  C   UNL     1      -2.923  -4.443   0.006  0.00  0.00    +0.171 A 
ATOM      2  N   UNL     1      -4.029  -5.237   0.007  0.00  0.00    -0.322 N 
ATOM      3  C   UNL     1      -3.896  -6.601  -0.003  0.00  0.00    +0.111 A 
ATOM      4  C   UNL     1      -2.651  -7.149  -0.016  0.00  0.00    +0.069 A 
ATOM      5  C   UNL     1      -1.530  -6.290  -0.011  0.00  0.00    +0.280 A 
ATOM      6  N   UNL     1      -1.712  -4.961  -0.008  0.00  0.00    -0.185 NA
ATOM      7  O   UNL     1      -0.400  -6.756  -0.014  0.00  0.00    -0.265 OA
ATOM      8  C   UNL     1      -2.462  -8.637  -0.040  0.00  0.00    +0.092 C 
ATOM      9  C   UNL     1      -3.721  -9.355   0.375  0.00  0.00    +0.024 C 
ATOM     10  C   UNL     1      -3.616 -10.704   0.757  0.00  0.00    +0.162 C 
ATOM     11  C   UNL     1      -4.828 -11.498   1.160  0.00  0.00    +0.080 C 
ATOM     12  C   UNL     1      -6.058 -10.927   0.445  0.00  0.00    +0.014 C 
ATOM     13  C   UNL     1      -6.174  -9.441   0.794  0.00  0.00    +0.051 C 
ATOM     14  C   UNL     1      -4.914  -8.723   0.377  0.00  0.00    +0.017 C 
ATOM     15  N   UNL     1      -5.008  -7.410   0.002  0.00  0.00    -0.304 N 
ATOM     16  O   UNL     1      -2.525 -11.239   0.762  0.00  0.00    -0.292 OA
ATOM     17  H   UNL     1      -5.868  -7.047  -0.262  0.00  0.00    +0.153 HD
ATOM     18  H   UNL     1      -4.913  -4.837   0.015  0.00  0.00    +0.169 HD
ENDROOT
BRANCH   8  19
ATOM     19  C   UNL     1      -2.089  -9.064  -1.436  0.00  0.00    -0.035 A 
ATOM     20  C   UNL     1      -2.948  -8.809  -2.489  0.00  0.00    +0.008 A 
ATOM     21  C   UNL     1      -2.608  -9.200  -3.769  0.00  0.00    +0.046 A 
ATOM     22  C   UNL     1      -1.404  -9.850  -3.998  0.00  0.00    +0.120 A 
ATOM     23  C   UNL     1      -0.544 -10.104  -2.940  0.00  0.00    +0.046 A 
ATOM     24  C   UNL     1      -0.886  -9.707  -1.662  0.00  0.00    +0.008 A 
BRANCH  22  25
ATOM     25  O   UNL     1      -1.068 -10.236  -5.257  0.00  0.00    -0.495 OA
ATOM     26  C   UNL     1       0.187 -10.900  -5.419  0.00  0.00    +0.277 C 
ENDBRANCH  22  25
ENDBRANCH   8  19
BRANCH   1  27
ATOM     27  S   UNL     1      -3.114  -2.691   0.017  0.00  0.00    -0.088 S 
BRANCH  27  28
ATOM     28  C   UNL     1      -1.413  -2.063   0.004  0.00  0.00    +0.077 C 
BRANCH  28  29
ATOM     29  C   UNL     1      -1.433  -0.534   0.013  0.00  0.00    +0.011 C 
BRANCH  29  31
ATOM     30  C   UNL     1      -0.019   1.526   0.010  0.00  0.00    +0.004 C 
ATOM     31  C   UNL     1       0.002  -0.004   0.002  0.00  0.00    -0.003 C 
ENDBRANCH  29  31
ENDBRANCH  28  29
ENDBRANCH  27  28
ENDBRANCH   1  27
TORSDOF 6
