REMARK  Name = ZINC36296883
REMARK  3 active torsions:
REMARK  status: ('A' for Active; 'I' for Inactive)
REMARK    1  A    between atoms: C_6  and  S_7
REMARK    2  A    between atoms: S_7  and  N_10
REMARK    3  A    between atoms: C_14  and  N_17
REMARK                            x       y       z     vdW  Elec       q    Type
REMARK                         _______ _______ _______ _____ _____    ______ ____
ROOT
ATOM      1  S   UNL     1      -1.510  -0.909   0.009  0.00  0.00    +0.061 S 
ATOM      2  O   UNL     1      -1.215  -2.189   0.550  0.00  0.00    -0.153 OA
ATOM      3  O   UNL     1      -2.494  -0.051   0.572  0.00  0.00    -0.153 OA
ENDROOT
BRANCH   1   9
ATOM      4  C   UNL     1      -0.017   1.378   0.010  0.00  0.00    +0.029 A 
ATOM      5  C   UNL     1       1.171   2.079   0.002  0.00  0.00    +0.006 A 
ATOM      6  C   UNL     1       2.387   1.408  -0.012  0.00  0.00    -0.044 A 
ATOM      7  C   UNL     1       2.406   0.031  -0.014  0.00  0.00    -0.042 A 
ATOM      8  C   UNL     1       1.209  -0.673  -0.010  0.00  0.00    +0.032 A 
ATOM      9  C   UNL     1       0.002  -0.004   0.002  0.00  0.00    +0.106 A 
ATOM     10  C   UNL     1       3.686  -0.762  -0.012  0.00  0.00    +0.035 C 
ATOM     11  C   UNL     1       4.861   0.113  -0.446  0.00  0.00    +0.005 C 
ATOM     12  C   UNL     1       4.847   1.394   0.396  0.00  0.00    +0.005 C 
ATOM     13  C   UNL     1       3.645   2.236  -0.027  0.00  0.00    +0.035 C 
ENDBRANCH   1   9
BRANCH   1  14
ATOM     14  N   UNL     1      -1.942  -1.152  -1.571  0.00  0.00    -0.178 NA
ATOM     15  C   UNL     1      -2.782  -0.173  -2.276  0.00  0.00    +0.109 C 
ATOM     16  C   UNL     1      -3.990  -0.901  -2.874  0.00  0.00    +0.016 C 
ATOM     17  C   UNL     1      -3.503  -2.058  -3.749  0.00  0.00    -0.014 C 
ATOM     18  C   UNL     1      -2.716  -3.052  -2.892  0.00  0.00    -0.059 C 
ATOM     19  C   UNL     1      -1.489  -2.346  -2.296  0.00  0.00    +0.093 C 
BRANCH  18  20
ATOM     20  N   UNL     1      -2.277  -4.178  -3.726  0.00  0.00    +0.381 N 
ATOM     21  H   UNL     1      -1.687  -3.836  -4.470  0.00  0.00    -0.090 HD
ATOM     22  H   UNL     1      -1.758  -4.833  -3.160  0.00  0.00    -0.090 HD
ATOM     23  H   UNL     1      -3.083  -4.639  -4.121  0.00  0.00    -0.090 HD
ENDBRANCH  18  20
ENDBRANCH   1  14
TORSDOF 3
