REMARK  Name = ZINC25011532
REMARK  7 active torsions:
REMARK  status: ('A' for Active; 'I' for Inactive)
REMARK    1  A    between atoms: C_1  and  C_2
REMARK    2  A    between atoms: C_7  and  C_8
REMARK    3  A    between atoms: C_13  and  C_16
REMARK    4  A    between atoms: C_16  and  N_17
REMARK    5  A    between atoms: C_20  and  C_23
REMARK    6  A    between atoms: C_25  and  C_29
REMARK    7  A    between atoms: C_25  and  C_30
REMARK                            x       y       z     vdW  Elec       q    Type
REMARK                         _______ _______ _______ _____ _____    ______ ____
ROOT
ATOM      1  C   UNL     1      -2.330  -0.424   0.021  0.00  0.00    +0.266 C 
ATOM      2  O   UNL     1      -2.535   0.776   0.030  0.00  0.00    -0.268 OA
ATOM      3  N   UNL     1      -1.066  -0.891   0.007  0.00  0.00    -0.259 N 
ATOM      4  C   UNL     1       0.002  -0.004   0.002  0.00  0.00    +0.165 A 
ATOM      5  N   UNL     1       1.295  -0.264  -0.012  0.00  0.00    -0.231 NA
ATOM      6  C   UNL     1       2.187   0.707  -0.015  0.00  0.00    +0.034 A 
ATOM      7  C   UNL     1       1.747   1.989  -0.004  0.00  0.00    +0.070 A 
ATOM      8  S   UNL     1      -0.021   1.732   0.012  0.00  0.00    -0.060 S 
ATOM      9  H   UNL     1      -0.881  -1.975  -0.001  0.00  0.00    +0.157 HD
ENDROOT
BRANCH   1  16
ATOM     10  C   UNL     1      -5.351   0.377   0.067  0.00  0.00    +0.047 C 
ATOM     11  C   UNL     1      -4.783  -1.018   0.046  0.00  0.00    -0.010 A 
ATOM     12  C   UNL     1      -5.508  -2.216   0.039  0.00  0.00    +0.042 A 
ATOM     13  C   UNL     1      -4.590  -3.267   0.028  0.00  0.00    +0.028 A 
ATOM     14  N   UNL     1      -3.365  -2.740   0.018  0.00  0.00    -0.354 N 
ATOM     15  H   UNL     1      -2.483  -3.398   0.005  0.00  0.00    +0.166 HD
ATOM     16  C   UNL     1      -3.460  -1.361   0.026  0.00  0.00    +0.106 A 
ATOM     17  C   UNL     1      -5.004  -4.716   0.030  0.00  0.00    +0.060 C 
ATOM     18  C   UNL     1      -6.440  -4.829   0.550  0.00  0.00    -0.023 C 
ATOM     19  C   UNL     1      -7.373  -3.897  -0.229  0.00  0.00    +0.086 C 
ATOM     20  C   UNL     1      -6.958  -2.460   0.048  0.00  0.00    +0.166 C 
ATOM     21  O   UNL     1      -7.765  -1.579   0.260  0.00  0.00    -0.292 OA
ATOM     22  C   UNL     1      -6.471  -4.449   2.032  0.00  0.00    +0.011 C 
ATOM     23  C   UNL     1      -6.921  -6.273   0.390  0.00  0.00    +0.011 C 
ENDBRANCH   1  16
BRANCH   6  24
ATOM     24  C   UNL     1       3.662   0.399  -0.031  0.00  0.00    -0.022 C 
BRANCH  24  25
ATOM     25  N   UNL     1       4.131   0.173   1.343  0.00  0.00    +0.383 N 
ATOM     26  C   UNL     1       3.212  -0.710   2.073  0.00  0.00    -0.078 C 
ATOM     27  C   UNL     1       3.651  -0.805   3.537  0.00  0.00    -0.016 C 
ATOM     28  C   UNL     1       5.078  -1.355   3.602  0.00  0.00    -0.018 C 
ATOM     29  C   UNL     1       6.005  -0.444   2.793  0.00  0.00    -0.016 C 
ATOM     30  C   UNL     1       5.499  -0.359   1.352  0.00  0.00    -0.078 C 
ATOM     31  C   UNL     1       5.544  -1.396   5.059  0.00  0.00    +0.007 C 
ATOM     32  H   UNL     1       4.145   1.144   1.860  0.00  0.00    -0.081 HD
ENDBRANCH  24  25
ENDBRANCH   6  24
TORSDOF 3
