REMARK  Name = ZINC39711671
REMARK  11 active torsions:
REMARK  status: ('A' for Active; 'I' for Inactive)
REMARK    1  A    between atoms: C_1  and  O_2
REMARK    2  A    between atoms: O_2  and  C_3
REMARK    3  A    between atoms: C_3  and  C_4
REMARK    4  A    between atoms: C_4  and  N_5
REMARK    5  A    between atoms: C_6  and  C_10
REMARK    6  A    between atoms: C_10  and  C_12
REMARK    7  A    between atoms: C_10  and  N_27
REMARK    8  A    between atoms: N_27  and  C_28
REMARK    9  A    between atoms: N_27  and  C_34
REMARK   10  A    between atoms: C_28  and  C_29
REMARK   11  A    between atoms: C_34  and  C_35
REMARK                            x       y       z     vdW  Elec       q    Type
REMARK                         _______ _______ _______ _____ _____    ______ ____
ROOT
ATOM      1  C   UNL     1       4.018  -2.661   1.126  0.00  0.00    +0.143 C 
ENDROOT
BRANCH   1   2
ATOM      2  C   UNL     1       4.557  -3.920   0.443  0.00  0.00    +0.123 C 
ATOM      3  C   UNL     1       3.449  -4.492  -0.418  0.00  0.00    -0.003 C 
ATOM      4  C   UNL     1       3.700  -4.638  -1.746  0.00  0.00    -0.003 A 
ATOM      5  C   UNL     1       2.683  -5.184  -2.646  0.00  0.00    +0.059 A 
ATOM      6  C   UNL     1       2.966  -5.318  -3.967  0.00  0.00    +0.167 A 
ATOM      7  C   UNL     1       4.223  -4.938  -4.487  0.00  0.00    +0.168 A 
ATOM      8  C   UNL     1       5.214  -4.418  -3.682  0.00  0.00    +0.073 A 
ATOM      9  C   UNL     1       5.007  -4.247  -2.308  0.00  0.00    +0.044 A 
ATOM     10  N   UNL     1       5.980  -3.742  -1.546  0.00  0.00    -0.284 N 
ATOM     11  C   UNL     1       5.853  -3.554  -0.245  0.00  0.00    +0.226 C 
ATOM     12  O   UNL     1       6.776  -3.090   0.398  0.00  0.00    -0.275 OA
ATOM     13  O   UNL     1       4.219  -5.183  -5.829  0.00  0.00    -0.453 OA
ATOM     14  C   UNL     1       3.128  -6.092  -6.056  0.00  0.00    +0.466 C 
ATOM     15  O   UNL     1       2.201  -5.795  -4.996  0.00  0.00    -0.453 OA
ATOM     16  H   UNL     1       6.820  -3.501  -1.968  0.00  0.00    +0.155 HD
ENDBRANCH   1   2
BRANCH   1  18
ATOM     17  N   UNL     1       1.517  -2.360   1.528  0.00  0.00    -0.225 N 
ATOM     18  C   UNL     1       2.692  -2.970   1.773  0.00  0.00    +0.170 A 
ATOM     19  N   UNL     1       2.459  -3.885   2.683  0.00  0.00    -0.112 NA
ATOM     20  N   UNL     1       1.206  -3.839   2.981  0.00  0.00    -0.023 NA
ATOM     21  N   UNL     1       0.635  -2.915   2.289  0.00  0.00    -0.044 NA
BRANCH  17  22
ATOM     22  C   UNL     1       1.284  -1.268   0.581  0.00  0.00    +0.175 C 
BRANCH  22  23
ATOM     23  C   UNL     1       1.493   0.073   1.287  0.00  0.00    +0.183 C 
BRANCH  23  25
ATOM     24  C   UNL     1       1.435   2.442   0.925  0.00  0.00    +0.194 C 
ATOM     25  O   UNL     1       1.266   1.139   0.363  0.00  0.00    -0.381 OA
ENDBRANCH  23  25
ENDBRANCH  22  23
ENDBRANCH  17  22
ENDBRANCH   1  18
BRANCH   1  26
ATOM     26  N   UNL     1       4.970  -2.214   2.151  0.00  0.00    -0.280 NA
BRANCH  26  27
ATOM     27  C   UNL     1       4.852  -0.769   2.385  0.00  0.00    +0.159 C 
BRANCH  27  28
ATOM     28  C   UNL     1       5.463  -0.021   1.229  0.00  0.00    +0.119 A 
ATOM     29  C   UNL     1       4.798   0.460   0.163  0.00  0.00    +0.046 A 
ATOM     30  C   UNL     1       5.755   1.086  -0.669  0.00  0.00    +0.041 A 
ATOM     31  C   UNL     1       6.948   0.950  -0.061  0.00  0.00    +0.195 A 
ATOM     32  O   UNL     1       6.764   0.284   1.090  0.00  0.00    -0.467 OA
ENDBRANCH  27  28
ENDBRANCH  26  27
BRANCH  26  33
ATOM     33  C   UNL     1       4.791  -2.966   3.401  0.00  0.00    +0.128 C 
BRANCH  33  34
ATOM     34  C   UNL     1       5.293  -4.375   3.215  0.00  0.00    +0.004 A 
ATOM     35  C   UNL     1       6.563  -4.844   3.280  0.00  0.00    +0.012 A 
ATOM     36  C   UNL     1       6.791  -6.191   3.074  0.00  0.00    +0.008 A 
ATOM     37  C   UNL     1       5.738  -7.005   2.815  0.00  0.00    +0.045 A 
ATOM     38  S   UNL     1       4.368  -5.861   2.862  0.00  0.00    -0.100 S 
ENDBRANCH  33  34
ENDBRANCH  26  33
ENDBRANCH   1  26
TORSDOF 10
