REMARK  Name = ZINC09545066
REMARK  5 active torsions:
REMARK  status: ('A' for Active; 'I' for Inactive)
REMARK    1  A    between atoms: C_1  and  C_2
REMARK    2  A    between atoms: C_15  and  C_17
REMARK    3  A    between atoms: C_17  and  N_63
REMARK    4  A    between atoms: N_20  and  S_23
REMARK    5  A    between atoms: S_23  and  C_26
REMARK                            x       y       z     vdW  Elec       q    Type
REMARK                         _______ _______ _______ _____ _____    ______ ____
ROOT
ATOM      1  C   UNL     1       5.421   3.124   3.501  0.00  0.00    -0.061 C 
ATOM      2  C   UNL     1       6.103   3.466   2.172  0.00  0.00    +0.091 C 
ATOM      3  N   UNL     1       5.401   4.607   1.566  0.00  0.00    -0.180 NA
ATOM      4  C   UNL     1       5.181   5.806   2.390  0.00  0.00    +0.091 C 
ATOM      5  C   UNL     1       4.530   5.370   3.712  0.00  0.00    -0.061 C 
ATOM      6  N   UNL     1       5.385   4.340   4.342  0.00  0.00    +0.387 N 
ATOM      7  H   UNL     1       6.338   4.710   4.435  0.00  0.00    -0.081 HD
ENDROOT
BRANCH   3   8
ATOM      8  S   UNL     1       4.877   4.547  -0.004  0.00  0.00    +0.061 S 
ATOM      9  O   UNL     1       5.688   3.587  -0.666  0.00  0.00    -0.153 OA
ATOM     10  O   UNL     1       4.772   5.893  -0.449  0.00  0.00    -0.153 OA
BRANCH   8  11
ATOM     11  C   UNL     1       3.240   3.895   0.018  0.00  0.00    +0.106 A 
ATOM     12  C   UNL     1       3.048   2.518  -0.080  0.00  0.00    +0.029 A 
ATOM     13  C   UNL     1       1.797   1.982  -0.065  0.00  0.00    +0.010 A 
ATOM     14  C   UNL     1       0.680   2.827   0.049  0.00  0.00    -0.018 A 
ATOM     15  C   UNL     1      -0.627   2.311   0.066  0.00  0.00    +0.008 A 
ATOM     16  C   UNL     1      -1.685   3.160   0.173  0.00  0.00    +0.001 A 
ATOM     17  C   UNL     1      -1.493   4.537   0.276  0.00  0.00    +0.001 A 
ATOM     18  C   UNL     1      -0.242   5.073   0.262  0.00  0.00    +0.008 A 
ATOM     19  C   UNL     1       0.875   4.228   0.147  0.00  0.00    -0.016 A 
ATOM     20  C   UNL     1       2.182   4.744   0.130  0.00  0.00    +0.037 A 
ENDBRANCH   8  11
ENDBRANCH   3   8
BRANCH   6  21
ATOM     21  C   UNL     1       4.866   4.008   5.685  0.00  0.00    +0.019 C 
BRANCH  21  35
ATOM     22  C   UNL     1       0.416   3.961   6.961  0.00  0.00    +0.029 C 
ATOM     23  C   UNL     1       1.363   2.798   6.657  0.00  0.00    +0.087 C 
ATOM     24  C   UNL     1       1.147   1.679   7.682  0.00  0.00    +0.118 C 
ATOM     25  C   UNL     1       2.309   0.721   7.661  0.00  0.00    +0.219 C 
ATOM     26  O   UNL     1       2.187  -0.363   7.132  0.00  0.00    -0.275 OA
ATOM     27  N   UNL     1       3.487   1.062   8.227  0.00  0.00    -0.284 N 
ATOM     28  C   UNL     1       3.676   2.344   8.756  0.00  0.00    +0.055 A 
ATOM     29  C   UNL     1       4.224   2.519  10.016  0.00  0.00    +0.025 A 
ATOM     30  C   UNL     1       4.453   3.796  10.495  0.00  0.00    +0.002 A 
ATOM     31  C   UNL     1       4.134   4.898   9.722  0.00  0.00    +0.002 A 
ATOM     32  C   UNL     1       3.575   4.732   8.468  0.00  0.00    +0.025 A 
ATOM     33  C   UNL     1       3.335   3.456   7.984  0.00  0.00    +0.058 A 
ATOM     34  N   UNL     1       2.748   3.267   6.726  0.00  0.00    -0.268 N 
ATOM     35  C   UNL     1       3.443   3.519   5.599  0.00  0.00    +0.204 C 
ATOM     36  O   UNL     1       2.924   3.352   4.516  0.00  0.00    -0.277 OA
ATOM     37  H   UNL     1       4.208   0.414   8.267  0.00  0.00    +0.155 HD
ENDBRANCH  21  35
ENDBRANCH   6  21
TORSDOF 4
