REMARK  Name = ZINC20080527
REMARK  10 active torsions:
REMARK  status: ('A' for Active; 'I' for Inactive)
REMARK    1  A    between atoms: C_1  and  C_2
REMARK    2  A    between atoms: C_2  and  O_3
REMARK    3  A    between atoms: O_3  and  C_4
REMARK    4  A    between atoms: C_11  and  C_16
REMARK    5  A    between atoms: C_16  and  C_18
REMARK    6  A    between atoms: C_16  and  N_28
REMARK    7  A    between atoms: N_22  and  C_23
REMARK    8  A    between atoms: N_31  and  C_34
REMARK    9  A    between atoms: C_36  and  C_41
REMARK   10  A    between atoms: C_39  and  C_40
REMARK                            x       y       z     vdW  Elec       q    Type
REMARK                         _______ _______ _______ _____ _____    ______ ____
ROOT
ATOM      1  C   UNL     1       5.213   6.997   0.031  0.00  0.00    +0.162 C 
ENDROOT
BRANCH   1   9
ATOM      2  C   UNL     1       5.460  12.436   2.995  0.00  0.00    +0.121 A 
ATOM      3  C   UNL     1       5.353  11.911   4.281  0.00  0.00    +0.047 A 
ATOM      4  C   UNL     1       5.242  10.553   4.477  0.00  0.00    +0.030 A 
ATOM      5  C   UNL     1       5.235   9.691   3.385  0.00  0.00    +0.049 A 
ATOM      6  C   UNL     1       5.343  10.217   2.084  0.00  0.00    +0.002 A 
ATOM      7  C   UNL     1       5.456  11.599   1.898  0.00  0.00    +0.055 A 
ATOM      8  C   UNL     1       5.340   9.299   0.944  0.00  0.00    +0.021 A 
ATOM      9  C   UNL     1       5.224   7.969   1.183  0.00  0.00    +0.042 A 
ATOM     10  C   UNL     1       5.118   7.492   2.507  0.00  0.00    +0.254 A 
ATOM     11  O   UNL     1       5.018   6.292   2.700  0.00  0.00    -0.268 OA
ATOM     12  N   UNL     1       5.124   8.326   3.561  0.00  0.00    -0.322 N 
ATOM     13  H   UNL     1       5.040   7.908   4.574  0.00  0.00    +0.169 HD
BRANCH   2  14
ATOM     14  O   UNL     1       5.569  13.780   2.820  0.00  0.00    -0.492 OA
BRANCH  14  16
ATOM     15  C   UNL     1       5.698  16.063   3.604  0.00  0.00    +0.048 C 
ATOM     16  C   UNL     1       5.567  14.590   3.998  0.00  0.00    +0.225 C 
ENDBRANCH  14  16
ENDBRANCH   2  14
ENDBRANCH   1   9
BRANCH   1  17
ATOM     17  N   UNL     1       4.019   6.146   0.120  0.00  0.00    -0.286 NA
ATOM     18  C   UNL     1       2.792   6.954   0.093  0.00  0.00    +0.104 C 
ATOM     19  C   UNL     1       1.578   6.038   0.268  0.00  0.00    +0.120 C 
ATOM     20  N   UNL     1       1.567   5.033  -0.804  0.00  0.00    -0.327 N 
ATOM     21  C   UNL     1       2.794   4.225  -0.777  0.00  0.00    +0.120 C 
ATOM     22  C   UNL     1       4.008   5.140  -0.951  0.00  0.00    +0.104 C 
BRANCH  20  23
ATOM     23  C   UNL     1       0.432   4.223  -0.719  0.00  0.00    +0.033 A 
ATOM     24  C   UNL     1       0.202   3.465   0.422  0.00  0.00    +0.026 A 
ATOM     25  C   UNL     1      -0.920   2.664   0.502  0.00  0.00    -0.049 A 
ATOM     26  C   UNL     1      -1.818   2.623  -0.549  0.00  0.00    +0.004 A 
ATOM     27  C   UNL     1      -1.589   3.372  -1.688  0.00  0.00    +0.005 A 
ATOM     28  C   UNL     1      -0.468   4.174  -1.775  0.00  0.00    -0.029 A 
ATOM     29  C   UNL     1      -0.223   4.996  -3.014  0.00  0.00    +0.045 C 
ATOM     30  C   UNL     1      -1.171   1.841   1.739  0.00  0.00    +0.044 C 
ENDBRANCH  20  23
ENDBRANCH   1  17
BRANCH   1  31
ATOM     31  C   UNL     1       6.449   6.137   0.088  0.00  0.00    +0.173 A 
ATOM     32  N   UNL     1       6.676   5.147   0.916  0.00  0.00    -0.111 NA
ATOM     33  N   UNL     1       7.840   4.663   0.648  0.00  0.00    -0.023 NA
ATOM     34  N   UNL     1       8.361   5.320  -0.329  0.00  0.00    -0.044 NA
ATOM     35  N   UNL     1       7.532   6.234  -0.705  0.00  0.00    -0.224 N 
BRANCH  35  36
ATOM     36  C   UNL     1       7.733   7.198  -1.790  0.00  0.00    +0.111 C 
ATOM     37  C   UNL     1       7.987   6.454  -3.118  0.00  0.00    +0.027 C 
ATOM     38  C   UNL     1       9.044   7.324  -3.844  0.00  0.00    +0.002 C 
ATOM     39  C   UNL     1       9.959   7.791  -2.684  0.00  0.00    +0.002 C 
ATOM     40  C   UNL     1       8.986   8.048  -1.515  0.00  0.00    +0.027 C 
ENDBRANCH  35  36
ENDBRANCH   1  31
TORSDOF 7
