REMARK  Name = ZINC13381927
REMARK  10 active torsions:
REMARK  status: ('A' for Active; 'I' for Inactive)
REMARK    1  A    between atoms: C_1  and  C_2
REMARK    2  A    between atoms: C_2  and  C_14
REMARK    3  A    between atoms: N_3  and  N_4
REMARK    4  A    between atoms: C_5  and  C_7
REMARK    5  A    between atoms: C_7  and  C_8
REMARK    6  A    between atoms: C_8  and  C_13
REMARK    7  A    between atoms: C_27  and  C_30
REMARK    8  A    between atoms: C_33  and  C_36
REMARK    9  A    between atoms: C_36  and  O_38
REMARK   10  A    between atoms: O_38  and  C_39
REMARK                            x       y       z     vdW  Elec       q    Type
REMARK                         _______ _______ _______ _____ _____    ______ ____
ROOT
ATOM      1  C   UNL     1      -4.435   0.339   7.541  0.00  0.00    -0.002 A 
ATOM      2  C   UNL     1      -5.602   0.804   6.927  0.00  0.00    +0.011 A 
ATOM      3  C   UNL     1      -5.668   2.109   6.495  0.00  0.00    +0.024 A 
ATOM      4  C   UNL     1      -4.581   2.960   6.668  0.00  0.00    +0.031 A 
ATOM      5  C   UNL     1      -3.417   2.510   7.277  0.00  0.00    -0.019 A 
ATOM      6  C   UNL     1      -3.349   1.197   7.712  0.00  0.00    +0.015 A 
ATOM      7  C   UNL     1      -2.227   3.393   7.482  0.00  0.00    +0.049 C 
ATOM      8  C   UNL     1      -1.136   3.062   6.492  0.00  0.00    -0.023 C 
ATOM      9  C   UNL     1      -0.520   4.155   6.113  0.00  0.00    -0.030 C 
ATOM     10  C   UNL     1      -1.114   5.367   6.806  0.00  0.00    +0.033 C 
ATOM     11  C   UNL     1      -2.533   4.882   7.226  0.00  0.00    +0.029 C 
ATOM     12  C   UNL     1      -3.444   5.025   6.004  0.00  0.00    +0.105 C 
ATOM     13  N   UNL     1      -4.684   4.283   6.247  0.00  0.00    -0.336 N 
ATOM     14  H   UNL     1      -5.549   4.697   6.097  0.00  0.00    +0.147 HD
ENDROOT
BRANCH  12  15
ATOM     15  C   UNL     1      -2.750   4.465   4.789  0.00  0.00    -0.027 A 
ATOM     16  C   UNL     1      -1.967   5.291   4.001  0.00  0.00    +0.006 A 
ATOM     17  C   UNL     1      -1.330   4.785   2.887  0.00  0.00    +0.015 A 
ATOM     18  C   UNL     1      -1.476   3.437   2.555  0.00  0.00    +0.059 A 
ATOM     19  C   UNL     1      -2.272   2.611   3.352  0.00  0.00    +0.015 A 
ATOM     20  C   UNL     1      -2.899   3.128   4.466  0.00  0.00    +0.006 A 
BRANCH  18  21
ATOM     21  C   UNL     1      -0.797   2.888   1.363  0.00  0.00    +0.339 C 
ATOM     22  O   UNL     1      -0.110   3.610   0.670  0.00  0.00    -0.245 OA
BRANCH  21  23
ATOM     23  O   UNL     1      -0.940   1.587   1.046  0.00  0.00    -0.464 OA
ATOM     24  C   UNL     1      -0.244   1.117  -0.139  0.00  0.00    +0.280 C 
ENDBRANCH  21  23
ENDBRANCH  18  21
ENDBRANCH  12  15
BRANCH   1  26
ATOM     25  C   UNL     1      -5.526  -1.984   7.819  0.00  0.00    +0.068 C 
ATOM     26  C   UNL     1      -4.352  -1.057   8.005  0.00  0.00    +0.063 C 
ATOM     27  N   UNL     1      -3.268  -1.489   8.575  0.00  0.00    -0.185 NA
BRANCH  27  28
ATOM     28  N   UNL     1      -3.190  -2.816   9.017  0.00  0.00    -0.207 N 
ATOM     29  C   UNL     1      -2.064  -3.263   9.608  0.00  0.00    +0.237 C 
ATOM     30  O   UNL     1      -1.120  -2.517   9.758  0.00  0.00    -0.274 OA
ATOM     31  H   UNL     1      -3.945  -3.412   8.897  0.00  0.00    +0.177 HD
BRANCH  29  32
ATOM     32  C   UNL     1      -1.980  -4.691  10.084  0.00  0.00    +0.162 C 
BRANCH  32  33
ATOM     33  C   UNL     1      -0.607  -4.939  10.713  0.00  0.00    +0.176 C 
ATOM     34  O   UNL     1      -0.417  -4.046  11.823  0.00  0.00    -0.346 OA
ATOM     35  C   UNL     1       0.989  -3.708  11.793  0.00  0.00    +0.191 C 
ATOM     36  C   UNL     1       1.262  -3.645  10.269  0.00  0.00    +0.191 C 
ATOM     37  O   UNL     1       0.419  -4.690   9.743  0.00  0.00    -0.346 OA
ATOM     38  C   UNL     1      -0.517  -6.387  11.197  0.00  0.00    +0.074 C 
ENDBRANCH  32  33
ENDBRANCH  29  32
ENDBRANCH  27  28
ENDBRANCH   1  26
TORSDOF 7
