REMARK  Name = ZINC45456446
REMARK  9 active torsions:
REMARK  status: ('A' for Active; 'I' for Inactive)
REMARK    1  A    between atoms: C_1  and  C_2
REMARK    2  A    between atoms: C_2  and  N_3
REMARK    3  A    between atoms: N_3  and  C_4
REMARK    4  A    between atoms: C_4  and  C_5
REMARK    5  A    between atoms: C_12  and  O_19
REMARK    6  A    between atoms: C_13  and  O_17
REMARK    7  A    between atoms: O_17  and  C_18
REMARK    8  A    between atoms: O_19  and  C_20
REMARK    9  A    between atoms: C_21  and  C_23
REMARK                            x       y       z     vdW  Elec       q    Type
REMARK                         _______ _______ _______ _____ _____    ______ ____
ROOT
ATOM      1  C   UNL     1      -1.829  -1.926  -1.850  0.00  0.00    +0.128 A 
ATOM      2  N   UNL     1      -2.419  -2.253  -3.030  0.00  0.00    -0.309 N 
ATOM      3  H   UNL     1      -3.029  -1.629  -3.451  0.00  0.00    +0.170 HD
ATOM      4  C   UNL     1      -2.162  -3.443  -3.622  0.00  0.00    +0.259 A 
ATOM      5  O   UNL     1      -2.683  -3.748  -4.679  0.00  0.00    -0.267 OA
ATOM      6  C   UNL     1      -1.230  -4.351  -2.942  0.00  0.00    +0.068 A 
ATOM      7  C   UNL     1      -0.901  -5.599  -3.471  0.00  0.00    +0.064 A 
ATOM      8  C   UNL     1      -0.020  -6.415  -2.792  0.00  0.00    +0.162 A 
ATOM      9  C   UNL     1       0.541  -5.998  -1.580  0.00  0.00    +0.164 A 
ATOM     10  C   UNL     1       0.224  -4.765  -1.044  0.00  0.00    +0.078 A 
ATOM     11  C   UNL     1      -0.664  -3.926  -1.718  0.00  0.00    +0.082 A 
ATOM     12  N   UNL     1      -0.998  -2.705  -1.227  0.00  0.00    -0.232 NA
ENDROOT
BRANCH   9  13
ATOM     13  O   UNL     1       1.405  -6.814  -0.923  0.00  0.00    -0.491 OA
ATOM     14  C   UNL     1       1.944  -6.331   0.309  0.00  0.00    +0.277 C 
ENDBRANCH   9  13
BRANCH   8  15
ATOM     15  O   UNL     1       0.304  -7.633  -3.303  0.00  0.00    -0.491 OA
ATOM     16  C   UNL     1      -0.304  -7.999  -4.543  0.00  0.00    +0.277 C 
ENDBRANCH   8  15
BRANCH   1  17
ATOM     17  C   UNL     1      -2.151  -0.588  -1.236  0.00  0.00    +0.182 C 
BRANCH  17  18
ATOM     18  N   UNL     1      -1.410  -0.435   0.018  0.00  0.00    -0.290 N 
ATOM     19  C   UNL     1      -1.958  -0.846   1.179  0.00  0.00    +0.248 C 
ATOM     20  O   UNL     1      -3.030  -1.420   1.175  0.00  0.00    -0.270 OA
BRANCH  19  21
ATOM     21  C   UNL     1      -1.256  -0.599   2.456  0.00  0.00    +0.050 A 
ATOM     22  C   UNL     1       0.024  -1.114   2.664  0.00  0.00    +0.014 A 
ATOM     23  C   UNL     1       0.674  -0.879   3.858  0.00  0.00    +0.001 A 
ATOM     24  C   UNL     1       0.059  -0.135   4.849  0.00  0.00    +0.001 A 
ATOM     25  C   UNL     1      -1.210   0.379   4.651  0.00  0.00    +0.015 A 
ATOM     26  C   UNL     1      -1.869   0.156   3.458  0.00  0.00    +0.025 A 
ATOM     27  I   UNL     1      -3.788   0.942   3.157  0.00  0.00    -0.043 I 
ENDBRANCH  19  21
BRANCH  18  29
ATOM     28  C   UNL     1      -0.182   1.656   0.338  0.00  0.00    +0.024 C 
ATOM     29  C   UNL     1      -0.074   0.165   0.011  0.00  0.00    +0.105 C 
ENDBRANCH  18  29
ENDBRANCH  17  18
ENDBRANCH   1  17
TORSDOF 6
