REMARK  Name = ZINC35992876
REMARK  12 active torsions:
REMARK  status: ('A' for Active; 'I' for Inactive)
REMARK    1  A    between atoms: C_1  and  C_2
REMARK    2  A    between atoms: C_2  and  O_3
REMARK    3  A    between atoms: O_3  and  C_4
REMARK    4  A    between atoms: C_4  and  C_6
REMARK    5  A    between atoms: C_7  and  C_22
REMARK    6  A    between atoms: N_8  and  C_21
REMARK    7  A    between atoms: C_12  and  C_14
REMARK    8  A    between atoms: C_22  and  N_23
REMARK    9  A    between atoms: N_32  and  C_33
REMARK   10  A    between atoms: C_33  and  C_34
REMARK   11  A    between atoms: C_33  and  C_35
REMARK   12  A    between atoms: C_33  and  C_36
REMARK                            x       y       z     vdW  Elec       q    Type
REMARK                         _______ _______ _______ _____ _____    ______ ____
ROOT
ATOM      1  C   UNL     1      -3.719  -2.591  -0.233  0.00  0.00    +0.076 C 
ATOM      2  C   UNL     1      -3.915  -3.785  -0.832  0.00  0.00    +0.010 C 
ATOM      3  N   UNL     1      -5.099  -4.080  -1.445  0.00  0.00    -0.264 N 
ATOM      4  C   UNL     1      -6.136  -3.235  -1.503  0.00  0.00    +0.307 C 
ATOM      5  O   UNL     1      -7.151  -3.587  -2.071  0.00  0.00    -0.252 OA
ATOM      6  N   UNL     1      -6.091  -2.006  -0.950  0.00  0.00    -0.288 N 
ATOM      7  C   UNL     1      -4.859  -1.593  -0.258  0.00  0.00    +0.145 C 
ATOM      8  C   UNL     1      -5.243  -5.394  -2.076  0.00  0.00    +0.139 C 
ATOM      9  H   UNL     1      -6.854  -1.410  -1.004  0.00  0.00    +0.151 HD
ENDROOT
BRANCH   7  10
ATOM     10  C   UNL     1      -4.360  -0.335  -0.920  0.00  0.00    -0.004 A 
ATOM     11  C   UNL     1      -4.509  -0.166  -2.284  0.00  0.00    +0.007 A 
ATOM     12  C   UNL     1      -4.051   0.989  -2.892  0.00  0.00    +0.000 A 
ATOM     13  C   UNL     1      -3.444   1.974  -2.136  0.00  0.00    +0.001 A 
ATOM     14  C   UNL     1      -3.295   1.806  -0.772  0.00  0.00    +0.020 A 
ATOM     15  C   UNL     1      -3.758   0.654  -0.163  0.00  0.00    +0.046 A 
ATOM     16 CL   UNL     1      -3.577   0.445   1.551  0.00  0.00    -0.083 Cl
ENDBRANCH   7  10
BRANCH   1  17
ATOM     17  C   UNL     1      -2.493  -2.284   0.403  0.00  0.00    +0.339 C 
ATOM     18  O   UNL     1      -2.407  -2.336   1.616  0.00  0.00    -0.245 OA
BRANCH  17  19
ATOM     19  O   UNL     1      -1.419  -1.935  -0.335  0.00  0.00    -0.462 OA
BRANCH  19  21
ATOM     20  C   UNL     1       0.879  -1.240  -0.613  0.00  0.00    +0.048 C 
ATOM     21  C   UNL     1      -0.185  -1.748   0.362  0.00  0.00    +0.229 C 
ENDBRANCH  19  21
ENDBRANCH  17  19
ENDBRANCH   1  17
BRANCH   2  22
ATOM     22  C   UNL     1      -2.809  -4.809  -0.825  0.00  0.00    -0.026 C 
BRANCH  22  23
ATOM     23  N   UNL     1      -2.845  -5.560   0.437  0.00  0.00    +0.384 N 
ATOM     24  C   UNL     1      -1.642  -6.386   0.516  0.00  0.00    -0.077 C 
ATOM     25  C   UNL     1      -1.268  -6.583   1.968  0.00  0.00    +0.000 C 
ATOM     26  C   UNL     1      -1.893  -7.892   2.485  0.00  0.00    +0.107 C 
ATOM     27  N   UNL     1      -3.261  -8.071   1.958  0.00  0.00    -0.287 N 
ATOM     28  C   UNL     1      -4.205  -6.976   1.865  0.00  0.00    +0.091 C 
ATOM     29  C   UNL     1      -4.062  -6.275   0.495  0.00  0.00    -0.059 C 
ATOM     30  C   UNL     1      -3.644  -9.296   1.548  0.00  0.00    +0.303 C 
ATOM     31  O   UNL     1      -2.902 -10.247   1.699  0.00  0.00    -0.253 OA
ATOM     32  N   UNL     1      -4.851  -9.468   0.973  0.00  0.00    -0.294 N 
ATOM     33  H   UNL     1      -5.413  -8.699   0.787  0.00  0.00    +0.151 HD
ATOM     34  H   UNL     1      -2.827  -4.900   1.199  0.00  0.00    -0.081 HD
BRANCH  32  35
ATOM     35  C   UNL     1      -5.313 -10.814   0.627  0.00  0.00    +0.028 C 
ATOM     36  C   UNL     1      -5.383 -11.670   1.893  0.00  0.00    +0.031 C 
ATOM     37  C   UNL     1      -6.702 -10.729  -0.009  0.00  0.00    +0.031 C 
ATOM     38  C   UNL     1      -4.336 -11.450  -0.364  0.00  0.00    +0.031 C 
ENDBRANCH  32  35
ENDBRANCH  22  23
ENDBRANCH   2  22
TORSDOF 7
