REMARK  Name = ZINC49543391
REMARK  7 active torsions:
REMARK  status: ('A' for Active; 'I' for Inactive)
REMARK    1  A    between atoms: C_1  and  O_2
REMARK    2  A    between atoms: O_2  and  C_3
REMARK    3  A    between atoms: C_3  and  C_4
REMARK    4  A    between atoms: C_10  and  N_14
REMARK    5  A    between atoms: C_15  and  C_17
REMARK    6  A    between atoms: C_17  and  C_18
REMARK    7  A    between atoms: C_18  and  C_19
REMARK                            x       y       z     vdW  Elec       q    Type
REMARK                         _______ _______ _______ _____ _____    ______ ____
ROOT
ATOM      1  N   UNL     1       1.207  -7.818  -1.970  0.00  0.00    -0.285 N 
ATOM      2  C   UNL     1       0.945  -8.949  -1.285  0.00  0.00    +0.218 C 
ATOM      3  O   UNL     1       0.344  -8.894  -0.233  0.00  0.00    -0.275 OA
ATOM      4  H   UNL     1       1.620  -7.867  -2.847  0.00  0.00    +0.155 HD
ENDROOT
BRANCH   1  11
ATOM      5  C   UNL     1      -0.419  -2.244  -1.263  0.00  0.00    +0.134 A 
ATOM      6  N   UNL     1      -0.126  -2.805  -0.060  0.00  0.00    -0.340 N 
ATOM      7  H   UNL     1      -0.171  -2.367   0.805  0.00  0.00    +0.167 HD
ATOM      8  C   UNL     1       0.249  -4.114  -0.296  0.00  0.00    +0.066 A 
ATOM      9  C   UNL     1       0.652  -5.164   0.518  0.00  0.00    +0.029 A 
ATOM     10  C   UNL     1       0.966  -6.384  -0.039  0.00  0.00    +0.025 A 
ATOM     11  C   UNL     1       0.884  -6.572  -1.417  0.00  0.00    +0.036 A 
ATOM     12  C   UNL     1       0.485  -5.537  -2.241  0.00  0.00    +0.053 A 
ATOM     13  C   UNL     1       0.163  -4.296  -1.687  0.00  0.00    +0.091 A 
ATOM     14  N   UNL     1      -0.256  -3.117  -2.215  0.00  0.00    -0.230 NA
BRANCH   5  15
ATOM     15  C   UNL     1      -0.873  -0.822  -1.465  0.00  0.00    +0.233 C 
BRANCH  15  17
ATOM     16  C   UNL     1      -1.361   1.204  -0.281  0.00  0.00    +0.194 C 
ATOM     17  O   UNL     1      -0.939  -0.159  -0.201  0.00  0.00    -0.375 OA
ENDBRANCH  15  17
ENDBRANCH   5  15
ENDBRANCH   1  11
BRANCH   2  18
ATOM     18  C   UNL     1       1.399 -10.280  -1.825  0.00  0.00    +0.101 C 
BRANCH  18  19
ATOM     19  C   UNL     1       0.978 -11.392  -0.862  0.00  0.00    +0.046 C 
BRANCH  19  20
ATOM     20  C   UNL     1       1.433 -12.723  -1.403  0.00  0.00    -0.022 A 
ATOM     21  C   UNL     1       0.707 -13.573  -2.146  0.00  0.00    +0.087 A 
ATOM     22  N   UNL     1       1.452 -14.680  -2.451  0.00  0.00    -0.360 N 
ATOM     23  H   UNL     1       1.141 -15.432  -2.979  0.00  0.00    +0.165 HD
ATOM     24  C   UNL     1       2.707 -14.566  -1.897  0.00  0.00    +0.047 A 
ATOM     25  C   UNL     1       2.752 -13.333  -1.221  0.00  0.00    +0.003 A 
ATOM     26  C   UNL     1       3.919 -12.943  -0.561  0.00  0.00    +0.010 A 
ATOM     27  C   UNL     1       5.014 -13.760  -0.578  0.00  0.00    +0.001 A 
ATOM     28  C   UNL     1       4.975 -14.976  -1.246  0.00  0.00    +0.002 A 
ATOM     29  C   UNL     1       3.831 -15.385  -1.897  0.00  0.00    +0.026 A 
ENDBRANCH  19  20
ENDBRANCH  18  19
ENDBRANCH   2  18
TORSDOF 6
