REMARK  Name = ZINC64166578
REMARK  7 active torsions:
REMARK  status: ('A' for Active; 'I' for Inactive)
REMARK    1  A    between atoms: C_1  and  O_2
REMARK    2  A    between atoms: O_2  and  C_3
REMARK    3  A    between atoms: C_6  and  C_10
REMARK    4  A    between atoms: N_24  and  C_25
REMARK    5  A    between atoms: C_25  and  C_26
REMARK    6  A    between atoms: C_26  and  C_27
REMARK    7  A    between atoms: C_27  and  C_28
REMARK                            x       y       z     vdW  Elec       q    Type
REMARK                         _______ _______ _______ _____ _____    ______ ____
ROOT
ATOM      1  C   UNL     1      -4.976  -2.608   0.049  0.00  0.00    +0.116 C 
ATOM      2  C   UNL     1      -5.316  -3.057   1.472  0.00  0.00    +0.128 C 
ATOM      3  C   UNL     1      -6.733  -3.617   1.414  0.00  0.00    -0.035 C 
ATOM      4  C   UNL     1      -6.675  -4.838   1.927  0.00  0.00    -0.001 A 
ATOM      5  C   UNL     1      -7.721  -5.832   2.215  0.00  0.00    +0.010 A 
ATOM      6  C   UNL     1      -7.298  -7.013   2.739  0.00  0.00    +0.001 A 
ATOM      7  C   UNL     1      -5.956  -7.302   3.001  0.00  0.00    +0.002 A 
ATOM      8  C   UNL     1      -4.928  -6.445   2.773  0.00  0.00    +0.026 A 
ATOM      9  C   UNL     1      -5.248  -5.168   2.228  0.00  0.00    +0.043 A 
ATOM     10  N   UNL     1      -4.462  -4.149   1.937  0.00  0.00    -0.376 N 
ATOM     11  C   UNL     1      -7.863  -2.848   0.773  0.00  0.00    +0.049 C 
ATOM     12  C   UNL     1      -7.332  -2.360  -0.588  0.00  0.00    +0.089 C 
ATOM     13  N   UNL     1      -6.035  -1.699  -0.416  0.00  0.00    -0.293 NA
ATOM     14  H   UNL     1      -3.495  -4.121   2.010  0.00  0.00    +0.160 HD
ENDROOT
BRANCH   1  18
ATOM     15  C   UNL     1      -1.219  -0.568   0.042  0.00  0.00    +0.123 A 
ATOM     16  C   UNL     1      -1.321  -1.840  -0.502  0.00  0.00    +0.046 A 
ATOM     17  C   UNL     1      -2.536  -2.498  -0.498  0.00  0.00    +0.011 A 
ATOM     18  C   UNL     1      -3.651  -1.889   0.047  0.00  0.00    +0.007 A 
ATOM     19  C   UNL     1      -3.553  -0.619   0.590  0.00  0.00    +0.132 A 
ATOM     20  C   UNL     1      -2.337   0.041   0.593  0.00  0.00    +0.084 A 
ATOM     21  F   UNL     1      -4.645  -0.026   1.121  0.00  0.00    -0.205 F 
BRANCH  15  23
ATOM     22  C   UNL     1       1.084  -0.607  -0.546  0.00  0.00    +0.277 C 
ATOM     23  O   UNL     1      -0.024   0.080   0.038  0.00  0.00    -0.495 OA
ENDBRANCH  15  23
ENDBRANCH   1  18
BRANCH  13  24
ATOM     24  C   UNL     1      -5.630  -1.004  -1.646  0.00  0.00    +0.085 C 
BRANCH  24  25
ATOM     25  C   UNL     1      -6.549   0.196  -1.880  0.00  0.00    +0.024 C 
BRANCH  25  26
ATOM     26  C   UNL     1      -6.128   0.919  -3.160  0.00  0.00    +0.114 C 
BRANCH  26  27
ATOM     27  C   UNL     1      -7.047   2.120  -3.394  0.00  0.00    +0.390 C 
ATOM     28  F   UNL     1      -6.951   2.999  -2.310  0.00  0.00    -0.171 F 
ATOM     29  F   UNL     1      -6.662   2.781  -4.565  0.00  0.00    -0.171 F 
ATOM     30  F   UNL     1      -8.368   1.678  -3.521  0.00  0.00    -0.171 F 
ENDBRANCH  26  27
ENDBRANCH  25  26
ENDBRANCH  24  25
ENDBRANCH  13  24
TORSDOF 6
