REMARK  Name = ZINC09672491
REMARK  5 active torsions:
REMARK  status: ('A' for Active; 'I' for Inactive)
REMARK    1  A    between atoms: C_1  and  C_2
REMARK    2  A    between atoms: C_7  and  N_8
REMARK    3  A    between atoms: C_11  and  C_16
REMARK    4  A    between atoms: C_16  and  N_56
REMARK    5  A    between atoms: C_21  and  C_23
REMARK                            x       y       z     vdW  Elec       q    Type
REMARK                         _______ _______ _______ _____ _____    ______ ____
ROOT
ATOM      1  N   UNL     1      -3.104   5.863  -5.464  0.00  0.00    -0.283 N 
ATOM      2  C   UNL     1      -1.921   5.566  -4.816  0.00  0.00    +0.224 A 
ATOM      3  N   UNL     1      -1.885   4.593  -3.908  0.00  0.00    -0.201 NA
ATOM      4  C   UNL     1      -0.755   4.312  -3.283  0.00  0.00    +0.120 A 
ATOM      5  N   UNL     1       0.346   4.988  -3.565  0.00  0.00    -0.202 NA
ATOM      6  C   UNL     1       0.319   5.958  -4.476  0.00  0.00    +0.217 A 
ATOM      7  N   UNL     1      -0.817   6.247  -5.102  0.00  0.00    -0.181 NA
ATOM      8  N   UNL     1       1.468   6.662  -4.769  0.00  0.00    -0.327 N 
ATOM      9  H   UNL     1      -3.889   5.311  -5.319  0.00  0.00    +0.155 HD
ATOM     10  H   UNL     1       2.297   6.451  -4.312  0.00  0.00    +0.145 HD
ATOM     11  H   UNL     1       1.448   7.370  -5.433  0.00  0.00    +0.145 HD
ENDROOT
BRANCH   1  18
ATOM     12  C   UNL     1      -5.079   5.838  -7.512  0.00  0.00    +0.045 C 
ATOM     13  C   UNL     1      -4.120   6.988  -7.344  0.00  0.00    -0.029 A 
ATOM     14  C   UNL     1      -4.183   8.072  -8.198  0.00  0.00    +0.005 A 
ATOM     15  C   UNL     1      -3.303   9.127  -8.044  0.00  0.00    +0.000 A 
ATOM     16  C   UNL     1      -2.358   9.102  -7.035  0.00  0.00    +0.002 A 
ATOM     17  C   UNL     1      -2.292   8.024  -6.175  0.00  0.00    +0.023 A 
ATOM     18  C   UNL     1      -3.171   6.959  -6.330  0.00  0.00    +0.036 A 
ENDBRANCH   1  18
BRANCH   4  19
ATOM     19  C   UNL     1      -0.719   3.215  -2.252  0.00  0.00    -0.000 C 
BRANCH  19  25
ATOM     20  C   UNL     1      -2.176   4.679  -0.989  0.00  0.00    -0.077 C 
ATOM     21  C   UNL     1      -2.369   5.356   0.370  0.00  0.00    -0.019 C 
ATOM     22  C   UNL     1      -2.588   4.284   1.442  0.00  0.00    -0.003 C 
ATOM     23  C   UNL     1      -1.391   3.330   1.452  0.00  0.00    -0.009 C 
ATOM     24  C   UNL     1      -1.227   2.712   0.061  0.00  0.00    -0.011 C 
ATOM     25  N   UNL     1      -0.994   3.792  -0.920  0.00  0.00    +0.390 N 
ATOM     26  H   UNL     1      -0.181   4.344  -0.621  0.00  0.00    -0.080 HD
BRANCH  24  27
ATOM     27  C   UNL     1      -0.037   1.786   0.061  0.00  0.00    +0.066 A 
ATOM     28  N   UNL     1       1.228   2.097   0.045  0.00  0.00    -0.246 NA
ATOM     29  C   UNL     1       2.203   1.164   0.042  0.00  0.00    +0.078 A 
ATOM     30  C   UNL     1       3.605   1.341   0.025  0.00  0.00    +0.029 A 
ATOM     31  C   UNL     1       4.440   0.267   0.023  0.00  0.00    +0.002 A 
ATOM     32  C   UNL     1       3.955  -1.033   0.038  0.00  0.00    +0.001 A 
ATOM     33  C   UNL     1       2.590  -1.248   0.055  0.00  0.00    +0.017 A 
ATOM     34  C   UNL     1       1.738  -0.171   0.057  0.00  0.00    +0.039 A 
ATOM     35  S   UNL     1      -0.023   0.050   0.074  0.00  0.00    -0.074 S 
ENDBRANCH  24  27
ENDBRANCH  19  25
ENDBRANCH   4  19
TORSDOF 4
