REMARK  Name = ZINC12632150
REMARK  9 active torsions:
REMARK  status: ('A' for Active; 'I' for Inactive)
REMARK    1  A    between atoms: C_1  and  C_2
REMARK    2  A    between atoms: C_2  and  N_3
REMARK    3  A    between atoms: C_4  and  C_30
REMARK    4  A    between atoms: C_7  and  S_8
REMARK    5  A    between atoms: S_8  and  C_9
REMARK    6  A    between atoms: C_9  and  C_10
REMARK    7  A    between atoms: N_12  and  C_13
REMARK    8  A    between atoms: C_17  and  S_19
REMARK    9  A    between atoms: S_19  and  N_22
REMARK                            x       y       z     vdW  Elec       q    Type
REMARK                         _______ _______ _______ _____ _____    ______ ____
ROOT
ATOM      1  C   UNL     1       7.220  -2.184  -1.365  0.00  0.00    +0.227 C 
ATOM      2  O   UNL     1       8.170  -2.930  -1.473  0.00  0.00    -0.275 OA
ATOM      3  N   UNL     1       7.192  -1.265  -0.380  0.00  0.00    -0.285 N 
ATOM      4  H   UNL     1       6.466  -0.625  -0.334  0.00  0.00    +0.155 HD
ENDROOT
BRANCH   3   5
ATOM      5  C   UNL     1       8.213  -1.235   0.577  0.00  0.00    +0.035 A 
ATOM      6  C   UNL     1       7.923  -0.900   1.894  0.00  0.00    +0.023 A 
ATOM      7  C   UNL     1       8.932  -0.872   2.836  0.00  0.00    +0.004 A 
ATOM      8  C   UNL     1      10.230  -1.176   2.470  0.00  0.00    +0.029 A 
ATOM      9  C   UNL     1      10.523  -1.509   1.160  0.00  0.00    +0.114 A 
ATOM     10  C   UNL     1       9.517  -1.546   0.214  0.00  0.00    +0.052 A 
BRANCH   9  11
ATOM     11  S   UNL     1      12.179  -1.895   0.699  0.00  0.00    +0.100 S 
ATOM     12  O   UNL     1      12.281  -1.643  -0.696  0.00  0.00    -0.146 OA
ATOM     13  O   UNL     1      13.023  -1.264   1.651  0.00  0.00    -0.146 OA
BRANCH  11  14
ATOM     14  N   UNL     1      12.376  -3.527   0.900  0.00  0.00    -0.118 NA
ATOM     15  C   UNL     1      13.513  -4.079   0.629  0.00  0.00    +0.117 C 
ATOM     16  C   UNL     1      14.678  -3.228   0.130  0.00  0.00    +0.073 C 
ATOM     17  C   UNL     1      15.713  -3.191   1.234  0.00  0.00    +0.008 C 
ATOM     18  C   UNL     1      16.714  -4.346   1.169  0.00  0.00    +0.002 C 
ATOM     19  C   UNL     1      16.057  -5.692   0.860  0.00  0.00    +0.019 C 
ATOM     20  C   UNL     1      14.769  -5.916   1.621  0.00  0.00    +0.102 C 
ATOM     21  N   UNL     1      13.672  -5.378   0.789  0.00  0.00    -0.331 N 
ATOM     22  H   UNL     1      13.060  -5.993   0.353  0.00  0.00    +0.147 HD
ENDBRANCH  11  14
ENDBRANCH   9  11
ENDBRANCH   3   5
BRANCH   1  23
ATOM     23  C   UNL     1       6.070  -2.284  -2.334  0.00  0.00    +0.173 C 
BRANCH  23  24
ATOM     24  S   UNL     1       6.402  -3.605  -3.533  0.00  0.00    -0.077 S 
BRANCH  24  29
ATOM     25  N   UNL     1       4.762  -4.419  -5.649  0.00  0.00    -0.300 N 
ATOM     26  C   UNL     1       3.534  -4.049  -6.152  0.00  0.00    +0.200 A 
ATOM     27  N   UNL     1       3.094  -3.062  -5.404  0.00  0.00    -0.125 NA
ATOM     28  N   UNL     1       3.949  -2.794  -4.482  0.00  0.00    -0.122 NA
ATOM     29  C   UNL     1       4.986  -3.596  -4.580  0.00  0.00    +0.192 A 
BRANCH  26  30
ATOM     30  C   UNL     1       2.847  -4.645  -7.308  0.00  0.00    +0.172 A 
ATOM     31  C   UNL     1       1.534  -4.478  -7.632  0.00  0.00    +0.053 A 
ATOM     32  C   UNL     1       1.308  -5.222  -8.806  0.00  0.00    +0.042 A 
ATOM     33  C   UNL     1       2.479  -5.801  -9.138  0.00  0.00    +0.196 A 
ATOM     34  O   UNL     1       3.408  -5.447  -8.235  0.00  0.00    -0.460 OA
ENDBRANCH  26  30
BRANCH  25  36
ATOM     35  C   UNL     1       5.299  -6.797  -5.455  0.00  0.00    +0.027 C 
ATOM     36  C   UNL     1       5.642  -5.478  -6.150  0.00  0.00    +0.122 C 
ENDBRANCH  25  36
ENDBRANCH  24  29
ENDBRANCH  23  24
ENDBRANCH   1  23
TORSDOF 8
