REMARK  Name = ZINC41492297
REMARK  9 active torsions:
REMARK  status: ('A' for Active; 'I' for Inactive)
REMARK    1  A    between atoms: C_1  and  C_2
REMARK    2  A    between atoms: C_7  and  N_12
REMARK    3  A    between atoms: C_9  and  C_11
REMARK    4  A    between atoms: N_15  and  C_16
REMARK    5  A    between atoms: C_16  and  C_17
REMARK    6  A    between atoms: C_17  and  C_19
REMARK    7  A    between atoms: C_17  and  O_27
REMARK    8  A    between atoms: C_19  and  O_20
REMARK    9  A    between atoms: O_20  and  C_21
REMARK                            x       y       z     vdW  Elec       q    Type
REMARK                         _______ _______ _______ _____ _____    ______ ____
ROOT
ATOM      1  N   UNL     1       0.735  -0.503   3.687  0.00  0.00    -0.296 N 
ATOM      2  C   UNL     1       0.634   0.166   4.853  0.00  0.00    +0.300 C 
ATOM      3  O   UNL     1      -0.045   1.173   4.919  0.00  0.00    -0.253 OA
ATOM      4  N   UNL     1       1.286  -0.280   5.945  0.00  0.00    -0.297 N 
ATOM      5  H   UNL     1       1.276  -1.306   3.634  0.00  0.00    +0.151 HD
ATOM      6  H   UNL     1       1.827  -1.083   5.892  0.00  0.00    +0.150 HD
ENDROOT
BRANCH   1  12
ATOM      7  C   UNL     1      -0.019   1.526   0.010  0.00  0.00    +0.008 C 
ATOM      8  C   UNL     1       0.002  -0.004   0.002  0.00  0.00    -0.009 C 
ATOM      9  C   UNL     1      -1.433  -0.534   0.013  0.00  0.00    +0.003 C 
ATOM     10  C   UNL     1      -2.149  -0.040   1.272  0.00  0.00    +0.002 C 
ATOM     11  C   UNL     1      -1.409  -0.547   2.511  0.00  0.00    +0.022 C 
ATOM     12  C   UNL     1       0.026  -0.018   2.500  0.00  0.00    +0.078 C 
ATOM     13  C   UNL     1       0.742  -0.511   1.242  0.00  0.00    +0.009 C 
ATOM     14  C   UNL     1       2.178   0.019   1.231  0.00  0.00    +0.009 C 
ENDBRANCH   1  12
BRANCH   4  15
ATOM     15  C   UNL     1       1.176   0.447   7.212  0.00  0.00    +0.140 C 
BRANCH  15  16
ATOM     16  C   UNL     1       2.006  -0.265   8.282  0.00  0.00    +0.169 C 
BRANCH  16  17
ATOM     17  O   UNL     1       1.519  -1.597   8.454  0.00  0.00    -0.387 OA
ATOM     18  H   UNL     1       0.594  -1.645   8.731  0.00  0.00    +0.210 HD
ENDBRANCH  16  17
BRANCH  16  19
ATOM     19  C   UNL     1       1.891   0.495   9.605  0.00  0.00    +0.261 C 
BRANCH  19  20
ATOM     20  O   UNL     1       2.756  -0.102  10.573  0.00  0.00    -0.489 OA
BRANCH  20  21
ATOM     21  C   UNL     1       2.775   0.457  11.812  0.00  0.00    +0.121 A 
ATOM     22  C   UNL     1       1.972   1.553  12.091  0.00  0.00    +0.045 A 
ATOM     23  C   UNL     1       1.992   2.119  13.352  0.00  0.00    +0.004 A 
ATOM     24  C   UNL     1       2.812   1.594  14.334  0.00  0.00    +0.000 A 
ATOM     25  C   UNL     1       3.613   0.501  14.057  0.00  0.00    +0.004 A 
ATOM     26  C   UNL     1       3.592  -0.072  12.801  0.00  0.00    +0.045 A 
ENDBRANCH  20  21
ENDBRANCH  19  20
ENDBRANCH  16  19
ENDBRANCH  15  16
ENDBRANCH   4  15
TORSDOF 7
