REMARK  Name = ZINC09820836
REMARK  5 active torsions:
REMARK  status: ('A' for Active; 'I' for Inactive)
REMARK    1  A    between atoms: C_1  and  C_2
REMARK    2  A    between atoms: C_5  and  N_8
REMARK    3  A    between atoms: C_13  and  C_17
REMARK    4  A    between atoms: N_15  and  C_16
REMARK    5  A    between atoms: N_19  and  C_20
REMARK                            x       y       z     vdW  Elec       q    Type
REMARK                         _______ _______ _______ _____ _____    ______ ____
ROOT
ATOM      1  N   UNL     1       3.979   2.588  -0.184  0.00  0.00    -0.227 N 
ATOM      2  C   UNL     1       3.548   1.310  -0.177  0.00  0.00    +0.285 A 
ATOM      3  O   UNL     1       4.348   0.392  -0.212  0.00  0.00    -0.265 OA
ATOM      4  C   UNL     1       2.159   1.046  -0.130  0.00  0.00    +0.132 A 
ATOM      5  C   UNL     1       1.279   2.118  -0.092  0.00  0.00    +0.086 A 
ATOM      6  C   UNL     1      -0.027   1.573  -0.050  0.00  0.00    +0.079 A 
ATOM      7  C   UNL     1       0.106   0.198  -0.064  0.00  0.00    +0.101 A 
ATOM      8  N   UNL     1       1.412  -0.114  -0.112  0.00  0.00    -0.344 N 
ATOM      9  C   UNL     1       1.959  -1.473  -0.140  0.00  0.00    +0.149 C 
ATOM     10  N   UNL     1       1.780   3.407  -0.100  0.00  0.00    -0.305 N 
ATOM     11  H   UNL     1       1.173   4.163  -0.074  0.00  0.00    +0.170 HD
ATOM     12  C   UNL     1       3.111   3.613  -0.146  0.00  0.00    +0.334 A 
ATOM     13  O   UNL     1       3.536   4.753  -0.153  0.00  0.00    -0.246 OA
ENDROOT
BRANCH   1  18
ATOM     14  C   UNL     1       9.550   3.652  -0.375  0.00  0.00    +0.044 C 
ATOM     15  C   UNL     1       8.070   3.370  -0.324  0.00  0.00    -0.050 A 
ATOM     16  C   UNL     1       7.524   2.746   0.783  0.00  0.00    +0.005 A 
ATOM     17  C   UNL     1       6.169   2.486   0.832  0.00  0.00    +0.026 A 
ATOM     18  C   UNL     1       5.354   2.851  -0.231  0.00  0.00    +0.054 A 
ATOM     19  C   UNL     1       5.906   3.473  -1.343  0.00  0.00    +0.026 A 
ATOM     20  C   UNL     1       7.261   3.734  -1.385  0.00  0.00    +0.005 A 
ENDBRANCH   1  18
BRANCH   6  21
ATOM     21  C   UNL     1      -1.289   2.329  -0.005  0.00  0.00    +0.252 C 
ATOM     22  O   UNL     1      -1.269   3.545   0.003  0.00  0.00    -0.270 OA
ATOM     23  N   UNL     1      -2.466   1.673   0.027  0.00  0.00    -0.280 N 
ATOM     24  H   UNL     1      -2.481   0.707   0.104  0.00  0.00    +0.155 HD
BRANCH  23  25
ATOM     25  C   UNL     1      -3.667   2.388  -0.052  0.00  0.00    +0.052 A 
ATOM     26  C   UNL     1      -3.740   3.543  -0.820  0.00  0.00    +0.026 A 
ATOM     27  C   UNL     1      -4.927   4.246  -0.896  0.00  0.00    +0.022 A 
ATOM     28  C   UNL     1      -6.042   3.801  -0.208  0.00  0.00    +0.042 A 
ATOM     29  C   UNL     1      -5.973   2.651   0.558  0.00  0.00    +0.041 A 
ATOM     30  C   UNL     1      -4.790   1.940   0.634  0.00  0.00    +0.064 A 
ATOM     31 CL   UNL     1      -4.705   0.493   1.589  0.00  0.00    -0.082 Cl
ATOM     32 CL   UNL     1      -7.532   4.688  -0.307  0.00  0.00    -0.083 Cl
ENDBRANCH  23  25
ENDBRANCH   6  21
TORSDOF 3
