REMARK  Name = ZINC43263500
REMARK  9 active torsions:
REMARK  status: ('A' for Active; 'I' for Inactive)
REMARK    1  A    between atoms: C_1  and  C_2
REMARK    2  A    between atoms: C_2  and  C_3
REMARK    3  A    between atoms: C_4  and  C_21
REMARK    4  A    between atoms: N_6  and  C_9
REMARK    5  A    between atoms: C_7  and  C_8
REMARK    6  A    between atoms: C_9  and  C_11
REMARK    7  A    between atoms: C_9  and  C_17
REMARK    8  A    between atoms: C_17  and  C_19
REMARK    9  A    between atoms: C_17  and  N_20
REMARK                            x       y       z     vdW  Elec       q    Type
REMARK                         _______ _______ _______ _____ _____    ______ ____
ROOT
ATOM      1  C   UNL     1      -4.489  -1.655  -1.489  0.00  0.00    +0.129 C 
ENDROOT
BRANCH   1   5
ATOM      2  C   UNL     1      -1.412  -0.526   0.013  0.00  0.00    -0.004 A 
ATOM      3  C   UNL     1      -2.175  -0.811   1.149  0.00  0.00    +0.063 A 
ATOM      4  N   UNL     1      -3.347  -1.241   0.758  0.00  0.00    -0.175 NA
ATOM      5  N   UNL     1      -3.366  -1.244  -0.643  0.00  0.00    -0.262 N 
ATOM      6  C   UNL     1      -2.169  -0.795  -1.076  0.00  0.00    +0.040 A 
ATOM      7  C   UNL     1      -1.750  -0.628  -2.514  0.00  0.00    +0.065 C 
ATOM      8  C   UNL     1      -1.726  -0.650   2.579  0.00  0.00    +0.068 C 
BRANCH   2  10
ATOM      9  C   UNL     1      -0.019   1.526   0.010  0.00  0.00    +0.009 C 
ATOM     10  C   UNL     1       0.002  -0.004   0.002  0.00  0.00    +0.035 C 
ENDBRANCH   2  10
ENDBRANCH   1   5
BRANCH   1  11
ATOM     11  C   UNL     1      -4.834  -3.094  -1.202  0.00  0.00    +0.014 A 
ATOM     12  C   UNL     1      -4.824  -4.157  -2.042  0.00  0.00    +0.014 A 
ATOM     13  C   UNL     1      -5.182  -5.401  -1.555  0.00  0.00    +0.023 A 
ATOM     14  C   UNL     1      -5.532  -5.519  -0.250  0.00  0.00    +0.055 A 
ATOM     15  S   UNL     1      -5.352  -3.841   0.334  0.00  0.00    -0.084 S 
ATOM     16 BR   UNL     1      -6.064  -7.061   0.706  0.00  0.00    -0.043 Br
ENDBRANCH   1  11
BRANCH   1  17
ATOM     17  C   UNL     1      -5.702  -0.771  -1.191  0.00  0.00    -0.048 C 
ATOM     18  C   UNL     1      -6.875  -1.201  -2.074  0.00  0.00    -0.012 C 
BRANCH  17  19
ATOM     19  N   UNL     1      -5.367   0.631  -1.470  0.00  0.00    +0.381 N 
ATOM     20  H   UNL     1      -5.110   0.729  -2.441  0.00  0.00    -0.090 HD
ATOM     21  H   UNL     1      -6.167   1.214  -1.274  0.00  0.00    -0.090 HD
ATOM     22  H   UNL     1      -4.593   0.914  -0.888  0.00  0.00    -0.090 HD
ENDBRANCH  17  19
ENDBRANCH   1  17
TORSDOF 5
