REMARK  Name = ZINC49800252
REMARK  11 active torsions:
REMARK  status: ('A' for Active; 'I' for Inactive)
REMARK    1  A    between atoms: C_1  and  C_2
REMARK    2  A    between atoms: C_2  and  C_3
REMARK    3  A    between atoms: C_3  and  C_4
REMARK    4  A    between atoms: C_4  and  N_5
REMARK    5  A    between atoms: N_5  and  C_6
REMARK    6  A    between atoms: N_5  and  C_9
REMARK    7  A    between atoms: C_6  and  C_7
REMARK    8  A    between atoms: C_7  and  O_8
REMARK    9  A    between atoms: C_9  and  C_10
REMARK   10  A    between atoms: N_12  and  C_13
REMARK   11  A    between atoms: C_16  and  C_20
REMARK                            x       y       z     vdW  Elec       q    Type
REMARK                         _______ _______ _______ _____ _____    ______ ____
ROOT
ATOM      1  C   UNL     1      -1.837  -4.076   1.637  0.00  0.00    +0.201 C 
ATOM      2  O   UNL     1      -1.310  -3.200   2.289  0.00  0.00    -0.278 OA
ATOM      3  N   UNL     1      -2.092  -5.274   2.200  0.00  0.00    -0.285 N 
ATOM      4  H   UNL     1      -2.468  -5.991   1.666  0.00  0.00    +0.155 HD
ENDROOT
BRANCH   3   5
ATOM      5  C   UNL     1      -1.815  -5.483   3.556  0.00  0.00    +0.062 A 
ATOM      6  C   UNL     1      -2.198  -4.538   4.499  0.00  0.00    +0.040 A 
ATOM      7  C   UNL     1      -1.923  -4.748   5.837  0.00  0.00    +0.020 A 
ATOM      8  C   UNL     1      -1.266  -5.897   6.237  0.00  0.00    -0.048 A 
ATOM      9  C   UNL     1      -0.882  -6.840   5.301  0.00  0.00    +0.020 A 
ATOM     10  C   UNL     1      -1.160  -6.639   3.962  0.00  0.00    +0.040 A 
ATOM     11 BR   UNL     1      -0.643  -7.933   2.684  0.00  0.00    -0.048 Br
ATOM     12  C   UNL     1      -0.967  -6.122   7.697  0.00  0.00    +0.044 C 
ATOM     13 BR   UNL     1      -3.095  -2.966   3.953  0.00  0.00    -0.048 Br
ENDBRANCH   3   5
BRANCH   1  14
ATOM     14  C   UNL     1      -2.206  -3.827   0.197  0.00  0.00    +0.019 C 
BRANCH  14  15
ATOM     15  N   UNL     1      -1.695  -2.513  -0.218  0.00  0.00    +0.387 N 
ATOM     16  H   UNL     1      -2.018  -1.808   0.426  0.00  0.00    -0.081 HD
BRANCH  15  17
ATOM     17  C   UNL     1      -0.227  -2.538  -0.223  0.00  0.00    -0.078 C 
BRANCH  17  18
ATOM     18  C   UNL     1       0.306  -1.138  -0.534  0.00  0.00    -0.019 C 
BRANCH  18  20
ATOM     19  C   UNL     1       2.368   0.237  -0.850  0.00  0.00    +0.004 C 
ATOM     20  C   UNL     1       1.836  -1.163  -0.538  0.00  0.00    -0.005 C 
ENDBRANCH  18  20
ENDBRANCH  17  18
ENDBRANCH  15  17
BRANCH  15  21
ATOM     21  C   UNL     1      -2.184  -2.203  -1.569  0.00  0.00    -0.050 C 
BRANCH  21  22
ATOM     22  C   UNL     1      -3.703  -2.025  -1.533  0.00  0.00    +0.137 C 
BRANCH  22  23
ATOM     23  O   UNL     1      -4.031  -0.893  -0.725  0.00  0.00    -0.397 OA
ATOM     24  H   UNL     1      -4.973  -0.674  -0.718  0.00  0.00    +0.209 HD
ENDBRANCH  22  23
ENDBRANCH  21  22
ENDBRANCH  15  21
ENDBRANCH  14  15
ENDBRANCH   1  14
TORSDOF 9
