REMARK  Name = ZINC33869349
REMARK  13 active torsions:
REMARK  status: ('A' for Active; 'I' for Inactive)
REMARK    1  A    between atoms: C_1  and  C_2
REMARK    2  A    between atoms: C_5  and  C_8
REMARK    3  A    between atoms: N_10  and  C_11
REMARK    4  A    between atoms: N_10  and  C_15
REMARK    5  A    between atoms: C_11  and  C_12
REMARK    6  A    between atoms: C_12  and  O_13
REMARK    7  A    between atoms: O_13  and  C_14
REMARK    8  A    between atoms: C_15  and  C_16
REMARK    9  A    between atoms: C_21  and  C_24
REMARK   10  A    between atoms: C_24  and  C_25
REMARK   11  A    between atoms: C_29  and  C_38
REMARK   12  A    between atoms: C_34  and  C_36
REMARK   13  A    between atoms: C_34  and  C_37
REMARK                            x       y       z     vdW  Elec       q    Type
REMARK                         _______ _______ _______ _____ _____    ______ ____
ROOT
ATOM      1  C   UNL     1       1.696  -6.628   0.971  0.00  0.00    +0.236 C 
ATOM      2  O   UNL     1       2.469  -5.696   0.900  0.00  0.00    -0.274 OA
ATOM      3  N   UNL     1       2.160  -7.893   0.922  0.00  0.00    -0.263 N 
ATOM      4  C   UNL     1       3.524  -8.129   0.792  0.00  0.00    +0.165 A 
ATOM      5  N   UNL     1       4.151  -9.283   0.723  0.00  0.00    -0.229 NA
ATOM      6  C   UNL     1       5.464  -9.339   0.598  0.00  0.00    +0.059 A 
ATOM      7  C   UNL     1       6.129  -8.159   0.545  0.00  0.00    +0.072 A 
ATOM      8  S   UNL     1       4.772  -7.006   0.675  0.00  0.00    -0.060 S 
ATOM      9  H   UNL     1       1.542  -8.639   0.979  0.00  0.00    +0.157 HD
ENDROOT
BRANCH   1  10
ATOM     10  C   UNL     1       0.218  -6.373   1.113  0.00  0.00    +0.204 C 
BRANCH  10  13
ATOM     11  C   UNL     1      -0.332  -4.275   0.002  0.00  0.00    +0.247 C 
ATOM     12  O   UNL     1      -0.476  -3.068   0.014  0.00  0.00    -0.270 OA
ATOM     13  N   UNL     1      -0.028  -4.929   1.140  0.00  0.00    -0.287 N 
BRANCH  11  18
ATOM     14  C   UNL     1      -0.952  -7.198  -4.916  0.00  0.00    +0.044 C 
ATOM     15  C   UNL     1      -0.790  -6.433  -3.628  0.00  0.00    -0.050 A 
ATOM     16  C   UNL     1       0.336  -6.628  -2.848  0.00  0.00    +0.004 A 
ATOM     17  C   UNL     1       0.491  -5.931  -1.668  0.00  0.00    +0.013 A 
ATOM     18  C   UNL     1      -0.491  -5.026  -1.262  0.00  0.00    +0.037 A 
ATOM     19  C   UNL     1      -1.625  -4.833  -2.054  0.00  0.00    +0.013 A 
ATOM     20  C   UNL     1      -1.764  -5.533  -3.234  0.00  0.00    +0.004 A 
ENDBRANCH  11  18
BRANCH  13  21
ATOM     21  C   UNL     1       0.058  -4.196   2.406  0.00  0.00    +0.136 C 
BRANCH  21  22
ATOM     22  C   UNL     1      -1.339  -4.069   3.017  0.00  0.00    +0.178 C 
BRANCH  22  23
ATOM     23  O   UNL     1      -1.826  -5.367   3.365  0.00  0.00    -0.381 OA
ATOM     24  C   UNL     1      -3.131  -5.362   3.947  0.00  0.00    +0.194 C 
ENDBRANCH  22  23
ENDBRANCH  21  22
ENDBRANCH  13  21
ENDBRANCH  10  13
ENDBRANCH   1  10
BRANCH   6  25
ATOM     25  C   UNL     1       6.191 -10.657   0.519  0.00  0.00    +0.152 C 
BRANCH  25  26
ATOM     26  C   UNL     1       5.832 -11.501   1.715  0.00  0.00    +0.222 C 
ATOM     27  O   UNL     1       5.062 -11.075   2.550  0.00  0.00    -0.275 OA
ATOM     28  N   UNL     1       6.368 -12.730   1.858  0.00  0.00    -0.298 N 
ATOM     29  C   UNL     1       7.320 -13.367   0.935  0.00  0.00    +0.114 C 
ATOM     30  C   UNL     1       7.592 -14.782   1.496  0.00  0.00    -0.014 C 
ATOM     31  C   UNL     1       7.361 -14.579   3.018  0.00  0.00    +0.030 C 
ATOM     32  C   UNL     1       6.111 -13.666   2.971  0.00  0.00    +0.077 C 
ATOM     33  C   UNL     1       4.917 -14.549   2.619  0.00  0.00    +0.029 C 
ATOM     34  C   UNL     1       5.092 -15.333   1.331  0.00  0.00    -0.033 C 
ATOM     35  C   UNL     1       6.513 -15.735   0.988  0.00  0.00    +0.014 C 
ATOM     36  C   UNL     1       4.468 -14.556   0.162  0.00  0.00    +0.011 C 
ATOM     37  C   UNL     1       4.269 -16.638   1.475  0.00  0.00    +0.011 C 
ATOM     38  C   UNL     1       9.014 -15.271   1.180  0.00  0.00    +0.013 C 
ENDBRANCH  25  26
ENDBRANCH   6  25
TORSDOF 8
