REMARK  Name = ZINC44549645
REMARK  5 active torsions:
REMARK  status: ('A' for Active; 'I' for Inactive)
REMARK    1  A    between atoms: C_1  and  O_2
REMARK    2  A    between atoms: O_2  and  C_3
REMARK    3  A    between atoms: C_3  and  C_4
REMARK    4  A    between atoms: C_9  and  N_10
REMARK    5  A    between atoms: C_11  and  C_13
REMARK                            x       y       z     vdW  Elec       q    Type
REMARK                         _______ _______ _______ _____ _____    ______ ____
ROOT
ATOM      1  C   UNL     1       2.927  -2.377   5.314  0.00  0.00    +0.142 C 
ATOM      2  C   UNL     1       1.880  -1.511   5.961  0.00  0.00    +0.011 A 
ATOM      3  C   UNL     1       1.596  -0.270   5.419  0.00  0.00    +0.008 A 
ATOM      4  C   UNL     1       0.639   0.540   5.999  0.00  0.00    +0.001 A 
ATOM      5  C   UNL     1      -0.040   0.111   7.125  0.00  0.00    +0.004 A 
ATOM      6  C   UNL     1       0.238  -1.126   7.670  0.00  0.00    +0.046 A 
ATOM      7  C   UNL     1       1.201  -1.943   7.089  0.00  0.00    +0.133 A 
ATOM      8  O   UNL     1       1.462  -3.153   7.639  0.00  0.00    -0.455 OA
ATOM      9  C   UNL     1       2.638  -3.776   7.381  0.00  0.00    +0.133 A 
ATOM     10  C   UNL     1       3.393  -3.442   6.269  0.00  0.00    +0.011 A 
ATOM     11  C   UNL     1       4.590  -4.093   6.028  0.00  0.00    +0.008 A 
ATOM     12  C   UNL     1       5.035  -5.074   6.894  0.00  0.00    +0.001 A 
ATOM     13  C   UNL     1       4.284  -5.409   8.005  0.00  0.00    +0.004 A 
ATOM     14  C   UNL     1       3.088  -4.763   8.251  0.00  0.00    +0.046 A 
ENDROOT
BRANCH   1  16
ATOM     15  N   UNL     1       1.859  -2.268   3.085  0.00  0.00    -0.284 N 
ATOM     16  C   UNL     1       2.345  -3.029   4.086  0.00  0.00    +0.229 C 
ATOM     17  O   UNL     1       2.313  -4.238   3.998  0.00  0.00    -0.274 OA
ATOM     18  H   UNL     1       1.944  -1.302   3.125  0.00  0.00    +0.155 HD
BRANCH  15  24
ATOM     19  C   UNL     1       0.163  -2.243   1.367  0.00  0.00    -0.001 A 
ATOM     20  C   UNL     1      -0.449  -2.838   0.280  0.00  0.00    +0.008 A 
ATOM     21  C   UNL     1       0.001  -4.060  -0.185  0.00  0.00    +0.000 A 
ATOM     22  C   UNL     1       1.065  -4.690   0.435  0.00  0.00    +0.002 A 
ATOM     23  C   UNL     1       1.681  -4.100   1.521  0.00  0.00    +0.023 A 
ATOM     24  C   UNL     1       1.234  -2.871   1.988  0.00  0.00    +0.039 A 
BRANCH  19  25
ATOM     25  C   UNL     1      -0.329  -0.912   1.873  0.00  0.00    +0.196 C 
BRANCH  25  27
ATOM     26  C   UNL     1      -1.976   0.784   1.474  0.00  0.00    +0.194 C 
ATOM     27  O   UNL     1      -1.432  -0.476   1.075  0.00  0.00    -0.378 OA
ENDBRANCH  25  27
ENDBRANCH  19  25
ENDBRANCH  15  24
ENDBRANCH   1  16
TORSDOF 4
