REMARK  Name = ZINC13064298
REMARK  11 active torsions:
REMARK  status: ('A' for Active; 'I' for Inactive)
REMARK    1  A    between atoms: C_1  and  C_2
REMARK    2  A    between atoms: C_2  and  C_3
REMARK    3  A    between atoms: C_3  and  C_5
REMARK    4  A    between atoms: C_3  and  N_67
REMARK    5  A    between atoms: N_9  and  C_10
REMARK    6  A    between atoms: C_10  and  C_11
REMARK    7  A    between atoms: C_17  and  C_18
REMARK    8  A    between atoms: C_17  and  N_67
REMARK    9  A    between atoms: C_23  and  O_30
REMARK   10  A    between atoms: O_30  and  C_31
REMARK   11  A    between atoms: C_32  and  N_67
REMARK                            x       y       z     vdW  Elec       q    Type
REMARK                         _______ _______ _______ _____ _____    ______ ____
ROOT
ATOM      1  N   UNL     1      -2.969   9.541   2.674  0.00  0.00    +0.391 N 
ATOM      2  H   UNL     1      -3.131   8.872   1.912  0.00  0.00    -0.080 HD
ENDROOT
BRANCH   1   3
ATOM      3  C   UNL     1      -3.807   9.162   3.832  0.00  0.00    -0.067 C 
ATOM      4  C   UNL     1      -3.234   9.742   5.142  0.00  0.00    -0.015 C 
ATOM      5  C   UNL     1      -3.484   8.628   6.190  0.00  0.00    -0.002 C 
ATOM      6  C   UNL     1      -3.216   7.333   5.384  0.00  0.00    -0.002 C 
ATOM      7  C   UNL     1      -3.796   7.631   3.985  0.00  0.00    -0.015 C 
ENDBRANCH   1   3
BRANCH   1   8
ATOM      8  C   UNL     1      -3.334  10.896   2.209  0.00  0.00    +0.003 C 
BRANCH   8   9
ATOM      9  C   UNL     1      -2.720  11.943   3.102  0.00  0.00    +0.138 A 
ATOM     10  N   UNL     1      -2.743  11.964   4.412  0.00  0.00    -0.115 NA
ATOM     11  N   UNL     1      -2.110  13.016   4.804  0.00  0.00    -0.023 NA
ATOM     12  N   UNL     1      -1.691  13.670   3.777  0.00  0.00    -0.044 NA
ATOM     13  N   UNL     1      -2.048  13.040   2.709  0.00  0.00    -0.226 N 
BRANCH  13  14
ATOM     14  C   UNL     1      -1.773  13.444   1.328  0.00  0.00    +0.182 C 
BRANCH  14  15
ATOM     15  C   UNL     1      -2.894  14.318   0.827  0.00  0.00    -0.026 A 
ATOM     16  C   UNL     1      -3.983  13.749   0.194  0.00  0.00    +0.005 A 
ATOM     17  C   UNL     1      -5.014  14.550  -0.261  0.00  0.00    +0.000 A 
ATOM     18  C   UNL     1      -4.951  15.921  -0.092  0.00  0.00    +0.000 A 
ATOM     19  C   UNL     1      -3.859  16.490   0.536  0.00  0.00    +0.000 A 
ATOM     20  C   UNL     1      -2.830  15.688   0.996  0.00  0.00    +0.005 A 
ENDBRANCH  14  15
ENDBRANCH  13  14
ENDBRANCH   8   9
BRANCH   8  22
ATOM     21  C   UNL     1      -5.480   9.982   1.313  0.00  0.00    +0.002 C 
ATOM     22  C   UNL     1      -4.857  11.041   2.224  0.00  0.00    -0.011 C 
ENDBRANCH   8  22
ENDBRANCH   1   8
BRANCH   1  23
ATOM     23  C   UNL     1      -1.540   9.504   3.050  0.00  0.00    -0.036 C 
BRANCH  23  24
ATOM     24  C   UNL     1      -0.709   9.490   1.793  0.00  0.00    +0.001 A 
ATOM     25  C   UNL     1      -0.129  10.636   1.354  0.00  0.00    +0.017 A 
ATOM     26  C   UNL     1       0.671  10.589   0.131  0.00  0.00    -0.001 A 
ATOM     27  C   UNL     1       1.293  11.740  -0.370  0.00  0.00    +0.013 A 
ATOM     28  C   UNL     1       2.038  11.665  -1.510  0.00  0.00    +0.046 A 
ATOM     29  C   UNL     1       2.177  10.454  -2.187  0.00  0.00    +0.122 A 
ATOM     30  C   UNL     1       1.571   9.306  -1.708  0.00  0.00    +0.072 A 
ATOM     31  C   UNL     1       0.812   9.362  -0.546  0.00  0.00    +0.053 A 
ATOM     32  N   UNL     1       0.197   8.234  -0.047  0.00  0.00    -0.322 N 
ATOM     33  H   UNL     1       0.294   7.389  -0.514  0.00  0.00    +0.169 HD
ATOM     34  C   UNL     1      -0.537   8.287   1.079  0.00  0.00    +0.251 A 
ATOM     35  O   UNL     1      -1.067   7.270   1.491  0.00  0.00    -0.268 OA
BRANCH  29  36
ATOM     36  O   UNL     1       2.919  10.400  -3.323  0.00  0.00    -0.495 OA
ATOM     37  C   UNL     1       3.519  11.619  -3.765  0.00  0.00    +0.277 C 
ENDBRANCH  29  36
ENDBRANCH  23  24
ENDBRANCH   1  23
TORSDOF 9
