REMARK  Name = ZINC38636590
REMARK  7 active torsions:
REMARK  status: ('A' for Active; 'I' for Inactive)
REMARK    1  A    between atoms: C_11  and  C_22
REMARK    2  A    between atoms: C_22  and  O_23
REMARK    3  A    between atoms: O_23  and  P_24
REMARK    4  A    between atoms: P_24  and  O_27
REMARK    5  A    between atoms: O_27  and  C_28
REMARK    6  A    between atoms: C_28  and  C_29
REMARK    7  A    between atoms: C_29  and  N_30
REMARK                            x       y       z     vdW  Elec       q    Type
REMARK                         _______ _______ _______ _____ _____    ______ ____
ROOT
ATOM      1  C   UNL     1       0.033   1.637  -0.022  0.00  0.00    -0.000 C 
ATOM      2  C   UNL     1       1.466   2.172  -0.012  0.00  0.00    -0.000 C 
ATOM      3  C   UNL     1       1.440   3.701  -0.069  0.00  0.00    -0.000 C 
ATOM      4  C   UNL     1       2.868   4.240   0.049  0.00  0.00    +0.000 C 
ATOM      5  C   UNL     1       3.022   4.990   1.373  0.00  0.00    +0.000 C 
ATOM      6  C   UNL     1       4.355   4.610   2.022  0.00  0.00    +0.000 C 
ATOM      7  C   UNL     1       4.362   5.072   3.481  0.00  0.00    +0.002 C 
ATOM      8  C   UNL     1       5.252   4.141   4.306  0.00  0.00    +0.028 C 
ATOM      9  C   UNL     1       4.521   3.743   5.590  0.00  0.00    +0.160 C 
ATOM     10  O   UNL     1       4.894   2.413   5.957  0.00  0.00    -0.372 OA
ATOM     11  C   UNL     1       3.936   1.748   6.784  0.00  0.00    +0.170 C 
ATOM     12  C   UNL     1       3.958   0.248   6.484  0.00  0.00    +0.193 C 
ATOM     13  O   UNL     1       2.629  -0.272   6.558  0.00  0.00    -0.377 OA
ATOM     14  C   UNL     1       2.446  -1.500   5.851  0.00  0.00    +0.160 C 
ATOM     15  C   UNL     1       0.971  -1.658   5.476  0.00  0.00    +0.028 C 
ATOM     16  C   UNL     1       0.862  -2.344   4.113  0.00  0.00    +0.002 C 
ATOM     17  C   UNL     1      -0.254  -1.686   3.298  0.00  0.00    +0.000 C 
ATOM     18  C   UNL     1       0.215  -1.490   1.855  0.00  0.00    +0.000 C 
ATOM     19  C   UNL     1      -0.666  -0.444   1.170  0.00  0.00    +0.000 C 
ATOM     20  C   UNL     1       0.059   0.108  -0.059  0.00  0.00    -0.000 C 
ENDROOT
BRANCH  11  21
ATOM     21  C   UNL     1       2.540   2.305   6.496  0.00  0.00    +0.206 C 
BRANCH  21  22
ATOM     22  O   UNL     1       2.459   3.652   6.966  0.00  0.00    -0.282 OA
BRANCH  22  23
ATOM     23  P   UNL     1       1.129   4.550   6.828  0.00  0.00    +0.505 P 
ATOM     24  O   UNL     1       0.689   4.594   5.348  0.00  0.00    -0.225 OA
ATOM     25  O   UNL     1       0.000   3.933   7.683  0.00  0.00    -0.116 OA
BRANCH  23  26
ATOM     26  O   UNL     1       1.436   6.045   7.341  0.00  0.00    -0.287 OA
BRANCH  26  27
ATOM     27  C   UNL     1       0.486   7.109   7.250  0.00  0.00    +0.153 C 
BRANCH  27  28
ATOM     28  C   UNL     1       1.097   8.388   7.826  0.00  0.00    -0.057 C 
BRANCH  28  29
ATOM     29  N   UNL     1       2.232   8.807   6.993  0.00  0.00    +0.380 N 
ATOM     30  H   UNL     1       2.635   9.651   7.373  0.00  0.00    -0.090 HD
ATOM     31  H   UNL     1       2.929   8.077   6.982  0.00  0.00    -0.090 HD
ATOM     32  H   UNL     1       1.913   8.981   6.052  0.00  0.00    -0.090 HD
ENDBRANCH  28  29
ENDBRANCH  27  28
ENDBRANCH  26  27
ENDBRANCH  23  26
ENDBRANCH  22  23
ENDBRANCH  21  22
ENDBRANCH  11  21
TORSDOF 7
