REMARK  Name = ZINC35525640
REMARK  8 active torsions:
REMARK  status: ('A' for Active; 'I' for Inactive)
REMARK    1  A    between atoms: C_1  and  C_2
REMARK    2  A    between atoms: C_2  and  C_3
REMARK    3  A    between atoms: C_2  and  C_4
REMARK    4  A    between atoms: C_8  and  C_35
REMARK    5  A    between atoms: C_9  and  N_10
REMARK    6  A    between atoms: C_26  and  C_28
REMARK    7  A    between atoms: C_35  and  C_36
REMARK    8  A    between atoms: C_35  and  C_37
REMARK                            x       y       z     vdW  Elec       q    Type
REMARK                         _______ _______ _______ _____ _____    ______ ____
ROOT
ATOM      1  N   UNL     1      -0.727  -1.787  -1.826  0.00  0.00    -0.269 N 
ATOM      2  C   UNL     1      -1.125  -2.613  -2.814  0.00  0.00    +0.307 C 
ATOM      3  O   UNL     1      -2.240  -3.097  -2.790  0.00  0.00    -0.252 OA
ATOM      4  N   UNL     1      -0.285  -2.904  -3.828  0.00  0.00    -0.282 N 
ATOM      5  C   UNL     1       1.106  -2.433  -3.805  0.00  0.00    +0.128 C 
ATOM      6  C   UNL     1       2.036  -3.642  -3.969  0.00  0.00    +0.125 C 
ATOM      7  N   UNL     1       1.575  -4.436  -5.117  0.00  0.00    -0.312 N 
ATOM      8  C   UNL     1       0.184  -4.907  -5.139  0.00  0.00    +0.125 C 
ATOM      9  C   UNL     1      -0.744  -3.702  -4.973  0.00  0.00    +0.128 C 
ATOM     10  C   UNL     1       2.437  -4.734  -6.157  0.00  0.00    +0.133 A 
ATOM     11  C   UNL     1       3.258  -5.894  -6.104  0.00  0.00    +0.051 A 
ATOM     12  C   UNL     1       3.352  -6.903  -5.047  0.00  0.00    -0.025 A 
ATOM     13  C   UNL     1       4.219  -7.916  -5.244  0.00  0.00    -0.004 A 
ATOM     14  S   UNL     1       4.954  -7.596  -6.825  0.00  0.00    -0.073 S 
ATOM     15  C   UNL     1       4.094  -6.096  -7.220  0.00  0.00    +0.114 A 
ATOM     16  N   UNL     1       4.102  -5.255  -8.236  0.00  0.00    -0.224 NA
ATOM     17  C   UNL     1       3.318  -4.194  -8.229  0.00  0.00    +0.135 A 
ATOM     18  N   UNL     1       2.504  -3.946  -7.218  0.00  0.00    -0.216 NA
ATOM     19  C   UNL     1       4.498  -9.064  -4.321  0.00  0.00    +0.043 C 
ATOM     20  C   UNL     1       3.923  -8.726  -2.939  0.00  0.00    +0.005 C 
ATOM     21  C   UNL     1       2.492  -8.210  -3.116  0.00  0.00    +0.005 C 
ATOM     22  C   UNL     1       2.515  -6.829  -3.772  0.00  0.00    +0.037 C 
ATOM     23  H   UNL     1       0.180  -1.444  -1.816  0.00  0.00    +0.156 HD
ENDROOT
BRANCH   1  29
ATOM     24  C   UNL     1      -2.209  -2.402  -0.020  0.00  0.00    -0.023 A 
ATOM     25  C   UNL     1      -3.089  -2.040   0.982  0.00  0.00    +0.006 A 
ATOM     26  C   UNL     1      -3.392  -0.707   1.190  0.00  0.00    +0.001 A 
ATOM     27  C   UNL     1      -2.815   0.268   0.397  0.00  0.00    +0.006 A 
ATOM     28  C   UNL     1      -1.935  -0.087  -0.607  0.00  0.00    -0.023 A 
ATOM     29  C   UNL     1      -1.624  -1.425  -0.814  0.00  0.00    +0.042 A 
BRANCH  24  31
ATOM     30  C   UNL     1      -1.108  -4.397   0.958  0.00  0.00    +0.012 C 
ATOM     31  C   UNL     1      -1.880  -3.855  -0.246  0.00  0.00    +0.015 C 
ATOM     32  C   UNL     1      -3.175  -4.650  -0.422  0.00  0.00    +0.012 C 
ENDBRANCH  24  31
BRANCH  28  33
ATOM     33  C   UNL     1      -1.308   0.976  -1.471  0.00  0.00    +0.015 C 
ATOM     34  C   UNL     1      -2.407   1.829  -2.108  0.00  0.00    +0.012 C 
ATOM     35  C   UNL     1      -0.406   1.865  -0.613  0.00  0.00    +0.012 C 
ENDBRANCH  28  33
ENDBRANCH   1  29
BRANCH  17  36
ATOM     36  C   UNL     1       3.347  -3.249  -9.402  0.00  0.00    +0.057 C 
ATOM     37  C   UNL     1       4.142  -3.678 -10.636  0.00  0.00    +0.012 C 
ATOM     38  C   UNL     1       4.678  -2.569  -9.729  0.00  0.00    +0.012 C 
ENDBRANCH  17  36
TORSDOF 4
