REMARK  Name = ZINC38650211
REMARK  12 active torsions:
REMARK  status: ('A' for Active; 'I' for Inactive)
REMARK    1  A    between atoms: C_1  and  C_2
REMARK    2  A    between atoms: C_5  and  O_9
REMARK    3  A    between atoms: C_7  and  C_8
REMARK    4  A    between atoms: O_9  and  C_10
REMARK    5  A    between atoms: C_10  and  C_11
REMARK    6  A    between atoms: C_11  and  O_13
REMARK    7  A    between atoms: O_13  and  C_14
REMARK    8  A    between atoms: C_21  and  N_35
REMARK    9  A    between atoms: C_22  and  C_33
REMARK   10  A    between atoms: C_23  and  C_25
REMARK   11  A    between atoms: C_29  and  O_31
REMARK   12  A    between atoms: O_31  and  C_32
REMARK                            x       y       z     vdW  Elec       q    Type
REMARK                         _______ _______ _______ _____ _____    ______ ____
ROOT
ATOM      1  C   UNL     1       0.136  -8.431  -2.058  0.00  0.00    +0.135 A 
ATOM      2  C   UNL     1       0.107  -9.020  -0.802  0.00  0.00    +0.047 A 
ATOM      3  C   UNL     1       0.160 -10.394  -0.683  0.00  0.00    +0.012 A 
ATOM      4  C   UNL     1       0.242 -11.190  -1.812  0.00  0.00    +0.008 A 
ATOM      5  C   UNL     1       0.271 -10.607  -3.069  0.00  0.00    +0.138 A 
ATOM      6  C   UNL     1       0.212  -9.224  -3.191  0.00  0.00    +0.093 A 
ATOM      7  O   UNL     1       0.351 -11.369  -4.188  0.00  0.00    -0.441 OA
ATOM      8  C   UNL     1       0.784 -12.638  -4.104  0.00  0.00    +0.199 C 
ATOM      9  C   UNL     1       0.785 -13.319  -2.933  0.00  0.00    +0.098 C 
ATOM     10  C   UNL     1       0.298 -12.687  -1.661  0.00  0.00    +0.098 C 
ENDROOT
BRANCH  10  11
ATOM     11  C   UNL     1      -1.079 -13.208  -1.339  0.00  0.00    -0.031 A 
ATOM     12  C   UNL     1      -2.120 -13.003  -2.226  0.00  0.00    +0.005 A 
ATOM     13  C   UNL     1      -3.384 -13.481  -1.933  0.00  0.00    +0.004 A 
ATOM     14  C   UNL     1      -3.610 -14.163  -0.754  0.00  0.00    +0.045 A 
ATOM     15  C   UNL     1      -2.568 -14.370   0.138  0.00  0.00    +0.120 A 
ATOM     16  C   UNL     1      -1.298 -13.895  -0.161  0.00  0.00    +0.050 A 
BRANCH  15  17
ATOM     17  O   UNL     1      -2.788 -15.040   1.299  0.00  0.00    -0.495 OA
ATOM     18  C   UNL     1      -4.118 -15.505   1.537  0.00  0.00    +0.277 C 
ENDBRANCH  15  17
ENDBRANCH  10  11
BRANCH   8  19
ATOM     19  N   UNL     1       1.239 -13.263  -5.238  0.00  0.00    -0.328 N 
ATOM     20  H   UNL     1       1.244 -12.789  -6.084  0.00  0.00    +0.145 HD
ATOM     21  H   UNL     1       1.555 -14.179  -5.194  0.00  0.00    +0.145 HD
ENDBRANCH   8  19
BRANCH   9  22
ATOM     22  C   UNL     1       1.260 -14.670  -2.909  0.00  0.00    +0.101 C 
ATOM     23  N   UNL     1       1.636 -15.742  -2.889  0.00  0.00    -0.191 NA
ENDBRANCH   9  22
BRANCH   1  24
ATOM     24  O   UNL     1       0.084  -7.078  -2.178  0.00  0.00    -0.423 OA
BRANCH  24  25
ATOM     25  C   UNL     1       1.202  -6.379  -1.922  0.00  0.00    +0.350 C 
ATOM     26  O   UNL     1       2.187  -6.945  -1.512  0.00  0.00    -0.247 OA
BRANCH  25  27
ATOM     27  C   UNL     1       1.227  -4.889  -2.147  0.00  0.00    +0.349 C 
BRANCH  27  28
ATOM     28  O   UNL     1       2.517  -4.378  -1.806  0.00  0.00    -0.481 OA
BRANCH  28  33
ATOM     29  C   UNL     1       3.313   1.165  -2.412  0.00  0.00    +0.044 C 
ATOM     30  C   UNL     1       3.100  -0.318  -2.250  0.00  0.00    -0.047 A 
ATOM     31  C   UNL     1       1.875  -0.878  -2.563  0.00  0.00    +0.007 A 
ATOM     32  C   UNL     1       1.677  -2.237  -2.416  0.00  0.00    +0.046 A 
ATOM     33  C   UNL     1       2.709  -3.041  -1.953  0.00  0.00    +0.122 A 
ATOM     34  C   UNL     1       3.937  -2.477  -1.639  0.00  0.00    +0.049 A 
ATOM     35  C   UNL     1       4.131  -1.118  -1.794  0.00  0.00    -0.044 A 
ATOM     36  C   UNL     1       5.467  -0.505  -1.459  0.00  0.00    +0.044 C 
ENDBRANCH  28  33
ENDBRANCH  27  28
ENDBRANCH  25  27
ENDBRANCH  24  25
ENDBRANCH   1  24
TORSDOF 9
