REMARK  Name = ZINC18051050
REMARK  11 active torsions:
REMARK  status: ('A' for Active; 'I' for Inactive)
REMARK    1  A    between atoms: C_1  and  C_2
REMARK    2  A    between atoms: C_2  and  C_4
REMARK    3  A    between atoms: C_2  and  O_27
REMARK    4  A    between atoms: N_6  and  N_7
REMARK    5  A    between atoms: C_8  and  C_10
REMARK    6  A    between atoms: C_10  and  N_11
REMARK    7  A    between atoms: C_14  and  C_18
REMARK    8  A    between atoms: C_14  and  C_19
REMARK    9  A    between atoms: C_22  and  O_25
REMARK   10  A    between atoms: O_25  and  C_26
REMARK   11  A    between atoms: O_27  and  C_28
REMARK                            x       y       z     vdW  Elec       q    Type
REMARK                         _______ _______ _______ _____ _____    ______ ____
ROOT
ATOM      1  N   UNL     1      -2.378   0.801   0.282  0.00  0.00    -0.233 N 
ATOM      2  C   UNL     1      -3.591   1.364   0.459  0.00  0.00    +0.247 C 
ATOM      3  O   UNL     1      -3.682   2.556   0.663  0.00  0.00    -0.273 OA
ATOM      4  H   UNL     1      -2.305  -0.152   0.118  0.00  0.00    +0.173 HD
ENDROOT
BRANCH   1   7
ATOM      5  C   UNL     1      -0.012   1.032   0.156  0.00  0.00    +0.270 C 
ATOM      6  O   UNL     1       0.079  -0.161  -0.048  0.00  0.00    -0.270 OA
ATOM      7  N   UNL     1      -1.224   1.594   0.333  0.00  0.00    -0.231 N 
ATOM      8  H   UNL     1      -1.297   2.547   0.497  0.00  0.00    +0.173 HD
BRANCH   5  10
ATOM      9  C   UNL     1       1.152   2.960  -0.880  0.00  0.00    +0.062 C 
ATOM     10  C   UNL     1       1.229   1.885   0.206  0.00  0.00    +0.257 C 
BRANCH  10  11
ATOM     11  O   UNL     1       2.379   1.066  -0.015  0.00  0.00    -0.480 OA
BRANCH  11  12
ATOM     12  C   UNL     1       3.560   1.512   0.488  0.00  0.00    +0.122 A 
ATOM     13  C   UNL     1       3.623   2.777   1.083  0.00  0.00    +0.046 A 
ATOM     14  C   UNL     1       4.790   3.251   1.595  0.00  0.00    +0.012 A 
ATOM     15  C   UNL     1       5.952   2.463   1.528  0.00  0.00    -0.018 A 
ATOM     16  C   UNL     1       7.174   2.921   2.047  0.00  0.00    +0.008 A 
ATOM     17  C   UNL     1       8.280   2.132   1.966  0.00  0.00    +0.001 A 
ATOM     18  C   UNL     1       8.220   0.872   1.373  0.00  0.00    +0.001 A 
ATOM     19  C   UNL     1       7.054   0.394   0.860  0.00  0.00    +0.008 A 
ATOM     20  C   UNL     1       5.891   1.181   0.925  0.00  0.00    -0.014 A 
ATOM     21  C   UNL     1       4.668   0.719   0.411  0.00  0.00    +0.054 A 
ENDBRANCH  11  12
ENDBRANCH  10  11
ENDBRANCH   5  10
ENDBRANCH   1   7
BRANCH   2  22
ATOM     22  C   UNL     1      -4.832   0.511   0.403  0.00  0.00    +0.215 C 
BRANCH  22  23
ATOM     23  N   UNL     1      -6.012   1.352   0.624  0.00  0.00    -0.215 N 
ATOM     24  C   UNL     1      -6.697   1.968  -0.359  0.00  0.00    +0.251 C 
ATOM     25  O   UNL     1      -6.462   1.934  -1.548  0.00  0.00    -0.272 OA
ATOM     26  C   UNL     1      -7.822   2.713   0.331  0.00  0.00    +0.135 C 
ATOM     27  N   UNL     1      -7.621   2.401   1.757  0.00  0.00    -0.281 N 
ATOM     28  C   UNL     1      -6.545   1.597   1.826  0.00  0.00    +0.310 C 
ATOM     29  O   UNL     1      -6.104   1.147   2.866  0.00  0.00    -0.252 OA
ATOM     30  C   UNL     1      -9.181   2.198  -0.147  0.00  0.00    +0.047 C 
ATOM     31  H   UNL     1      -8.162   2.712   2.500  0.00  0.00    +0.152 HD
BRANCH  26  32
ATOM     32  C   UNL     1      -7.702   4.196   0.091  0.00  0.00    -0.015 A 
ATOM     33  C   UNL     1      -7.124   4.662  -1.076  0.00  0.00    +0.010 A 
ATOM     34  C   UNL     1      -7.017   6.021  -1.300  0.00  0.00    +0.046 A 
ATOM     35  C   UNL     1      -7.480   6.918  -0.349  0.00  0.00    +0.120 A 
ATOM     36  C   UNL     1      -8.054   6.449   0.823  0.00  0.00    +0.046 A 
ATOM     37  C   UNL     1      -8.164   5.089   1.041  0.00  0.00    +0.010 A 
BRANCH  35  38
ATOM     38  O   UNL     1      -7.370   8.256  -0.565  0.00  0.00    -0.495 OA
ATOM     39  C   UNL     1      -6.768   8.667  -1.794  0.00  0.00    +0.277 C 
ENDBRANCH  35  38
ENDBRANCH  26  32
ENDBRANCH  22  23
ENDBRANCH   2  22
TORSDOF 8
