REMARK  Name = ZINC07433918
REMARK  5 active torsions:
REMARK  status: ('A' for Active; 'I' for Inactive)
REMARK    1  A    between atoms: C_4  and  O_25
REMARK    2  A    between atoms: C_5  and  N_7
REMARK    3  A    between atoms: C_12  and  C_13
REMARK    4  A    between atoms: C_12  and  N_46
REMARK    5  A    between atoms: C_16  and  C_18
REMARK                            x       y       z     vdW  Elec       q    Type
REMARK                         _______ _______ _______ _____ _____    ______ ____
ROOT
ATOM      1  N   UNL     1       2.403   1.391  -0.014  0.00  0.00    -0.331 N 
ATOM      2  C   UNL     1       3.170   1.658   1.211  0.00  0.00    +0.086 C 
ATOM      3  C   UNL     1       4.461   0.836   1.191  0.00  0.00    -0.059 C 
ATOM      4  C   UNL     1       4.476   0.920  -1.228  0.00  0.00    -0.059 C 
ATOM      5  C   UNL     1       3.185   1.742  -1.208  0.00  0.00    +0.086 C 
ATOM      6  N   UNL     1       5.247   1.214  -0.002  0.00  0.00    +0.385 N 
ATOM      7  H   UNL     1       5.445   2.221   0.034  0.00  0.00    -0.081 HD
ENDROOT
BRANCH   1  12
ATOM      8  C   UNL     1      -0.055   4.126   0.025  0.00  0.00    +0.002 A 
ATOM      9  C   UNL     1      -1.241   3.416   0.032  0.00  0.00    +0.004 A 
ATOM     10  C   UNL     1      -1.224   2.034   0.019  0.00  0.00    +0.047 A 
ATOM     11  C   UNL     1      -0.016   1.356   0.009  0.00  0.00    +0.138 A 
ATOM     12  C   UNL     1       1.179   2.071   0.002  0.00  0.00    +0.072 A 
ATOM     13  C   UNL     1       1.155   3.458   0.010  0.00  0.00    +0.027 A 
BRANCH  11  14
ATOM     14  O   UNL     1       0.002  -0.004   0.002  0.00  0.00    -0.505 OA
ATOM     15  H   UNL     1       0.016  -0.402   0.883  0.00  0.00    +0.292 HD
ENDBRANCH  11  14
ENDBRANCH   1  12
BRANCH   6  16
ATOM     16  C   UNL     1       6.527   0.474  -0.020  0.00  0.00    -0.022 C 
BRANCH  16  17
ATOM     17  C   UNL     1       7.385   0.957   1.121  0.00  0.00    +0.033 A 
ATOM     18  C   UNL     1       7.390   0.283   2.302  0.00  0.00    +0.068 A 
ATOM     19  S   UNL     1       8.545   1.273   3.242  0.00  0.00    -0.075 S 
ATOM     20  C   UNL     1       8.887   2.478   1.966  0.00  0.00    +0.108 A 
ATOM     21  N   UNL     1       8.123   2.032   0.979  0.00  0.00    -0.246 NA
BRANCH  20  22
ATOM     22  C   UNL     1       9.780   3.656   2.003  0.00  0.00    +0.007 A 
ATOM     23  C   UNL     1       9.907   4.474   0.880  0.00  0.00    +0.012 A 
ATOM     24  C   UNL     1      10.738   5.575   0.922  0.00  0.00    +0.020 A 
ATOM     25  C   UNL     1      11.453   5.862   2.072  0.00  0.00    +0.041 A 
ATOM     26  C   UNL     1      11.336   5.050   3.188  0.00  0.00    +0.020 A 
ATOM     27  C   UNL     1      10.504   3.950   3.159  0.00  0.00    +0.012 A 
ATOM     28 CL   UNL     1      12.503   7.244   2.115  0.00  0.00    -0.084 Cl
ENDBRANCH  20  22
ENDBRANCH  16  17
ENDBRANCH   6  16
TORSDOF 5
