REMARK  Name = ZINC12459320
REMARK  5 active torsions:
REMARK  status: ('A' for Active; 'I' for Inactive)
REMARK    1  A    between atoms: C_1  and  O_2
REMARK    2  A    between atoms: O_2  and  C_3
REMARK    3  A    between atoms: C_5  and  C_10
REMARK    4  A    between atoms: C_24  and  C_25
REMARK    5  A    between atoms: C_24  and  N_56
REMARK                            x       y       z     vdW  Elec       q    Type
REMARK                         _______ _______ _______ _____ _____    ______ ____
ROOT
ATOM      1  C   UNL     1       1.895  -1.803   0.234  0.00  0.00    +0.011 C 
ATOM      2  C   UNL     1       1.514  -0.349   0.385  0.00  0.00    +0.011 A 
ATOM      3  C   UNL     1       2.420   0.651   0.379  0.00  0.00    -0.022 A 
ATOM      4  C   UNL     1       1.691   1.902   0.543  0.00  0.00    +0.003 A 
ATOM      5  C   UNL     1       2.060   3.248   0.613  0.00  0.00    +0.010 A 
ATOM      6  C   UNL     1       1.103   4.208   0.777  0.00  0.00    +0.001 A 
ATOM      7  C   UNL     1      -0.237   3.858   0.876  0.00  0.00    +0.002 A 
ATOM      8  C   UNL     1      -0.624   2.538   0.814  0.00  0.00    +0.026 A 
ATOM      9  C   UNL     1       0.332   1.543   0.642  0.00  0.00    +0.047 A 
ATOM     10  N   UNL     1       0.263   0.170   0.542  0.00  0.00    -0.359 N 
ATOM     11  H   UNL     1      -0.555  -0.350   0.578  0.00  0.00    +0.166 HD
ATOM     12  C   UNL     1       3.904   0.436   0.227  0.00  0.00    +0.019 C 
ATOM     13  C   UNL     1       4.194  -1.050   0.483  0.00  0.00    -0.072 C 
ATOM     14  N   UNL     1       3.264  -1.862  -0.334  0.00  0.00    +0.391 N 
ATOM     15  H   UNL     1       3.243  -1.484  -1.289  0.00  0.00    -0.080 HD
ENDROOT
BRANCH   1  18
ATOM     16  C   UNL     1      -0.973  -3.874  -1.093  0.00  0.00    +0.155 A 
ATOM     17  C   UNL     1      -0.095  -3.249  -0.220  0.00  0.00    +0.051 A 
ATOM     18  C   UNL     1       0.942  -2.482  -0.715  0.00  0.00    -0.052 A 
ATOM     19  C   UNL     1       1.102  -2.331  -2.080  0.00  0.00    +0.005 A 
ATOM     20  C   UNL     1       0.232  -2.956  -2.954  0.00  0.00    +0.042 A 
ATOM     21  C   UNL     1      -0.807  -3.726  -2.464  0.00  0.00    +0.165 A 
ATOM     22  F   UNL     1      -1.661  -4.333  -3.318  0.00  0.00    -0.202 F 
BRANCH  16  24
ATOM     23  C   UNL     1      -2.104  -4.736   0.813  0.00  0.00    +0.277 C 
ATOM     24  O   UNL     1      -1.994  -4.629  -0.607  0.00  0.00    -0.492 OA
ENDBRANCH  16  24
ENDBRANCH   1  18
BRANCH  14  25
ATOM     25  C   UNL     1       3.728  -3.264  -0.383  0.00  0.00    -0.039 C 
BRANCH  25  26
ATOM     26  C   UNL     1       5.018  -3.318  -1.161  0.00  0.00    -0.036 A 
ATOM     27  C   UNL     1       6.203  -3.467  -0.510  0.00  0.00    +0.004 A 
ATOM     28  C   UNL     1       7.406  -3.520  -1.212  0.00  0.00    +0.002 A 
ATOM     29  C   UNL     1       7.429  -3.425  -2.570  0.00  0.00    +0.030 A 
ATOM     30  C   UNL     1       6.225  -3.272  -3.278  0.00  0.00    +0.089 A 
ATOM     31  C   UNL     1       5.001  -3.223  -2.563  0.00  0.00    +0.091 A 
ATOM     32  N   UNL     1       3.852  -3.070  -3.232  0.00  0.00    -0.252 NA
ATOM     33  C   UNL     1       3.869  -2.978  -4.542  0.00  0.00    +0.131 A 
ATOM     34  C   UNL     1       5.074  -3.032  -5.246  0.00  0.00    +0.131 A 
ATOM     35  N   UNL     1       6.215  -3.175  -4.612  0.00  0.00    -0.252 NA
ENDBRANCH  25  26
ENDBRANCH  14  25
TORSDOF 4
