REMARK  Name = ZINC12892618
REMARK  13 active torsions:
REMARK  status: ('A' for Active; 'I' for Inactive)
REMARK    1  A    between atoms: C_1  and  C_2
REMARK    2  A    between atoms: C_6  and  C_29
REMARK    3  A    between atoms: C_7  and  C_11
REMARK    4  A    between atoms: C_11  and  C_12
REMARK    5  A    between atoms: N_14  and  C_15
REMARK    6  A    between atoms: C_15  and  C_16
REMARK    7  A    between atoms: C_16  and  C_17
REMARK    8  A    between atoms: C_25  and  O_27
REMARK    9  A    between atoms: O_27  and  C_28
REMARK   10  A    between atoms: C_30  and  O_32
REMARK   11  A    between atoms: O_32  and  C_33
REMARK   12  A    between atoms: C_33  and  C_34
REMARK   13  A    between atoms: C_34  and  C_36
REMARK                            x       y       z     vdW  Elec       q    Type
REMARK                         _______ _______ _______ _____ _____    ______ ____
ROOT
ATOM      1  C   UNL     1      -9.388  -5.260   0.319  0.00  0.00    +0.138 C 
ENDROOT
BRANCH   1   8
ATOM      2  C   UNL     1      -6.887 -12.524   2.465  0.00  0.00    +0.044 C 
ATOM      3  C   UNL     1      -7.192 -11.169   1.879  0.00  0.00    -0.043 A 
ATOM      4  C   UNL     1      -8.169 -10.381   2.455  0.00  0.00    +0.050 A 
ATOM      5  C   UNL     1      -8.458  -9.132   1.925  0.00  0.00    +0.143 A 
ATOM      6  C   UNL     1      -7.748  -8.677   0.799  0.00  0.00    +0.062 A 
ATOM      7  C   UNL     1      -8.065  -7.361   0.244  0.00  0.00    -0.026 A 
ATOM      8  C   UNL     1      -9.031  -6.624   0.851  0.00  0.00    +0.049 A 
ATOM      9  C   UNL     1      -9.704  -7.141   1.977  0.00  0.00    +0.341 A 
ATOM     10  O   UNL     1     -10.572  -6.473   2.509  0.00  0.00    -0.245 OA
ATOM     11  O   UNL     1      -9.412  -8.352   2.478  0.00  0.00    -0.422 OA
ATOM     12  C   UNL     1      -7.335  -6.834  -0.965  0.00  0.00    +0.045 C 
ATOM     13  C   UNL     1      -6.757  -9.486   0.223  0.00  0.00    +0.132 A 
ATOM     14  C   UNL     1      -6.488 -10.728   0.771  0.00  0.00    +0.050 A 
BRANCH  13  15
ATOM     15  O   UNL     1      -6.068  -9.055  -0.864  0.00  0.00    -0.487 OA
BRANCH  15  16
ATOM     16  C   UNL     1      -5.075  -9.935  -1.394  0.00  0.00    +0.259 C 
BRANCH  16  17
ATOM     17  C   UNL     1      -4.419  -9.291  -2.588  0.00  0.00    -0.043 C 
ATOM     18  C   UNL     1      -4.795  -8.099  -2.979  0.00  0.00    +0.011 C 
ATOM     19  C   UNL     1      -3.330 -10.019  -3.333  0.00  0.00    +0.042 C 
ENDBRANCH  16  17
ENDBRANCH  15  16
ENDBRANCH  13  15
ENDBRANCH   1   8
BRANCH   1  20
ATOM     20  C   UNL     1      -8.533  -4.218   0.993  0.00  0.00    +0.218 C 
ATOM     21  O   UNL     1      -7.714  -4.551   1.824  0.00  0.00    -0.275 OA
ATOM     22  N   UNL     1      -8.678  -2.917   0.673  0.00  0.00    -0.315 N 
ATOM     23  H   UNL     1      -9.332  -2.651   0.008  0.00  0.00    +0.149 HD
BRANCH  22  24
ATOM     24  C   UNL     1      -7.846  -1.904   1.328  0.00  0.00    +0.109 C 
BRANCH  24  25
ATOM     25  C   UNL     1      -8.208  -0.519   0.788  0.00  0.00    +0.056 C 
BRANCH  25  26
ATOM     26  C   UNL     1      -7.353   0.522   1.462  0.00  0.00    -0.021 A 
ATOM     27  C   UNL     1      -7.682   1.249   2.541  0.00  0.00    +0.087 A 
ATOM     28  N   UNL     1      -6.654   2.093   2.867  0.00  0.00    -0.360 N 
ATOM     29  H   UNL     1      -6.659   2.716   3.610  0.00  0.00    +0.165 HD
ATOM     30  C   UNL     1      -5.612   1.925   1.982  0.00  0.00    +0.050 A 
ATOM     31  C   UNL     1      -6.004   0.934   1.064  0.00  0.00    +0.003 A 
ATOM     32  C   UNL     1      -5.137   0.550   0.038  0.00  0.00    +0.014 A 
ATOM     33  C   UNL     1      -3.910   1.140  -0.070  0.00  0.00    +0.046 A 
ATOM     34  C   UNL     1      -3.515   2.121   0.835  0.00  0.00    +0.122 A 
ATOM     35  C   UNL     1      -4.357   2.510   1.861  0.00  0.00    +0.071 A 
BRANCH  34  36
ATOM     36  O   UNL     1      -2.290   2.698   0.713  0.00  0.00    -0.495 OA
ATOM     37  C   UNL     1      -1.466   2.248  -0.364  0.00  0.00    +0.277 C 
ENDBRANCH  34  36
ENDBRANCH  25  26
ENDBRANCH  24  25
ENDBRANCH  22  24
ENDBRANCH   1  20
TORSDOF 9
