REMARK  Name = ZINC06683913
REMARK  6 active torsions:
REMARK  status: ('A' for Active; 'I' for Inactive)
REMARK    1  A    between atoms: C_1  and  C_2
REMARK    2  A    between atoms: C_5  and  O_28
REMARK    3  A    between atoms: C_6  and  C_8
REMARK    4  A    between atoms: C_8  and  C_10
REMARK    5  A    between atoms: C_12  and  C_17
REMARK    6  A    between atoms: N_19  and  C_20
REMARK                            x       y       z     vdW  Elec       q    Type
REMARK                         _______ _______ _______ _____ _____    ______ ____
ROOT
ATOM      1  C   UNL     1      -4.856  -2.903  -0.413  0.00  0.00    +0.058 A 
ATOM      2  C   UNL     1      -3.662  -2.152  -0.299  0.00  0.00    +0.033 A 
ATOM      3  C   UNL     1      -2.449  -2.809  -0.427  0.00  0.00    +0.097 A 
ATOM      4  C   UNL     1      -2.463  -4.259  -0.684  0.00  0.00    +0.204 A 
ATOM      5  N   UNL     1      -1.340  -4.914  -0.817  0.00  0.00    -0.369 N 
ATOM      6  O   UNL     1      -3.643  -4.908  -0.775  0.00  0.00    -0.446 OA
ATOM      7  C   UNL     1      -4.804  -4.260  -0.648  0.00  0.00    +0.209 A 
ATOM      8  H   UNL     1      -1.354  -5.997  -1.009  0.00  0.00    +0.159 HD
ATOM      9  H   UNL     1      -0.380  -4.382  -0.738  0.00  0.00    +0.159 HD
ENDROOT
BRANCH   3  10
ATOM     10  C   UNL     1      -1.180  -2.075  -0.317  0.00  0.00    +0.253 C 
ATOM     11  O   UNL     1      -0.123  -2.667  -0.432  0.00  0.00    -0.270 OA
ATOM     12  N   UNL     1      -1.187  -0.747  -0.087  0.00  0.00    -0.281 N 
ATOM     13  H   UNL     1      -2.138  -0.226   0.095  0.00  0.00    +0.155 HD
BRANCH  12  14
ATOM     14  C   UNL     1       0.016  -0.032  -0.081  0.00  0.00    +0.035 A 
ATOM     15  C   UNL     1       0.055   1.267  -0.570  0.00  0.00    +0.026 A 
ATOM     16  C   UNL     1       1.242   1.972  -0.563  0.00  0.00    +0.041 A 
ATOM     17  C   UNL     1       2.394   1.385  -0.068  0.00  0.00    +0.142 A 
ATOM     18  C   UNL     1       2.358   0.089   0.422  0.00  0.00    +0.078 A 
ATOM     19  C   UNL     1       1.171  -0.620   0.416  0.00  0.00    +0.046 A 
ATOM     20 CL   UNL     1       3.804  -0.645   1.043  0.00  0.00    -0.081 Cl
ATOM     21  F   UNL     1       3.555   2.076  -0.061  0.00  0.00    -0.204 F 
ENDBRANCH  12  14
ENDBRANCH   3  10
BRANCH   1  22
ATOM     22  C   UNL     1      -6.161  -2.231  -0.281  0.00  0.00    +0.200 C 
ATOM     23  O   UNL     1      -6.213  -1.020  -0.176  0.00  0.00    -0.286 OA
BRANCH  22  29
ATOM     24  C   UNL     1     -10.269  -3.828  -2.614  0.00  0.00    +0.044 C 
ATOM     25  C   UNL     1      -9.383  -3.799  -1.395  0.00  0.00    -0.050 A 
ATOM     26  C   UNL     1      -9.738  -4.523  -0.268  0.00  0.00    +0.007 A 
ATOM     27  C   UNL     1      -8.935  -4.505   0.856  0.00  0.00    +0.046 A 
ATOM     28  C   UNL     1      -7.763  -3.765   0.861  0.00  0.00    +0.128 A 
ATOM     29  C   UNL     1      -7.403  -3.026  -0.276  0.00  0.00    +0.064 A 
ATOM     30  C   UNL     1      -8.225  -3.054  -1.406  0.00  0.00    +0.018 A 
BRANCH  28  31
ATOM     31  O   UNL     1      -6.971  -3.750   1.962  0.00  0.00    -0.506 OA
ATOM     32  H   UNL     1      -6.041  -3.162   1.963  0.00  0.00    +0.292 HD
ENDBRANCH  28  31
ENDBRANCH  22  29
ENDBRANCH   1  22
TORSDOF 5
