REMARK  Name = ZINC33115648
REMARK  6 active torsions:
REMARK  status: ('A' for Active; 'I' for Inactive)
REMARK    1  A    between atoms: C_1  and  C_2
REMARK    2  A    between atoms: C_5  and  C_8
REMARK    3  A    between atoms: N_22  and  S_23
REMARK    4  A    between atoms: S_23  and  C_26
REMARK    5  A    between atoms: C_31  and  O_32
REMARK    6  A    between atoms: O_32  and  C_33
REMARK                            x       y       z     vdW  Elec       q    Type
REMARK                         _______ _______ _______ _____ _____    ______ ____
ROOT
ATOM      1  C   UNL     1      -2.552   1.438   0.031  0.00  0.00    +0.157 C 
ATOM      2  C   UNL     1      -1.126   1.920  -0.038  0.00  0.00    +0.047 A 
ATOM      3  C   UNL     1      -0.000   1.190  -0.057  0.00  0.00    +0.025 A 
ATOM      4  C   UNL     1       1.085   2.090  -0.121  0.00  0.00    +0.020 A 
ATOM      5  C   UNL     1       0.575   3.342  -0.133  0.00  0.00    +0.091 A 
ATOM      6  N   UNL     1      -0.778   3.244  -0.079  0.00  0.00    -0.318 N 
ATOM      7  C   UNL     1      -1.740   4.265  -0.066  0.00  0.00    +0.051 A 
ATOM      8  C   UNL     1      -1.608   5.366   0.763  0.00  0.00    +0.026 A 
ATOM      9  C   UNL     1      -2.602   6.326   0.790  0.00  0.00    +0.002 A 
ATOM     10  C   UNL     1      -3.724   6.185  -0.006  0.00  0.00    +0.000 A 
ATOM     11  C   UNL     1      -3.848   5.096  -0.850  0.00  0.00    +0.007 A 
ATOM     12  C   UNL     1      -2.847   4.147  -0.900  0.00  0.00    -0.008 A 
ATOM     13  C   UNL     1      -2.900   3.026  -1.900  0.00  0.00    +0.147 C 
ATOM     14  N   UNL     1      -3.208   1.735  -1.258  0.00  0.00    -0.159 NA
ENDROOT
BRANCH   1  19
ATOM     15  C   UNL     1      -5.334   4.166   4.298  0.00  0.00    +0.044 C 
ATOM     16  C   UNL     1      -4.608   3.455   3.185  0.00  0.00    -0.050 A 
ATOM     17  C   UNL     1      -5.283   3.114   2.028  0.00  0.00    +0.004 A 
ATOM     18  C   UNL     1      -4.617   2.461   1.007  0.00  0.00    +0.006 A 
ATOM     19  C   UNL     1      -3.278   2.150   1.143  0.00  0.00    -0.023 A 
ATOM     20  C   UNL     1      -2.604   2.486   2.303  0.00  0.00    +0.006 A 
ATOM     21  C   UNL     1      -3.268   3.143   3.322  0.00  0.00    +0.004 A 
ENDBRANCH   1  19
BRANCH  14  22
ATOM     22  S   UNL     1      -4.254   0.657  -1.957  0.00  0.00    +0.066 S 
ATOM     23  O   UNL     1      -4.760  -0.157  -0.908  0.00  0.00    -0.153 OA
ATOM     24  O   UNL     1      -5.102   1.411  -2.813  0.00  0.00    -0.153 OA
BRANCH  22  25
ATOM     25  C   UNL     1      -3.298  -0.397  -2.997  0.00  0.00    +0.148 A 
ATOM     26  C   UNL     1      -3.193  -1.743  -2.706  0.00  0.00    +0.052 A 
ATOM     27  C   UNL     1      -2.444  -2.571  -3.523  0.00  0.00    +0.043 A 
ATOM     28  C   UNL     1      -1.797  -2.053  -4.631  0.00  0.00    +0.024 A 
ATOM     29  C   UNL     1      -1.899  -0.707  -4.924  0.00  0.00    +0.049 A 
ATOM     30  C   UNL     1      -2.655   0.124  -4.110  0.00  0.00    +0.146 A 
ATOM     31 CL   UNL     1      -2.314  -4.263  -3.156  0.00  0.00    -0.083 Cl
BRANCH  30  32
ATOM     32  O   UNL     1      -2.762   1.448  -4.400  0.00  0.00    -0.493 OA
ATOM     33  C   UNL     1      -2.073   1.915  -5.562  0.00  0.00    +0.277 C 
ENDBRANCH  30  32
ENDBRANCH  22  25
ENDBRANCH  14  22
TORSDOF 4
