REMARK  Name = ZINC10035392
REMARK  6 active torsions:
REMARK  status: ('A' for Active; 'I' for Inactive)
REMARK    1  A    between atoms: C_1  and  O_2
REMARK    2  A    between atoms: O_2  and  C_3
REMARK    3  A    between atoms: C_6  and  C_11
REMARK    4  A    between atoms: C_7  and  O_9
REMARK    5  A    between atoms: O_9  and  C_10
REMARK    6  A    between atoms: C_16  and  C_24
REMARK                            x       y       z     vdW  Elec       q    Type
REMARK                         _______ _______ _______ _____ _____    ______ ____
ROOT
ATOM      1  C   UNL     1       2.507  -2.495  -4.390  0.00  0.00    +0.035 C 
ATOM      2  C   UNL     1       1.813  -2.071  -5.686  0.00  0.00    +0.060 C 
ATOM      3  C   UNL     1       2.512  -2.703  -6.867  0.00  0.00    +0.020 C 
ATOM      4  C   UNL     1       3.836  -2.965  -6.830  0.00  0.00    +0.041 C 
ATOM      5  C   UNL     1       4.562  -3.599  -7.996  0.00  0.00    +0.175 C 
ATOM      6  N   UNL     1       3.726  -3.556  -9.188  0.00  0.00    -0.221 N 
ATOM      7  C   UNL     1       2.400  -3.273  -9.160  0.00  0.00    +0.218 A 
ATOM      8  N   UNL     1       1.950  -3.323 -10.383  0.00  0.00    -0.201 NA
ATOM      9  C   UNL     1       2.952  -3.627 -11.216  0.00  0.00    +0.247 A 
ATOM     10  N   UNL     1       4.055  -3.777 -10.525  0.00  0.00    -0.156 NA
ATOM     11  N   UNL     1       1.747  -2.990  -7.971  0.00  0.00    -0.287 N 
ATOM     12  C   UNL     1       4.601  -2.660  -5.690  0.00  0.00    +0.164 C 
ATOM     13  O   UNL     1       5.795  -2.887  -5.697  0.00  0.00    -0.292 OA
ATOM     14  C   UNL     1       3.974  -2.059  -4.463  0.00  0.00    +0.088 C 
ATOM     15  H   UNL     1       0.778  -2.994  -7.920  0.00  0.00    +0.155 HD
ENDROOT
BRANCH   5  16
ATOM     16  C   UNL     1       4.884  -5.034  -7.665  0.00  0.00    -0.017 A 
ATOM     17  C   UNL     1       3.863  -5.924  -7.388  0.00  0.00    +0.006 A 
ATOM     18  C   UNL     1       4.157  -7.240  -7.084  0.00  0.00    +0.001 A 
ATOM     19  C   UNL     1       5.471  -7.667  -7.057  0.00  0.00    +0.015 A 
ATOM     20  C   UNL     1       6.493  -6.776  -7.335  0.00  0.00    +0.018 A 
ATOM     21  C   UNL     1       6.198  -5.460  -7.644  0.00  0.00    +0.021 A 
ATOM     22 BR   UNL     1       8.291  -7.359  -7.298  0.00  0.00    -0.050 Br
ENDBRANCH   5  16
BRANCH   1  26
ATOM     23  C   UNL     1       0.606  -0.607  -1.056  0.00  0.00    +0.124 A 
ATOM     24  C   UNL     1       1.173   0.162  -2.062  0.00  0.00    +0.046 A 
ATOM     25  C   UNL     1       1.787  -0.451  -3.138  0.00  0.00    +0.011 A 
ATOM     26  C   UNL     1       1.837  -1.830  -3.215  0.00  0.00    -0.002 A 
ATOM     27  C   UNL     1       1.272  -2.603  -2.211  0.00  0.00    +0.127 A 
ATOM     28  C   UNL     1       0.660  -1.990  -1.127  0.00  0.00    +0.091 A 
BRANCH  23  30
ATOM     29  C   UNL     1      -0.017   1.425   0.010  0.00  0.00    +0.277 C 
ATOM     30  O   UNL     1       0.002  -0.004   0.002  0.00  0.00    -0.495 OA
ENDBRANCH  23  30
BRANCH  27  31
ATOM     31  O   UNL     1       1.322  -3.959  -2.286  0.00  0.00    -0.495 OA
ATOM     32  C   UNL     1       0.719  -4.691  -1.217  0.00  0.00    +0.277 C 
ENDBRANCH  27  31
ENDBRANCH   1  26
TORSDOF 4
