REMARK  Name = ZINC54624454
REMARK  15 active torsions:
REMARK  status: ('A' for Active; 'I' for Inactive)
REMARK    1  A    between atoms: C_1  and  C_2
REMARK    2  A    between atoms: C_2  and  C_3
REMARK    3  A    between atoms: C_3  and  O_4
REMARK    4  A    between atoms: O_4  and  C_5
REMARK    5  A    between atoms: C_5  and  C_7
REMARK    6  A    between atoms: C_8  and  C_37
REMARK    7  A    between atoms: C_12  and  S_28
REMARK    8  A    between atoms: C_15  and  C_17
REMARK    9  A    between atoms: C_20  and  O_26
REMARK   10  A    between atoms: C_21  and  O_23
REMARK   11  A    between atoms: O_23  and  C_24
REMARK   12  A    between atoms: C_24  and  C_25
REMARK   13  A    between atoms: O_26  and  C_27
REMARK   14  A    between atoms: S_28  and  C_29
REMARK   15  A    between atoms: C_29  and  C_30
REMARK                            x       y       z     vdW  Elec       q    Type
REMARK                         _______ _______ _______ _____ _____    ______ ____
ROOT
ATOM      1  C   UNL     1       1.587  -3.949  -2.309  0.00  0.00    +0.082 C 
ATOM      2  C   UNL     1       1.909  -4.499  -3.490  0.00  0.00    +0.020 C 
ATOM      3  N   UNL     1       1.792  -5.846  -3.725  0.00  0.00    -0.287 N 
ATOM      4  C   UNL     1       1.083  -6.598  -2.798  0.00  0.00    +0.219 A 
ATOM      5  N   UNL     1       0.635  -7.821  -2.875  0.00  0.00    -0.187 NA
ATOM      6  C   UNL     1      -0.003  -8.137  -1.739  0.00  0.00    +0.211 A 
ATOM      7  N   UNL     1       0.038  -7.105  -0.924  0.00  0.00    -0.141 NA
ATOM      8  N   UNL     1       0.738  -6.098  -1.586  0.00  0.00    -0.220 N 
ATOM      9  C   UNL     1       1.087  -4.752  -1.138  0.00  0.00    +0.179 C 
ATOM     10  C   UNL     1       2.417  -3.608  -4.594  0.00  0.00    +0.061 C 
ATOM     11  H   UNL     1       2.189  -6.257  -4.509  0.00  0.00    +0.155 HD
ENDROOT
BRANCH   9  12
ATOM     12  C   UNL     1       2.165  -4.830  -0.087  0.00  0.00    -0.015 A 
ATOM     13  C   UNL     1       3.387  -5.400  -0.393  0.00  0.00    +0.010 A 
ATOM     14  C   UNL     1       4.378  -5.475   0.567  0.00  0.00    +0.050 A 
ATOM     15  C   UNL     1       4.149  -4.978   1.840  0.00  0.00    +0.162 A 
ATOM     16  C   UNL     1       2.919  -4.403   2.148  0.00  0.00    +0.162 A 
ATOM     17  C   UNL     1       1.931  -4.327   1.179  0.00  0.00    +0.055 A 
BRANCH  15  18
ATOM     18  O   UNL     1       5.123  -5.051   2.786  0.00  0.00    -0.491 OA
ATOM     19  C   UNL     1       6.360  -5.653   2.399  0.00  0.00    +0.277 C 
ENDBRANCH  15  18
BRANCH  16  20
ATOM     20  O   UNL     1       2.689  -3.914   3.396  0.00  0.00    -0.489 OA
BRANCH  20  21
ATOM     21  C   UNL     1       1.404  -3.339   3.640  0.00  0.00    +0.226 C 
ATOM     22  C   UNL     1       1.333  -2.846   5.087  0.00  0.00    +0.048 C 
ENDBRANCH  20  21
ENDBRANCH  16  20
ENDBRANCH   9  12
BRANCH   1  23
ATOM     23  C   UNL     1       1.727  -2.551  -2.157  0.00  0.00    +0.339 C 
ATOM     24  O   UNL     1       0.741  -1.839  -2.143  0.00  0.00    -0.245 OA
BRANCH  23  25
ATOM     25  O   UNL     1       2.955  -2.007  -2.027  0.00  0.00    -0.461 OA
BRANCH  25  26
ATOM     26  C   UNL     1       3.023  -0.587  -1.876  0.00  0.00    +0.232 C 
BRANCH  26  28
ATOM     27  C   UNL     1       4.558   1.362  -1.583  0.00  0.00    +0.007 C 
ATOM     28  C   UNL     1       4.485  -0.158  -1.744  0.00  0.00    +0.038 C 
ENDBRANCH  26  28
ENDBRANCH  25  26
ENDBRANCH  23  25
ENDBRANCH   1  23
BRANCH   6  29
ATOM     29  S   UNL     1      -0.773  -9.684  -1.394  0.00  0.00    -0.080 S 
BRANCH  29  30
ATOM     30  C   UNL     1      -0.484 -10.662  -2.894  0.00  0.00    +0.114 C 
BRANCH  30  31
ATOM     31  C   UNL     1      -1.101 -12.028  -2.729  0.00  0.00    -0.019 A 
ATOM     32  C   UNL     1      -0.360 -13.060  -2.185  0.00  0.00    +0.006 A 
ATOM     33  C   UNL     1      -0.925 -14.312  -2.034  0.00  0.00    +0.000 A 
ATOM     34  C   UNL     1      -2.232 -14.533  -2.428  0.00  0.00    +0.001 A 
ATOM     35  C   UNL     1      -2.974 -13.502  -2.971  0.00  0.00    +0.020 A 
ATOM     36  C   UNL     1      -2.410 -12.247  -3.118  0.00  0.00    +0.045 A 
ATOM     37 CL   UNL     1      -3.344 -10.949  -3.795  0.00  0.00    -0.083 Cl
ENDBRANCH  30  31
ENDBRANCH  29  30
ENDBRANCH   6  29
TORSDOF 11
