REMARK  Name = ZINC04615421
REMARK  7 active torsions:
REMARK  status: ('A' for Active; 'I' for Inactive)
REMARK    1  A    between atoms: C_1  and  C_2
REMARK    2  A    between atoms: C_2  and  N_3
REMARK    3  A    between atoms: N_3  and  C_4
REMARK    4  A    between atoms: N_3  and  C_6
REMARK    5  A    between atoms: C_4  and  C_5
REMARK    6  A    between atoms: C_9  and  C_12
REMARK    7  A    between atoms: C_17  and  C_19
REMARK                            x       y       z     vdW  Elec       q    Type
REMARK                         _______ _______ _______ _____ _____    ______ ____
ROOT
ATOM      1  C   UNL     1       1.441   9.300   0.032  0.00  0.00    +0.041 C 
ATOM      2  C   UNL     1       0.900  10.570   0.021  0.00  0.00    +0.128 C 
ATOM      3  C   UNL     1      -0.530  10.925   0.031  0.00  0.00    +0.268 C 
ATOM      4  O   UNL     1      -1.479  10.162   0.050  0.00  0.00    -0.268 OA
ATOM      5  N   UNL     1      -0.566  12.275   0.014  0.00  0.00    -0.265 N 
ATOM      6  C   UNL     1       0.728  12.740  -0.004  0.00  0.00    +0.133 C 
ATOM      7  N   UNL     1       1.581  11.750  -0.006  0.00  0.00    -0.227 NA
ATOM      8  H   UNL     1      -1.367  12.822   0.015  0.00  0.00    +0.157 HD
ENDROOT
BRANCH   6   9
ATOM      9  C   UNL     1       1.104  14.169  -0.026  0.00  0.00    +0.015 A 
ATOM     10  C   UNL     1       2.450  14.539  -0.044  0.00  0.00    +0.012 A 
ATOM     11  C   UNL     1       2.795  15.874  -0.064  0.00  0.00    +0.016 A 
ATOM     12  C   UNL     1       1.809  16.847  -0.065  0.00  0.00    +0.018 A 
ATOM     13  C   UNL     1       0.472  16.486  -0.042  0.00  0.00    +0.016 A 
ATOM     14  C   UNL     1       0.115  15.154  -0.028  0.00  0.00    +0.012 A 
ATOM     15 BR   UNL     1       2.290  18.675  -0.091  0.00  0.00    -0.050 Br
ENDBRANCH   6   9
BRANCH   1  19
ATOM     16  C   UNL     1       5.620   8.779  -0.330  0.00  0.00    +0.030 A 
ATOM     17  C   UNL     1       5.088  10.061  -0.214  0.00  0.00    +0.024 A 
ATOM     18  C   UNL     1       3.739  10.235  -0.097  0.00  0.00    +0.010 A 
ATOM     19  C   UNL     1       2.888   9.120  -0.093  0.00  0.00    -0.023 A 
ATOM     20  C   UNL     1       3.429   7.830  -0.204  0.00  0.00    +0.010 A 
ATOM     21  C   UNL     1       4.780   7.668  -0.326  0.00  0.00    +0.024 A 
BRANCH  16  22
ATOM     22  N   UNL     1       6.994   8.608  -0.449  0.00  0.00    -0.330 N 
BRANCH  22  24
ATOM     23  C   UNL     1       7.638   6.873  -2.048  0.00  0.00    +0.024 C 
ATOM     24  C   UNL     1       7.557   7.260  -0.570  0.00  0.00    +0.102 C 
ENDBRANCH  22  24
BRANCH  22  25
ATOM     25  C   UNL     1       7.880   9.774  -0.452  0.00  0.00    +0.102 C 
ATOM     26  C   UNL     1       8.303  10.098   0.982  0.00  0.00    +0.024 C 
ENDBRANCH  22  25
ENDBRANCH  16  22
ENDBRANCH   1  19
TORSDOF 5
