REMARK  Name = ZINC36019782
REMARK  12 active torsions:
REMARK  status: ('A' for Active; 'I' for Inactive)
REMARK    1  A    between atoms: C_1  and  C_2
REMARK    2  A    between atoms: C_2  and  O_3
REMARK    3  A    between atoms: O_3  and  C_4
REMARK    4  A    between atoms: C_4  and  C_6
REMARK    5  A    between atoms: C_7  and  C_24
REMARK    6  A    between atoms: N_8  and  C_21
REMARK    7  A    between atoms: C_12  and  C_14
REMARK    8  A    between atoms: C_18  and  C_20
REMARK    9  A    between atoms: C_21  and  C_22
REMARK   10  A    between atoms: C_24  and  N_25
REMARK   11  A    between atoms: C_29  and  C_32
REMARK   12  A    between atoms: C_33  and  C_35
REMARK                            x       y       z     vdW  Elec       q    Type
REMARK                         _______ _______ _______ _____ _____    ______ ____
ROOT
ATOM      1  C   UNL     1      -2.732  -2.582  -0.465  0.00  0.00    +0.080 C 
ATOM      2  C   UNL     1      -3.003  -3.905  -0.490  0.00  0.00    +0.041 C 
ATOM      3  N   UNL     1      -4.288  -4.362  -0.416  0.00  0.00    -0.254 N 
ATOM      4  C   UNL     1      -5.357  -3.562  -0.317  0.00  0.00    +0.307 C 
ATOM      5  O   UNL     1      -6.463  -4.063  -0.258  0.00  0.00    -0.252 OA
ATOM      6  N   UNL     1      -5.246  -2.219  -0.281  0.00  0.00    -0.288 N 
ATOM      7  C   UNL     1      -3.901  -1.625  -0.347  0.00  0.00    +0.144 C 
ATOM      8  H   UNL     1      -6.034  -1.658  -0.209  0.00  0.00    +0.151 HD
ENDROOT
BRANCH   7   9
ATOM      9  C   UNL     1      -3.695  -0.790   0.890  0.00  0.00    -0.022 A 
ATOM     10  C   UNL     1      -4.007  -1.308   2.133  0.00  0.00    +0.006 A 
ATOM     11  C   UNL     1      -3.818  -0.542   3.268  0.00  0.00    +0.001 A 
ATOM     12  C   UNL     1      -3.316   0.742   3.161  0.00  0.00    +0.003 A 
ATOM     13  C   UNL     1      -3.003   1.259   1.918  0.00  0.00    -0.050 A 
ATOM     14  C   UNL     1      -3.188   0.492   0.783  0.00  0.00    +0.009 A 
ATOM     15  C   UNL     1      -2.457   2.659   1.800  0.00  0.00    +0.044 C 
ENDBRANCH   7   9
BRANCH   1  16
ATOM     16  C   UNL     1      -1.402  -2.107  -0.540  0.00  0.00    +0.339 C 
ATOM     17  O   UNL     1      -0.843  -1.702   0.462  0.00  0.00    -0.245 OA
BRANCH  16  18
ATOM     18  O   UNL     1      -0.753  -2.102  -1.724  0.00  0.00    -0.462 OA
BRANCH  18  20
ATOM     19  C   UNL     1       1.155  -1.680  -3.145  0.00  0.00    +0.048 C 
ATOM     20  C   UNL     1       0.588  -1.608  -1.726  0.00  0.00    +0.229 C 
ENDBRANCH  18  20
ENDBRANCH  16  18
ENDBRANCH   1  16
BRANCH   3  21
ATOM     21  C   UNL     1      -4.509  -5.810  -0.449  0.00  0.00    +0.141 C 
BRANCH  21  22
ATOM     22  C   UNL     1      -4.487  -6.353   0.957  0.00  0.00    -0.015 C 
ATOM     23  C   UNL     1      -5.502  -7.050   1.406  0.00  0.00    +0.005 C 
ENDBRANCH  21  22
ENDBRANCH   3  21
BRANCH   2  24
ATOM     24  C   UNL     1      -1.870  -4.892  -0.601  0.00  0.00    +0.136 C 
BRANCH  24  25
ATOM     25  N   UNL     1      -1.768  -5.662   0.646  0.00  0.00    -0.294 NA
ATOM     26  C   UNL     1      -1.379  -4.797   1.769  0.00  0.00    +0.104 C 
ATOM     27  C   UNL     1      -1.460  -5.594   3.075  0.00  0.00    +0.124 C 
ATOM     28  N   UNL     1      -0.657  -6.818   2.926  0.00  0.00    -0.292 N 
ATOM     29  C   UNL     1      -0.895  -7.667   1.749  0.00  0.00    +0.087 C 
ATOM     30  C   UNL     1      -0.837  -6.788   0.494  0.00  0.00    +0.107 C 
ATOM     31  C   UNL     1       0.181  -8.752   1.671  0.00  0.00    +0.029 C 
ATOM     32  C   UNL     1       0.272  -7.152   3.843  0.00  0.00    +0.254 C 
ATOM     33  O   UNL     1       1.012  -8.097   3.643  0.00  0.00    -0.269 OA
BRANCH  32  34
ATOM     34  C   UNL     1       0.390  -6.378   5.082  0.00  0.00    +0.074 A 
ATOM     35  C   UNL     1       1.370  -6.439   6.061  0.00  0.00    +0.021 A 
ATOM     36  C   UNL     1       1.210  -5.579   7.121  0.00  0.00    +0.008 A 
ATOM     37  C   UNL     1       0.138  -4.749   7.140  0.00  0.00    +0.046 A 
ATOM     38  S   UNL     1      -0.684  -5.105   5.719  0.00  0.00    -0.092 S 
ENDBRANCH  32  34
ENDBRANCH  24  25
ENDBRANCH   2  24
TORSDOF 9
