REMARK  Name = ZINC64626479
REMARK  9 active torsions:
REMARK  status: ('A' for Active; 'I' for Inactive)
REMARK    1  A    between atoms: C_1  and  O_2
REMARK    2  A    between atoms: O_2  and  C_3
REMARK    3  A    between atoms: C_3  and  C_5
REMARK    4  A    between atoms: C_8  and  N_20
REMARK    5  A    between atoms: N_11  and  C_12
REMARK    6  A    between atoms: C_12  and  C_13
REMARK    7  A    between atoms: C_18  and  O_19
REMARK    8  A    between atoms: C_21  and  C_23
REMARK    9  A    between atoms: C_25  and  C_34
REMARK                            x       y       z     vdW  Elec       q    Type
REMARK                         _______ _______ _______ _____ _____    ______ ____
ROOT
ATOM      1  N   UNL     1      -0.705  -5.122  -1.791  0.00  0.00    -0.309 N 
ATOM      2  C   UNL     1      -0.522  -6.410  -2.141  0.00  0.00    +0.240 C 
ATOM      3  O   UNL     1      -0.987  -6.828  -3.181  0.00  0.00    -0.273 OA
ATOM      4  H   UNL     1      -0.396  -4.805  -0.928  0.00  0.00    +0.149 HD
ENDROOT
BRANCH   2   5
ATOM      5  C   UNL     1       0.259  -7.332  -1.241  0.00  0.00    +0.198 C 
ATOM      6  C   UNL     1       1.726  -7.296  -1.606  0.00  0.00    -0.000 C 
ATOM      7  C   UNL     1       2.052  -8.590  -1.977  0.00  0.00    +0.006 A 
ATOM      8  C   UNL     1       3.260  -9.184  -2.417  0.00  0.00    +0.030 A 
ATOM      9  C   UNL     1       3.288 -10.505  -2.720  0.00  0.00    +0.042 A 
ATOM     10  C   UNL     1       2.147 -11.308  -2.608  0.00  0.00    +0.022 A 
ATOM     11  C   UNL     1       0.958 -10.810  -2.194  0.00  0.00    +0.027 A 
ATOM     12  C   UNL     1       0.847  -9.433  -1.859  0.00  0.00    +0.044 A 
ATOM     13  N   UNL     1      -0.175  -8.719  -1.439  0.00  0.00    -0.370 N 
ATOM     14 CL   UNL     1       4.776 -11.218  -3.258  0.00  0.00    -0.084 Cl
ATOM     15  H   UNL     1      -1.072  -9.055  -1.285  0.00  0.00    +0.161 HD
BRANCH   6  16
ATOM     16  C   UNL     1       2.618  -6.135  -1.574  0.00  0.00    -0.019 A 
ATOM     17  C   UNL     1       3.340  -5.768  -2.719  0.00  0.00    +0.008 A 
ATOM     18  C   UNL     1       4.175  -4.673  -2.680  0.00  0.00    +0.001 A 
ATOM     19  C   UNL     1       4.303  -3.936  -1.514  0.00  0.00    +0.000 A 
ATOM     20  C   UNL     1       3.594  -4.291  -0.379  0.00  0.00    +0.001 A 
ATOM     21  C   UNL     1       2.750  -5.379  -0.401  0.00  0.00    +0.008 A 
ENDBRANCH   6  16
ENDBRANCH   2   5
BRANCH   1  24
ATOM     22  C   UNL     1      -2.079  -2.208  -1.533  0.00  0.00    +0.168 C 
ATOM     23  C   UNL     1      -0.932  -2.744  -2.428  0.00  0.00    +0.054 C 
ATOM     24  C   UNL     1      -1.370  -4.199  -2.715  0.00  0.00    +0.089 C 
ATOM     25  C   UNL     1      -2.893  -4.214  -2.485  0.00  0.00    +0.107 C 
ATOM     26  N   UNL     1      -3.292  -2.837  -2.116  0.00  0.00    -0.284 NA
BRANCH  22  27
ATOM     27  C   UNL     1      -2.163  -0.706  -1.621  0.00  0.00    +0.324 C 
ATOM     28  O   UNL     1      -3.151  -0.183  -2.080  0.00  0.00    -0.249 OA
BRANCH  27  30
ATOM     29  C   UNL     1      -1.290   1.467  -1.304  0.00  0.00    +0.280 C 
ATOM     30  O   UNL     1      -1.142   0.050  -1.190  0.00  0.00    -0.467 OA
ENDBRANCH  27  30
ENDBRANCH  22  27
BRANCH  26  31
ATOM     31  C   UNL     1      -4.396  -2.846  -1.147  0.00  0.00    +0.124 C 
BRANCH  31  32
ATOM     32  C   UNL     1      -5.669  -3.260  -1.841  0.00  0.00    +0.008 A 
ATOM     33  C   UNL     1      -6.583  -2.303  -2.236  0.00  0.00    +0.008 A 
ATOM     34  C   UNL     1      -7.751  -2.682  -2.872  0.00  0.00    +0.001 A 
ATOM     35  C   UNL     1      -8.006  -4.020  -3.114  0.00  0.00    +0.004 A 
ATOM     36  C   UNL     1      -7.095  -4.980  -2.721  0.00  0.00    +0.046 A 
ATOM     37  C   UNL     1      -5.920  -4.602  -2.087  0.00  0.00    +0.121 A 
BRANCH  37  38
ATOM     38  O   UNL     1      -5.019  -5.545  -1.705  0.00  0.00    -0.506 OA
ATOM     39  H   UNL     1      -5.162  -5.886  -0.812  0.00  0.00    +0.292 HD
ENDBRANCH  37  38
ENDBRANCH  31  32
ENDBRANCH  26  31
ENDBRANCH   1  24
TORSDOF 8
