REMARK  Name = ZINC39357786
REMARK  13 active torsions:
REMARK  status: ('A' for Active; 'I' for Inactive)
REMARK    1  A    between atoms: C_1  and  C_2
REMARK    2  A    between atoms: C_7  and  C_8
REMARK    3  A    between atoms: N_10  and  C_11
REMARK    4  A    between atoms: C_16  and  C_26
REMARK    5  A    between atoms: C_20  and  C_22
REMARK    6  A    between atoms: C_22  and  O_24
REMARK    7  A    between atoms: O_24  and  C_25
REMARK    8  A    between atoms: C_26  and  N_27
REMARK    9  A    between atoms: N_27  and  C_28
REMARK   10  A    between atoms: N_27  and  C_29
REMARK   11  A    between atoms: C_29  and  C_30
REMARK   12  A    between atoms: C_31  and  C_37
REMARK   13  A    between atoms: C_34  and  C_36
REMARK                            x       y       z     vdW  Elec       q    Type
REMARK                         _______ _______ _______ _____ _____    ______ ____
ROOT
ATOM      1  C   UNL     1       0.846  -0.334   5.475  0.00  0.00    +0.130 C 
ATOM      2  C   UNL     1      -0.573  -0.105   5.931  0.00  0.00    +0.006 A 
ATOM      3  C   UNL     1      -1.506   0.767   5.364  0.00  0.00    +0.010 A 
ATOM      4  C   UNL     1      -2.779   0.844   5.901  0.00  0.00    +0.022 A 
ATOM      5  C   UNL     1      -3.116   0.061   6.987  0.00  0.00    +0.026 A 
ATOM      6  N   UNL     1      -2.222  -0.753   7.516  0.00  0.00    -0.247 NA
ATOM      7  C   UNL     1      -0.997  -0.845   7.035  0.00  0.00    +0.103 A 
ATOM      8  S   UNL     1       0.404  -1.807   7.562  0.00  0.00    -0.089 S 
ATOM      9  C   UNL     1       1.712  -0.952   6.595  0.00  0.00    +0.186 C 
ENDROOT
BRANCH   1  12
ATOM     10  C   UNL     1       0.730  -0.740   3.075  0.00  0.00    +0.245 C 
ATOM     11  O   UNL     1       0.640   0.460   2.906  0.00  0.00    -0.270 OA
ATOM     12  N   UNL     1       0.837  -1.239   4.323  0.00  0.00    -0.303 N 
ATOM     13  H   UNL     1       0.909  -2.197   4.458  0.00  0.00    +0.150 HD
BRANCH  10  20
ATOM     14  C   UNL     1       0.514   0.348   0.403  0.00  0.00    +0.044 C 
ATOM     15  C   UNL     1       0.618  -1.140   0.619  0.00  0.00    -0.038 A 
ATOM     16  C   UNL     1       0.616  -1.998  -0.462  0.00  0.00    +0.004 A 
ATOM     17  C   UNL     1       0.711  -3.364  -0.266  0.00  0.00    +0.000 A 
ATOM     18  C   UNL     1       0.808  -3.880   1.015  0.00  0.00    +0.001 A 
ATOM     19  C   UNL     1       0.811  -3.033   2.104  0.00  0.00    +0.013 A 
ATOM     20  C   UNL     1       0.721  -1.654   1.912  0.00  0.00    +0.040 A 
ENDBRANCH  10  20
ENDBRANCH   1  12
BRANCH   9  21
ATOM     21  C   UNL     1       2.711  -1.933   6.038  0.00  0.00    +0.322 C 
ATOM     22  O   UNL     1       3.770  -1.540   5.610  0.00  0.00    -0.250 OA
BRANCH  21  23
ATOM     23  O   UNL     1       2.425  -3.244   6.019  0.00  0.00    -0.467 OA
ATOM     24  C   UNL     1       3.418  -4.117   5.477  0.00  0.00    +0.280 C 
ENDBRANCH  21  23
ENDBRANCH   9  21
BRANCH   5  25
ATOM     25  C   UNL     1      -4.505   0.137   7.568  0.00  0.00    -0.022 C 
BRANCH  25  26
ATOM     26  N   UNL     1      -5.337  -0.926   6.988  0.00  0.00    +0.384 N 
ATOM     27  C   UNL     1      -5.505  -0.686   5.549  0.00  0.00    -0.095 C 
ATOM     28  H   UNL     1      -4.889  -1.819   7.130  0.00  0.00    -0.081 HD
BRANCH  26  29
ATOM     29  C   UNL     1      -6.653  -0.929   7.641  0.00  0.00    -0.043 C 
BRANCH  29  30
ATOM     30  C   UNL     1      -7.466  -2.088   7.126  0.00  0.00    -0.038 C 
ATOM     31  C   UNL     1      -8.395  -2.080   6.167  0.00  0.00    +0.060 C 
ATOM     32  N   UNL     1      -8.907  -3.317   5.984  0.00  0.00    -0.159 NA
ATOM     33  N   UNL     1      -8.428  -4.184   6.720  0.00  0.00    -0.180 NA
ATOM     34  C   UNL     1      -7.415  -3.538   7.573  0.00  0.00    +0.151 C 
ATOM     35  C   UNL     1      -7.797  -3.663   9.049  0.00  0.00    +0.039 C 
ATOM     36  C   UNL     1      -8.815  -0.857   5.394  0.00  0.00    +0.067 C 
ENDBRANCH  29  30
ENDBRANCH  26  29
ENDBRANCH  25  26
ENDBRANCH   5  25
TORSDOF 8
