REMARK  Name = ZINC44323375
REMARK  10 active torsions:
REMARK  status: ('A' for Active; 'I' for Inactive)
REMARK    1  A    between atoms: C_1  and  C_2
REMARK    2  A    between atoms: C_2  and  C_3
REMARK    3  A    between atoms: C_5  and  C_11
REMARK    4  A    between atoms: C_6  and  O_10
REMARK    5  A    between atoms: C_11  and  CA_12
REMARK    6  A    between atoms: CA_12  and  C_14
REMARK    7  A    between atoms: CA_12  and  N_17
REMARK    8  A    between atoms: C_18  and  O_20
REMARK    9  A    between atoms: O_20  and  C_21
REMARK   10  A    between atoms: C_21  and  C_22
REMARK                            x       y       z     vdW  Elec       q    Type
REMARK                         _______ _______ _______ _____ _____    ______ ____
ROOT
ATOM      1  N   UNL     1      -0.593   0.968  -5.139  0.00  0.00    -0.267 N 
ATOM      2  C   UNL     1      -0.165   2.195  -5.497  0.00  0.00    +0.401 C 
ATOM      3  O   UNL     1       0.722   2.314  -6.319  0.00  0.00    -0.226 OA
ATOM      4  H   UNL     1      -1.300   0.873  -4.483  0.00  0.00    +0.153 HD
ENDROOT
BRANCH   1   5
ATOM      5  CA  UNL     1       0.011  -0.223  -5.743  0.00  0.00    +0.193 C 
BRANCH   5   6
ATOM      6  C   UNL     1      -0.672  -0.523  -7.052  0.00  0.00    +0.376 C 
ATOM      7  O   UNL     1      -1.691   0.072  -7.359  0.00  0.00    -0.244 OA
ATOM      8  OXT UNL     1      -0.206  -1.362  -7.804  0.00  0.00    -0.244 OA
ENDBRANCH   5   6
BRANCH   5   9
ATOM      9  C   UNL     1      -0.154  -1.413  -4.796  0.00  0.00    +0.073 C 
BRANCH   9  12
ATOM     10  C   UNL     1       0.707  -0.490  -1.238  0.00  0.00    -0.046 A 
ATOM     11  C   UNL     1      -0.012  -0.718  -2.397  0.00  0.00    +0.011 A 
ATOM     12  C   UNL     1       0.632  -1.164  -3.535  0.00  0.00    -0.002 A 
ATOM     13  C   UNL     1       2.001  -1.383  -3.515  0.00  0.00    +0.138 A 
ATOM     14  C   UNL     1       2.722  -1.153  -2.351  0.00  0.00    +0.083 A 
ATOM     15  C   UNL     1       2.073  -0.702  -1.216  0.00  0.00    +0.027 A 
ATOM     16 CL   UNL     1       4.436  -1.425  -2.322  0.00  0.00    -0.080 Cl
BRANCH  10  18
ATOM     17  C   UNL     1      -0.019   1.526   0.010  0.00  0.00    +0.009 C 
ATOM     18  C   UNL     1       0.002  -0.004   0.002  0.00  0.00    +0.032 C 
ENDBRANCH  10  18
BRANCH  13  19
ATOM     19  O   UNL     1       2.637  -1.822  -4.634  0.00  0.00    -0.505 OA
ATOM     20  H   UNL     1       2.958  -1.113  -5.208  0.00  0.00    +0.292 HD
ENDBRANCH  13  19
ENDBRANCH   9  12
ENDBRANCH   5   9
ENDBRANCH   1   5
BRANCH   2  21
ATOM     21  O   UNL     1      -0.720   3.289  -4.942  0.00  0.00    -0.449 OA
BRANCH  21  22
ATOM     22  C   UNL     1      -0.217   4.558  -5.367  0.00  0.00    +0.246 C 
BRANCH  22  23
ATOM     23  C   UNL     1      -0.964   5.674  -4.633  0.00  0.00    +0.088 C 
ATOM     24  C   UNL     1      -2.399   5.729  -5.094  0.00  0.00    -0.029 A 
ATOM     25  C   UNL     1      -3.424   4.808  -5.043  0.00  0.00    +0.005 A 
ATOM     26  C   UNL     1      -4.670   5.129  -5.551  0.00  0.00    +0.000 A 
ATOM     27  C   UNL     1      -4.891   6.375  -6.110  0.00  0.00    +0.001 A 
ATOM     28  C   UNL     1      -3.872   7.303  -6.165  0.00  0.00    +0.009 A 
ATOM     29  C   UNL     1      -2.612   6.986  -5.654  0.00  0.00    -0.014 A 
ATOM     30  C   UNL     1      -1.359   7.777  -5.583  0.00  0.00    -0.014 A 
ATOM     31  C   UNL     1      -0.363   7.015  -4.978  0.00  0.00    -0.029 A 
ATOM     32  C   UNL     1       0.900   7.537  -4.799  0.00  0.00    +0.005 A 
ATOM     33  C   UNL     1       1.184   8.824  -5.220  0.00  0.00    +0.000 A 
ATOM     34  C   UNL     1       0.201   9.590  -5.821  0.00  0.00    +0.001 A 
ATOM     35  C   UNL     1      -1.066   9.075  -6.006  0.00  0.00    +0.009 A 
ENDBRANCH  22  23
ENDBRANCH  21  22
ENDBRANCH   2  21
TORSDOF 9
