REMARK  Name = ZINC09354535
REMARK  8 active torsions:
REMARK  status: ('A' for Active; 'I' for Inactive)
REMARK    1  A    between atoms: C_1  and  O_2
REMARK    2  A    between atoms: O_2  and  C_3
REMARK    3  A    between atoms: C_6  and  C_11
REMARK    4  A    between atoms: C_8  and  O_9
REMARK    5  A    between atoms: O_9  and  C_10
REMARK    6  A    between atoms: C_14  and  C_17
REMARK    7  A    between atoms: C_18  and  C_32
REMARK    8  A    between atoms: C_21  and  N_29
REMARK                            x       y       z     vdW  Elec       q    Type
REMARK                         _______ _______ _______ _____ _____    ______ ____
ROOT
ATOM      1  C   UNL     1      -7.923  -1.667  -2.081  0.00  0.00    +0.070 A 
ATOM      2  C   UNL     1      -7.638  -1.863  -3.521  0.00  0.00    +0.005 A 
ATOM      3  C   UNL     1      -8.584  -1.384  -4.458  0.00  0.00    +0.009 A 
ATOM      4  C   UNL     1      -8.353  -1.549  -5.837  0.00  0.00    +0.043 A 
ATOM      5  C   UNL     1      -9.266  -1.088  -6.739  0.00  0.00    +0.127 A 
ATOM      6  C   UNL     1     -10.425  -0.454  -6.306  0.00  0.00    +0.035 A 
ATOM      7  C   UNL     1     -10.674  -0.279  -4.960  0.00  0.00    +0.028 A 
ATOM      8  C   UNL     1      -9.761  -0.740  -4.016  0.00  0.00    +0.050 A 
ATOM      9  N   UNL     1     -10.025  -0.558  -2.674  0.00  0.00    -0.322 N 
ATOM     10  H   UNL     1     -10.847  -0.111  -2.417  0.00  0.00    +0.169 HD
ATOM     11  C   UNL     1      -9.190  -0.983  -1.711  0.00  0.00    +0.259 A 
ATOM     12  O   UNL     1      -9.467  -0.804  -0.542  0.00  0.00    -0.267 OA
ENDROOT
BRANCH   1  15
ATOM     13  C   UNL     1      -5.393  -2.285   0.596  0.00  0.00    +0.125 C 
ATOM     14  C   UNL     1      -6.106  -1.245  -0.295  0.00  0.00    +0.086 C 
ATOM     15  C   UNL     1      -7.044  -2.110  -1.115  0.00  0.00    +0.074 C 
ATOM     16  N   UNL     1      -6.866  -3.382  -0.732  0.00  0.00    -0.190 NA
ATOM     17  N   UNL     1      -5.991  -3.563   0.186  0.00  0.00    -0.261 N 
ATOM     18  H   UNL     1      -5.755  -4.426   0.561  0.00  0.00    +0.169 HD
BRANCH  13  22
ATOM     19  C   UNL     1      -6.183  -1.516   4.729  0.00  0.00    +0.162 A 
ATOM     20  C   UNL     1      -7.141  -2.134   3.940  0.00  0.00    +0.050 A 
ATOM     21  C   UNL     1      -6.883  -2.381   2.605  0.00  0.00    +0.009 A 
ATOM     22  C   UNL     1      -5.670  -2.013   2.053  0.00  0.00    -0.022 A 
ATOM     23  C   UNL     1      -4.710  -1.397   2.834  0.00  0.00    +0.055 A 
ATOM     24  C   UNL     1      -4.965  -1.141   4.171  0.00  0.00    +0.162 A 
BRANCH  19  26
ATOM     25  C   UNL     1      -7.708  -1.685   6.546  0.00  0.00    +0.277 C 
ATOM     26  O   UNL     1      -6.436  -1.272   6.042  0.00  0.00    -0.491 OA
ENDBRANCH  19  26
BRANCH  24  27
ATOM     27  O   UNL     1      -4.024  -0.529   4.940  0.00  0.00    -0.491 OA
ATOM     28  C   UNL     1      -2.796  -0.172   4.301  0.00  0.00    +0.277 C 
ENDBRANCH  24  27
ENDBRANCH  13  22
ENDBRANCH   1  15
BRANCH   2  29
ATOM     29  C   UNL     1      -6.411  -2.534  -3.963  0.00  0.00    -0.016 A 
ATOM     30  C   UNL     1      -5.160  -1.930  -3.754  0.00  0.00    +0.008 A 
ATOM     31  C   UNL     1      -4.015  -2.568  -4.173  0.00  0.00    +0.001 A 
ATOM     32  C   UNL     1      -4.093  -3.803  -4.799  0.00  0.00    +0.000 A 
ATOM     33  C   UNL     1      -5.322  -4.407  -5.011  0.00  0.00    +0.001 A 
ATOM     34  C   UNL     1      -6.479  -3.788  -4.594  0.00  0.00    +0.008 A 
ENDBRANCH   2  29
BRANCH   5  35
ATOM     35  N   UNL     1      -9.021  -1.263  -8.188  0.00  0.00    +0.056 N 
ATOM     36  O   UNL     1      -7.924  -1.862  -8.602  0.00  0.00    -0.126 OA
ATOM     37  O   UNL     1      -9.899  -0.819  -9.062  0.00  0.00    -0.126 OA
ENDBRANCH   5  35
TORSDOF 6
