REMARK  Name = ZINC15959172
REMARK  8 active torsions:
REMARK  status: ('A' for Active; 'I' for Inactive)
REMARK    1  A    between atoms: C_1  and  C_2
REMARK    2  A    between atoms: C_2  and  C_3
REMARK    3  A    between atoms: C_14  and  C_17
REMARK    4  A    between atoms: C_17  and  C_19
REMARK    5  A    between atoms: C_17  and  O_20
REMARK    6  A    between atoms: N_23  and  C_26
REMARK    7  A    between atoms: C_26  and  C_27
REMARK    8  A    between atoms: C_27  and  C_28
REMARK                            x       y       z     vdW  Elec       q    Type
REMARK                         _______ _______ _______ _____ _____    ______ ____
ROOT
ATOM      1  C   UNL     1      -1.412  -0.526   0.013  0.00  0.00    -0.047 A 
ATOM      2  C   UNL     1      -2.053  -0.767   1.214  0.00  0.00    +0.005 A 
ATOM      3  C   UNL     1      -3.347  -1.244   1.230  0.00  0.00    +0.024 A 
ATOM      4  C   UNL     1      -4.018  -1.488   0.034  0.00  0.00    +0.039 A 
ATOM      5  C   UNL     1      -3.363  -1.242  -1.169  0.00  0.00    +0.004 A 
ATOM      6  C   UNL     1      -2.074  -0.759  -1.179  0.00  0.00    +0.011 A 
ATOM      7  C   UNL     1      -4.341  -1.604  -2.250  0.00  0.00    +0.136 C 
ATOM      8  C   UNL     1      -4.638  -0.412  -3.167  0.00  0.00    +0.122 C 
ATOM      9  C   UNL     1      -3.732  -0.637  -4.410  0.00  0.00    +0.109 C 
ATOM     10  C   UNL     1      -2.970  -1.946  -4.111  0.00  0.00    +0.096 C 
ATOM     11  N   UNL     1      -3.809  -2.665  -3.126  0.00  0.00    -0.293 NA
ATOM     12  C   UNL     1      -2.776   0.534  -4.360  0.00  0.00    +0.227 C 
ATOM     13  O   UNL     1      -1.891   0.749  -5.159  0.00  0.00    -0.275 OA
ATOM     14  N   UNL     1      -3.060   1.295  -3.296  0.00  0.00    -0.241 N 
ATOM     15  C   UNL     1      -4.099   0.858  -2.549  0.00  0.00    +0.228 C 
ATOM     16  O   UNL     1      -4.530   1.387  -1.547  0.00  0.00    -0.275 OA
ATOM     17  C   UNL     1      -5.577  -2.061  -1.524  0.00  0.00    +0.243 C 
ATOM     18  O   UNL     1      -6.612  -2.444  -2.026  0.00  0.00    -0.273 OA
ATOM     19  N   UNL     1      -5.309  -1.963  -0.207  0.00  0.00    -0.283 N 
ATOM     20  H   UNL     1      -3.264  -3.330  -2.597  0.00  0.00    +0.124 HD
ATOM     21  H   UNL     1      -5.940  -2.195   0.492  0.00  0.00    +0.155 HD
ENDROOT
BRANCH   1  23
ATOM     22  C   UNL     1      -0.019   1.526   0.010  0.00  0.00    +0.009 C 
ATOM     23  C   UNL     1       0.002  -0.004   0.002  0.00  0.00    +0.032 C 
ENDBRANCH   1  23
BRANCH  10  24
ATOM     24  C   UNL     1      -2.798  -2.766  -5.391  0.00  0.00    +0.129 C 
ATOM     25  C   UNL     1      -2.153  -4.111  -5.052  0.00  0.00    +0.039 C 
BRANCH  24  26
ATOM     26  O   UNL     1      -4.077  -2.988  -5.990  0.00  0.00    -0.390 OA
ATOM     27  H   UNL     1      -4.044  -3.503  -6.808  0.00  0.00    +0.210 HD
ENDBRANCH  24  26
ENDBRANCH  10  24
BRANCH  14  28
ATOM     28  C   UNL     1      -2.311   2.510  -2.969  0.00  0.00    +0.121 C 
BRANCH  28  29
ATOM     29  C   UNL     1      -2.963   3.712  -3.655  0.00  0.00    +0.054 C 
BRANCH  29  30
ATOM     30  C   UNL     1      -2.192   4.962  -3.319  0.00  0.00    -0.046 A 
ATOM     31  C   UNL     1      -2.530   5.703  -2.202  0.00  0.00    +0.004 A 
ATOM     32  C   UNL     1      -1.822   6.850  -1.893  0.00  0.00    +0.000 A 
ATOM     33  C   UNL     1      -0.776   7.256  -2.701  0.00  0.00    +0.000 A 
ATOM     34  C   UNL     1      -0.438   6.514  -3.817  0.00  0.00    +0.000 A 
ATOM     35  C   UNL     1      -1.142   5.365  -4.124  0.00  0.00    +0.004 A 
ENDBRANCH  29  30
ENDBRANCH  28  29
ENDBRANCH  14  28
TORSDOF 6
