REMARK  Name = ZINC02111113
REMARK  14 active torsions:
REMARK  status: ('A' for Active; 'I' for Inactive)
REMARK    1  A    between atoms: C_1  and  C_2
REMARK    2  A    between atoms: C_2  and  C_3
REMARK    3  A    between atoms: C_3  and  C_24
REMARK    4  A    between atoms: C_5  and  C_9
REMARK    5  A    between atoms: C_5  and  C_21
REMARK    6  A    between atoms: C_9  and  C_10
REMARK    7  A    between atoms: C_10  and  N_62
REMARK    8  A    between atoms: C_11  and  C_12
REMARK    9  A    between atoms: C_11  and  N_62
REMARK   10  A    between atoms: C_15  and  N_18
REMARK   11  A    between atoms: N_18  and  C_19
REMARK   12  A    between atoms: N_18  and  C_20
REMARK   13  A    between atoms: C_21  and  C_22
REMARK   14  A    between atoms: C_21  and  C_23
REMARK                            x       y       z     vdW  Elec       q    Type
REMARK                         _______ _______ _______ _____ _____    ______ ____
ROOT
ATOM      1  C   UNL     1       0.291   3.752  -4.122  0.00  0.00    -0.082 C 
ENDROOT
BRANCH   1   2
ATOM      2  N   UNL     1      -0.247   5.115  -4.295  0.00  0.00    +0.382 N 
ATOM      3  H   UNL     1      -0.856   5.342  -3.500  0.00  0.00    -0.085 HD
ATOM      4  H   UNL     1      -0.790   5.157  -5.165  0.00  0.00    -0.085 HD
BRANCH   2   5
ATOM      5  C   UNL     1       0.854   6.095  -4.360  0.00  0.00    -0.047 C 
BRANCH   5   6
ATOM      6  C   UNL     1       0.276   7.476  -4.536  0.00  0.00    -0.064 A 
ATOM      7  C   UNL     1       0.063   7.978  -5.807  0.00  0.00    +0.003 A 
ATOM      8  C   UNL     1      -0.472   9.240  -5.972  0.00  0.00    +0.023 A 
ATOM      9  C   UNL     1      -0.786  10.011  -4.859  0.00  0.00    +0.029 A 
ATOM     10  C   UNL     1      -0.566   9.505  -3.584  0.00  0.00    +0.023 A 
ATOM     11  C   UNL     1      -0.036   8.240  -3.427  0.00  0.00    +0.003 A 
BRANCH   9  12
ATOM     12  N   UNL     1      -1.322  11.290  -5.023  0.00  0.00    -0.336 N 
ATOM     13  C   UNL     1      -1.533  12.150  -3.856  0.00  0.00    +0.129 C 
ATOM     14  C   UNL     1      -1.673  11.772  -6.361  0.00  0.00    +0.129 C 
ENDBRANCH   9  12
ENDBRANCH   5   6
ENDBRANCH   2   5
ENDBRANCH   1   2
BRANCH   1  15
ATOM     15  C   UNL     1      -0.872   2.759  -4.058  0.00  0.00    -0.012 C 
BRANCH  15  18
ATOM     16  C   UNL     1      -0.515   1.863  -1.261  0.00  0.00    +0.067 C 
ATOM     17  C   UNL     1       0.439   1.444  -2.383  0.00  0.00    +0.042 C 
ATOM     18  C   UNL     1      -0.337   1.371  -3.702  0.00  0.00    -0.024 C 
ATOM     19  C   UNL     1      -1.508   0.397  -3.539  0.00  0.00    +0.035 C 
ATOM     20  C   UNL     1      -2.387   0.857  -2.373  0.00  0.00    +0.161 C 
ATOM     21  O   UNL     1      -1.597   0.933  -1.185  0.00  0.00    -0.374 OA
ATOM     22  C   UNL     1      -1.064   3.261  -1.554  0.00  0.00    +0.041 C 
BRANCH  18  23
ATOM     23  C   UNL     1       0.591   0.878  -4.814  0.00  0.00    -0.011 C 
ATOM     24  C   UNL     1       0.085   1.392  -6.164  0.00  0.00    +0.008 C 
ATOM     25  C   UNL     1       2.007   1.403  -4.567  0.00  0.00    +0.008 C 
ENDBRANCH  18  23
BRANCH  16  27
ATOM     26  C   UNL     1      -0.734   2.213   1.203  0.00  0.00    +0.007 C 
ATOM     27  C   UNL     1       0.239   1.880   0.070  0.00  0.00    +0.031 C 
ENDBRANCH  16  27
ENDBRANCH  15  18
ENDBRANCH   1  15
TORSDOF 8
