REMARK  Name = ZINC25677983
REMARK  7 active torsions:
REMARK  status: ('A' for Active; 'I' for Inactive)
REMARK    1  A    between atoms: C_3  and  C_11
REMARK    2  A    between atoms: C_5  and  N_7
REMARK    3  A    between atoms: C_11  and  O_13
REMARK    4  A    between atoms: O_13  and  C_14
REMARK    5  A    between atoms: C_14  and  C_15
REMARK    6  A    between atoms: C_18  and  C_28
REMARK    7  A    between atoms: C_21  and  C_23
REMARK                            x       y       z     vdW  Elec       q    Type
REMARK                         _______ _______ _______ _____ _____    ______ ____
ROOT
ATOM      1  C   UNL     1      -0.033  -0.007  -0.572  0.00  0.00    +0.330 C 
ENDROOT
BRANCH   1   2
ATOM      2  C   UNL     1      -0.048   1.500  -0.540  0.00  0.00    +0.273 C 
ATOM      3  O   UNL     1      -1.093   2.092  -0.370  0.00  0.00    -0.270 OA
ATOM      4  N   UNL     1       1.099   2.189  -0.706  0.00  0.00    -0.182 N 
ATOM      5  C   UNL     1       1.224   3.655  -0.703  0.00  0.00    +0.144 C 
ATOM      6  C   UNL     1       2.730   3.891  -0.928  0.00  0.00    +0.088 C 
ATOM      7  C   UNL     1       3.304   2.498  -1.046  0.00  0.00    +0.075 C 
ATOM      8  N   UNL     1       2.357   1.629  -0.915  0.00  0.00    -0.180 NA
BRANCH   7   9
ATOM      9  C   UNL     1       4.718   2.181  -1.274  0.00  0.00    +0.035 A 
ATOM     10  C   UNL     1       5.326   0.943  -1.395  0.00  0.00    +0.017 A 
ATOM     11  C   UNL     1       6.684   0.901  -1.609  0.00  0.00    +0.008 A 
ATOM     12  C   UNL     1       7.381   2.064  -1.695  0.00  0.00    +0.046 A 
ATOM     13  S   UNL     1       6.102   3.290  -1.477  0.00  0.00    -0.095 S 
ENDBRANCH   7   9
BRANCH   5  14
ATOM     14  C   UNL     1       0.794   4.221   0.626  0.00  0.00    +0.013 A 
ATOM     15  C   UNL     1       0.098   5.355   0.886  0.00  0.00    +0.013 A 
ATOM     16  C   UNL     1      -0.187   5.679   2.199  0.00  0.00    +0.008 A 
ATOM     17  C   UNL     1       0.237   4.855   3.188  0.00  0.00    +0.045 A 
ATOM     18  S   UNL     1       1.062   3.568   2.265  0.00  0.00    -0.100 S 
ENDBRANCH   5  14
ENDBRANCH   1   2
BRANCH   1  19
ATOM     19  O   UNL     1      -1.380  -0.509  -0.371  0.00  0.00    -0.452 OA
BRANCH  19  20
ATOM     20  C   UNL     1      -1.541  -1.846  -0.372  0.00  0.00    +0.340 C 
ATOM     21  O   UNL     1      -0.582  -2.573  -0.536  0.00  0.00    -0.245 OA
BRANCH  20  24
ATOM     22  C   UNL     1      -5.242  -2.143   0.202  0.00  0.00    +0.003 A 
ATOM     23  C   UNL     1      -3.988  -1.595   0.017  0.00  0.00    +0.015 A 
ATOM     24  C   UNL     1      -2.884  -2.429  -0.173  0.00  0.00    +0.061 A 
ATOM     25  C   UNL     1      -3.054  -3.814  -0.179  0.00  0.00    +0.038 A 
ATOM     26  C   UNL     1      -4.316  -4.353   0.012  0.00  0.00    +0.036 A 
ATOM     27  C   UNL     1      -5.409  -3.514   0.200  0.00  0.00    +0.023 A 
BRANCH  26  28
ATOM     28  N   UNL     1      -4.492  -5.742   0.011  0.00  0.00    -0.270 N 
ATOM     29  C   UNL     1      -3.521  -6.544   0.490  0.00  0.00    +0.301 C 
ATOM     30  O   UNL     1      -2.535  -6.060   1.011  0.00  0.00    -0.253 OA
ATOM     31  N   UNL     1      -3.643  -7.883   0.391  0.00  0.00    -0.313 N 
ATOM     32  H   UNL     1      -5.422  -6.178  -0.381  0.00  0.00    +0.156 HD
ATOM     33  H   UNL     1      -2.850  -8.537   0.783  0.00  0.00    +0.146 HD
ATOM     34  H   UNL     1      -4.535  -8.320  -0.080  0.00  0.00    +0.146 HD
ENDBRANCH  26  28
ENDBRANCH  20  24
ENDBRANCH  19  20
ENDBRANCH   1  19
TORSDOF 7
