REMARK  Name = ZINC13123718
REMARK  2 active torsions:
REMARK  status: ('A' for Active; 'I' for Inactive)
REMARK    1  A    between atoms: C_4  and  C_7
REMARK    2  A    between atoms: C_10  and  C_18
REMARK                            x       y       z     vdW  Elec       q    Type
REMARK                         _______ _______ _______ _____ _____    ______ ____
ROOT
ATOM      1  C   UNL     1       3.711  -0.707  -0.038  0.00  0.00    +0.144 C 
ATOM      2  C   UNL     1       3.791  -1.588  -1.291  0.00  0.00    +0.059 C 
ATOM      3  C   UNL     1       4.985  -2.542  -1.179  0.00  0.00    +0.106 C 
ATOM      4  N   UNL     1       4.774  -3.430  -0.019  0.00  0.00    -0.305 N 
ATOM      5  C   UNL     1       4.304  -2.824   1.138  0.00  0.00    +0.236 A 
ATOM      6  N   UNL     1       3.812  -1.558   1.145  0.00  0.00    -0.206 N 
ATOM      7  N   UNL     1       3.453  -1.301   2.468  0.00  0.00    -0.042 NA
ATOM      8  N   UNL     1       3.735  -2.370   3.140  0.00  0.00    -0.021 NA
ATOM      9  N   UNL     1       4.234  -3.274   2.359  0.00  0.00    -0.092 NA
ATOM     10  H   UNL     1       4.953  -4.383  -0.063  0.00  0.00    +0.150 HD
ENDROOT
BRANCH   3  11
ATOM     11  C   UNL     1       6.251  -1.748  -0.988  0.00  0.00    -0.026 A 
ATOM     12  C   UNL     1       6.578  -1.258   0.263  0.00  0.00    +0.005 A 
ATOM     13  C   UNL     1       7.739  -0.529   0.440  0.00  0.00    +0.001 A 
ATOM     14  C   UNL     1       8.574  -0.289  -0.635  0.00  0.00    +0.015 A 
ATOM     15  C   UNL     1       8.248  -0.778  -1.887  0.00  0.00    +0.018 A 
ATOM     16  C   UNL     1       7.089  -1.512  -2.062  0.00  0.00    +0.020 A 
ATOM     17 BR   UNL     1       9.390  -0.449  -3.358  0.00  0.00    -0.050 Br
ENDBRANCH   3  11
BRANCH   1  21
ATOM     18  C   UNL     1      -0.017   1.378   0.010  0.00  0.00    +0.000 A 
ATOM     19  C   UNL     1       1.171   2.086   0.002  0.00  0.00    +0.000 A 
ATOM     20  C   UNL     1       2.377   1.411  -0.013  0.00  0.00    +0.006 A 
ATOM     21  C   UNL     1       2.396   0.029  -0.020  0.00  0.00    -0.023 A 
ATOM     22  C   UNL     1       1.208  -0.679  -0.012  0.00  0.00    +0.006 A 
ATOM     23  C   UNL     1       0.002  -0.004   0.002  0.00  0.00    +0.000 A 
ENDBRANCH   1  21
TORSDOF 2
