REMARK  Name = ZINC03911562
REMARK  6 active torsions:
REMARK  status: ('A' for Active; 'I' for Inactive)
REMARK    1  A    between atoms: C_1  and  C_2
REMARK    2  A    between atoms: C_7  and  N_8
REMARK    3  A    between atoms: N_8  and  C_9
REMARK    4  A    between atoms: C_10  and  C_19
REMARK    5  A    between atoms: C_14  and  C_18
REMARK    6  A    between atoms: C_24  and  O_25
REMARK                            x       y       z     vdW  Elec       q    Type
REMARK                         _______ _______ _______ _____ _____    ______ ____
ROOT
ATOM      1  C   UNL     1       0.240  -0.267   2.466  0.00  0.00    +0.136 A 
ATOM      2  C   UNL     1       1.208  -1.223   2.694  0.00  0.00    +0.115 A 
ATOM      3  N   UNL     1       0.807  -2.368   2.113  0.00  0.00    -0.226 NA
ATOM      4  C   UNL     1      -0.366  -2.175   1.531  0.00  0.00    +0.140 A 
ATOM      5  N   UNL     1      -0.747  -0.869   1.734  0.00  0.00    -0.285 N 
ATOM      6  C   UNL     1      -1.933  -0.408   1.231  0.00  0.00    +0.024 A 
ATOM      7  C   UNL     1      -2.747  -1.226   0.534  0.00  0.00    +0.021 A 
ATOM      8  C   UNL     1      -2.382  -2.564   0.304  0.00  0.00    +0.005 A 
ATOM      9  C   UNL     1      -1.207  -3.038   0.798  0.00  0.00    +0.047 A 
ATOM     10  C   UNL     1      -2.335   1.026   1.463  0.00  0.00    +0.064 C 
ENDROOT
BRANCH   2  11
ATOM     11  C   UNL     1       2.468  -1.024   3.447  0.00  0.00    +0.045 A 
ATOM     12  C   UNL     1       2.710   0.183   4.101  0.00  0.00    +0.014 A 
ATOM     13  C   UNL     1       3.886   0.363   4.801  0.00  0.00    +0.001 A 
ATOM     14  C   UNL     1       4.826  -0.650   4.856  0.00  0.00    +0.004 A 
ATOM     15  C   UNL     1       4.597  -1.851   4.211  0.00  0.00    +0.046 A 
ATOM     16  C   UNL     1       3.419  -2.048   3.510  0.00  0.00    +0.126 A 
BRANCH  16  17
ATOM     17  O   UNL     1       3.190  -3.231   2.881  0.00  0.00    -0.506 OA
ATOM     18  H   UNL     1       3.509  -3.259   1.969  0.00  0.00    +0.292 HD
ENDBRANCH  16  17
ENDBRANCH   2  11
BRANCH   1  19
ATOM     19  N   UNL     1       0.264   1.060   2.897  0.00  0.00    -0.299 N 
ATOM     20  H   UNL     1      -0.009   1.282   3.800  0.00  0.00    +0.154 HD
BRANCH  19  27
ATOM     21  C   UNL     1       0.064   3.759   3.777  0.00  0.00    +0.045 C 
ATOM     22  C   UNL     1       0.602   3.401   2.415  0.00  0.00    -0.029 A 
ATOM     23  C   UNL     1       1.021   4.396   1.554  0.00  0.00    +0.005 A 
ATOM     24  C   UNL     1       1.510   4.069   0.303  0.00  0.00    +0.000 A 
ATOM     25  C   UNL     1       1.586   2.745  -0.090  0.00  0.00    +0.002 A 
ATOM     26  C   UNL     1       1.174   1.745   0.768  0.00  0.00    +0.023 A 
ATOM     27  C   UNL     1       0.682   2.069   2.027  0.00  0.00    +0.035 A 
ENDBRANCH  19  27
ENDBRANCH   1  19
TORSDOF 4
