REMARK  Name = ZINC44851407
REMARK  10 active torsions:
REMARK  status: ('A' for Active; 'I' for Inactive)
REMARK    1  A    between atoms: C_1  and  C_2
REMARK    2  A    between atoms: C_2  and  O_3
REMARK    3  A    between atoms: O_3  and  C_4
REMARK    4  A    between atoms: C_7  and  C_10
REMARK    5  A    between atoms: C_10  and  C_11
REMARK    6  A    between atoms: C_11  and  C_12
REMARK    7  A    between atoms: C_12  and  N_13
REMARK    8  A    between atoms: C_14  and  C_16
REMARK    9  A    between atoms: N_21  and  C_23
REMARK   10  A    between atoms: C_23  and  C_24
REMARK                            x       y       z     vdW  Elec       q    Type
REMARK                         _______ _______ _______ _____ _____    ______ ____
ROOT
ATOM      1  N   UNL     1      -2.284  -8.616   2.802  0.00  0.00    -0.315 N 
ATOM      2  C   UNL     1      -2.439  -9.933   3.043  0.00  0.00    +0.214 C 
ATOM      3  O   UNL     1      -2.536 -10.712   2.118  0.00  0.00    -0.276 OA
ATOM      4  H   UNL     1      -2.207  -7.994   3.542  0.00  0.00    +0.149 HD
ENDROOT
BRANCH   2   5
ATOM      5  C   UNL     1      -2.491 -10.439   4.461  0.00  0.00    +0.058 C 
ATOM      6  C   UNL     1      -1.186 -10.085   5.179  0.00  0.00    +0.009 C 
ATOM      7  C   UNL     1      -1.217 -10.671   6.594  0.00  0.00    -0.018 C 
ATOM      8  C   UNL     1      -1.441 -12.182   6.509  0.00  0.00    -0.078 C 
ATOM      9  N   UNL     1      -2.717 -12.454   5.837  0.00  0.00    +0.383 N 
ATOM     10  C   UNL     1      -2.669 -11.959   4.456  0.00  0.00    -0.066 C 
ATOM     11  H   UNL     1      -3.463 -11.991   6.333  0.00  0.00    -0.081 HD
BRANCH   9  12
ATOM     12  C   UNL     1      -2.964 -13.902   5.827  0.00  0.00    -0.043 C 
BRANCH  12  13
ATOM     13  C   UNL     1      -3.146 -14.390   7.242  0.00  0.00    -0.064 A 
ATOM     14  C   UNL     1      -2.051 -14.810   7.974  0.00  0.00    +0.003 A 
ATOM     15  C   UNL     1      -2.217 -15.257   9.271  0.00  0.00    +0.015 A 
ATOM     16  C   UNL     1      -3.479 -15.284   9.837  0.00  0.00    +0.018 A 
ATOM     17  C   UNL     1      -4.574 -14.864   9.104  0.00  0.00    +0.015 A 
ATOM     18  C   UNL     1      -4.406 -14.412   7.808  0.00  0.00    +0.003 A 
ATOM     19 BR   UNL     1      -3.707 -15.896  11.611  0.00  0.00    -0.050 Br
ENDBRANCH  12  13
ENDBRANCH   9  12
ENDBRANCH   2   5
BRANCH   1  20
ATOM     20  C   UNL     1      -2.234  -8.125   1.423  0.00  0.00    +0.104 C 
BRANCH  20  21
ATOM     21  C   UNL     1      -2.054  -6.605   1.429  0.00  0.00    +0.023 C 
BRANCH  21  22
ATOM     22  C   UNL     1      -2.001  -6.092  -0.011  0.00  0.00    +0.036 C 
BRANCH  22  26
ATOM     23  C   UNL     1      -1.498  -1.848   0.006  0.00  0.00    +0.121 A 
ATOM     24  C   UNL     1      -0.388  -2.679  -0.003  0.00  0.00    +0.046 A 
ATOM     25  C   UNL     1      -0.553  -4.051  -0.008  0.00  0.00    +0.007 A 
ATOM     26  C   UNL     1      -1.823  -4.596  -0.005  0.00  0.00    -0.047 A 
ATOM     27  C   UNL     1      -2.932  -3.769   0.004  0.00  0.00    +0.007 A 
ATOM     28  C   UNL     1      -2.772  -2.397   0.016  0.00  0.00    +0.046 A 
BRANCH  23  29
ATOM     29  O   UNL     1      -1.339  -0.499   0.012  0.00  0.00    -0.492 OA
BRANCH  29  31
ATOM     30  C   UNL     1      -0.019   1.526   0.010  0.00  0.00    +0.048 C 
ATOM     31  C   UNL     1       0.002  -0.004   0.002  0.00  0.00    +0.225 C 
ENDBRANCH  29  31
ENDBRANCH  23  29
ENDBRANCH  22  26
ENDBRANCH  21  22
ENDBRANCH  20  21
ENDBRANCH   1  20
TORSDOF 9
