REMARK  Name = ZINC14456933
REMARK  7 active torsions:
REMARK  status: ('A' for Active; 'I' for Inactive)
REMARK    1  A    between atoms: C_1  and  O_2
REMARK    2  A    between atoms: O_2  and  C_3
REMARK    3  A    between atoms: C_6  and  C_10
REMARK    4  A    between atoms: C_8  and  O_9
REMARK    5  A    between atoms: C_21  and  S_26
REMARK    6  A    between atoms: S_26  and  N_29
REMARK    7  A    between atoms: N_29  and  C_30
REMARK                            x       y       z     vdW  Elec       q    Type
REMARK                         _______ _______ _______ _____ _____    ______ ____
ROOT
ATOM      1  C   UNL     1       3.769   2.733  -2.522  0.00  0.00    +0.105 C 
ATOM      2  C   UNL     1       4.787   1.661  -2.868  0.00  0.00    +0.029 C 
ATOM      3  C   UNL     1       4.245   0.271  -3.229  0.00  0.00    +0.033 C 
ATOM      4  C   UNL     1       5.325  -0.243  -4.182  0.00  0.00    -0.030 C 
ATOM      5  C   UNL     1       5.946   0.779  -4.758  0.00  0.00    -0.023 C 
ATOM      6  C   UNL     1       5.327   2.041  -4.279  0.00  0.00    +0.049 C 
ATOM      7  C   UNL     1       6.106   3.291  -4.144  0.00  0.00    -0.018 A 
ATOM      8  C   UNL     1       7.233   3.546  -4.895  0.00  0.00    +0.034 A 
ATOM      9  C   UNL     1       7.920   4.736  -4.740  0.00  0.00    +0.106 A 
ATOM     10  C   UNL     1       7.475   5.678  -3.830  0.00  0.00    +0.030 A 
ATOM     11  C   UNL     1       6.351   5.430  -3.070  0.00  0.00    +0.025 A 
ATOM     12  C   UNL     1       5.657   4.234  -3.212  0.00  0.00    +0.031 A 
ATOM     13  N   UNL     1       4.540   3.990  -2.405  0.00  0.00    -0.336 N 
ATOM     14  H   UNL     1       4.266   4.658  -1.756  0.00  0.00    +0.147 HD
ENDROOT
BRANCH   1  18
ATOM     15  C   UNL     1       1.866   1.824   1.198  0.00  0.00    +0.161 A 
ATOM     16  C   UNL     1       3.126   2.399   1.184  0.00  0.00    +0.050 A 
ATOM     17  C   UNL     1       3.738   2.693  -0.020  0.00  0.00    +0.009 A 
ATOM     18  C   UNL     1       3.098   2.410  -1.212  0.00  0.00    -0.023 A 
ATOM     19  C   UNL     1       1.843   1.830  -1.205  0.00  0.00    +0.054 A 
ATOM     20  C   UNL     1       1.224   1.533  -0.001  0.00  0.00    +0.159 A 
BRANCH  15  22
ATOM     21  C   UNL     1       1.978   1.865   3.574  0.00  0.00    +0.277 C 
ATOM     22  O   UNL     1       1.260   1.539   2.382  0.00  0.00    -0.491 OA
ENDBRANCH  15  22
BRANCH  20  23
ATOM     23  O   UNL     1      -0.011   0.963   0.007  0.00  0.00    -0.503 OA
ATOM     24  H   UNL     1       0.002  -0.004   0.002  0.00  0.00    +0.292 HD
ENDBRANCH  20  23
ENDBRANCH   1  18
BRANCH   9  25
ATOM     25  S   UNL     1       9.361   5.053  -5.703  0.00  0.00    +0.059 S 
ATOM     26  O   UNL     1      10.131   6.004  -4.980  0.00  0.00    -0.153 OA
ATOM     27  O   UNL     1       9.880   3.787  -6.087  0.00  0.00    -0.153 OA
BRANCH  25  28
ATOM     28  N   UNL     1       8.867   5.803  -7.094  0.00  0.00    -0.187 NA
ATOM     29  H   UNL     1       8.982   5.362  -7.950  0.00  0.00    +0.148 HD
BRANCH  28  30
ATOM     30  C   UNL     1       8.255   7.133  -7.031  0.00  0.00    +0.077 C 
ATOM     31  C   UNL     1       6.732   6.993  -6.998  0.00  0.00    +0.020 C 
ATOM     32  C   UNL     1       6.093   8.381  -6.932  0.00  0.00    +0.002 C 
ATOM     33  C   UNL     1       6.504   9.191  -8.164  0.00  0.00    +0.000 C 
ATOM     34  C   UNL     1       8.027   9.331  -8.197  0.00  0.00    +0.002 C 
ATOM     35  C   UNL     1       8.666   7.942  -8.263  0.00  0.00    +0.020 C 
ENDBRANCH  28  30
ENDBRANCH  25  28
ENDBRANCH   9  25
TORSDOF 6
