REMARK  Name = ZINC38684488
REMARK  15 active torsions:
REMARK  status: ('A' for Active; 'I' for Inactive)
REMARK    1  A    between atoms: C_1  and  C_2
REMARK    2  A    between atoms: C_2  and  C_3
REMARK    3  A    between atoms: C_3  and  O_4
REMARK    4  A    between atoms: O_4  and  C_5
REMARK    5  A    between atoms: C_9  and  C_11
REMARK    6  A    between atoms: C_16  and  O_25
REMARK    7  A    between atoms: C_20  and  N_24
REMARK    8  A    between atoms: C_21  and  C_22
REMARK    9  A    between atoms: O_25  and  C_26
REMARK   10  A    between atoms: C_26  and  C_28
REMARK   11  A    between atoms: C_28  and  C_30
REMARK   12  A    between atoms: C_28  and  O_31
REMARK   13  A    between atoms: O_31  and  C_32
REMARK   14  A    between atoms: C_35  and  C_38
REMARK   15  A    between atoms: C_38  and  C_39
REMARK                            x       y       z     vdW  Elec       q    Type
REMARK                         _______ _______ _______ _____ _____    ______ ____
ROOT
ATOM      1  C   UNL     1      -4.197  -6.140  -0.146  0.00  0.00    +0.098 C 
ATOM      2  C   UNL     1      -4.848  -6.611   1.127  0.00  0.00    +0.008 A 
ATOM      3  C   UNL     1      -4.104  -6.670   2.291  0.00  0.00    +0.012 A 
ATOM      4  C   UNL     1      -4.685  -7.099   3.468  0.00  0.00    +0.047 A 
ATOM      5  C   UNL     1      -6.021  -7.475   3.485  0.00  0.00    +0.135 A 
ATOM      6  C   UNL     1      -6.769  -7.417   2.321  0.00  0.00    +0.093 A 
ATOM      7  C   UNL     1      -6.183  -6.984   1.138  0.00  0.00    +0.138 A 
ATOM      8  O   UNL     1      -6.929  -6.934   0.007  0.00  0.00    -0.441 OA
ATOM      9  C   UNL     1      -6.326  -6.901  -1.193  0.00  0.00    +0.199 C 
ATOM     10  C   UNL     1      -5.034  -6.532  -1.331  0.00  0.00    +0.098 C 
ENDROOT
BRANCH   1  15
ATOM     11  C   UNL     1      -2.674  -2.682  -0.152  0.00  0.00    +0.121 A 
ATOM     12  C   UNL     1      -3.804  -1.884  -0.041  0.00  0.00    +0.045 A 
ATOM     13  C   UNL     1      -5.054  -2.467   0.036  0.00  0.00    +0.004 A 
ATOM     14  C   UNL     1      -5.180  -3.843   0.001  0.00  0.00    +0.005 A 
ATOM     15  C   UNL     1      -4.056  -4.640  -0.110  0.00  0.00    -0.031 A 
ATOM     16  C   UNL     1      -2.804  -4.062  -0.192  0.00  0.00    +0.050 A 
BRANCH  11  17
ATOM     17  O   UNL     1      -1.444  -2.111  -0.228  0.00  0.00    -0.492 OA
BRANCH  17  18
ATOM     18  C   UNL     1      -1.386  -0.684  -0.181  0.00  0.00    +0.229 C 
BRANCH  18  20
ATOM     19  C   UNL     1       0.133   1.300  -0.228  0.00  0.00    +0.007 C 
ATOM     20  C   UNL     1       0.071  -0.228  -0.279  0.00  0.00    +0.038 C 
ENDBRANCH  18  20
ENDBRANCH  17  18
ENDBRANCH  11  17
ENDBRANCH   1  15
BRANCH   9  21
ATOM     21  N   UNL     1      -7.043  -7.251  -2.309  0.00  0.00    -0.328 N 
ATOM     22  H   UNL     1      -7.972  -7.518  -2.225  0.00  0.00    +0.145 HD
ATOM     23  H   UNL     1      -6.622  -7.233  -3.183  0.00  0.00    +0.145 HD
ENDBRANCH   9  21
BRANCH  10  24
ATOM     24  C   UNL     1      -4.450  -6.516  -2.639  0.00  0.00    +0.101 C 
ATOM     25  N   UNL     1      -3.987  -6.504  -3.676  0.00  0.00    -0.191 NA
ENDBRANCH  10  24
BRANCH   5  26
ATOM     26  O   UNL     1      -6.594  -7.898   4.642  0.00  0.00    -0.423 OA
BRANCH  26  27
ATOM     27  C   UNL     1      -6.970  -9.185   4.726  0.00  0.00    +0.353 C 
ATOM     28  O   UNL     1      -6.708  -9.950   3.828  0.00  0.00    -0.246 OA
BRANCH  27  29
ATOM     29  C   UNL     1      -7.719  -9.674   5.938  0.00  0.00    +0.279 C 
ATOM     30  C   UNL     1      -9.084  -8.985   6.006  0.00  0.00    +0.064 C 
BRANCH  29  31
ATOM     31  O   UNL     1      -7.903 -11.088   5.846  0.00  0.00    -0.478 OA
BRANCH  31  32
ATOM     32  C   UNL     1      -8.114 -11.759   7.009  0.00  0.00    +0.122 A 
ATOM     33  C   UNL     1      -8.370 -13.123   6.987  0.00  0.00    +0.046 A 
ATOM     34  C   UNL     1      -8.584 -13.803   8.170  0.00  0.00    +0.007 A 
ATOM     35  C   UNL     1      -8.543 -13.127   9.375  0.00  0.00    -0.047 A 
ATOM     36  C   UNL     1      -8.289 -11.768   9.400  0.00  0.00    +0.007 A 
ATOM     37  C   UNL     1      -8.068 -11.084   8.220  0.00  0.00    +0.046 A 
BRANCH  35  38
ATOM     38  C   UNL     1      -8.777 -13.871  10.665  0.00  0.00    +0.032 C 
ATOM     39  C   UNL     1      -7.442 -14.390  11.203  0.00  0.00    +0.009 C 
ENDBRANCH  35  38
ENDBRANCH  31  32
ENDBRANCH  29  31
ENDBRANCH  27  29
ENDBRANCH  26  27
ENDBRANCH   5  26
TORSDOF 12
