REMARK  Name = ZINC21628985
REMARK  11 active torsions:
REMARK  status: ('A' for Active; 'I' for Inactive)
REMARK    1  A    between atoms: C_1  and  C_2
REMARK    2  A    between atoms: C_6  and  C_33
REMARK    3  A    between atoms: C_7  and  O_8
REMARK    4  A    between atoms: O_8  and  C_9
REMARK    5  A    between atoms: C_9  and  C_10
REMARK    6  A    between atoms: C_13  and  S_16
REMARK    7  A    between atoms: N_14  and  N_15
REMARK    8  A    between atoms: S_16  and  C_17
REMARK    9  A    between atoms: C_17  and  C_18
REMARK   10  A    between atoms: N_20  and  C_21
REMARK   11  A    between atoms: N_20  and  C_22
REMARK                            x       y       z     vdW  Elec       q    Type
REMARK                         _______ _______ _______ _____ _____    ______ ____
ROOT
ATOM      1  C   UNL     1      -1.118   2.173   0.018  0.00  0.00    +0.189 A 
ATOM      2  N   UNL     1      -0.692   3.404   0.027  0.00  0.00    -0.128 NA
ATOM      3  N   UNL     1       0.593   3.427   0.015  0.00  0.00    -0.121 NA
ATOM      4  C   UNL     1       1.061   2.201   0.004  0.00  0.00    +0.209 A 
ATOM      5  N   UNL     1      -0.016   1.362   0.009  0.00  0.00    -0.225 N 
ENDROOT
BRANCH   5   6
ATOM      6  N   UNL     1       0.002  -0.004   0.002  0.00  0.00    -0.295 N 
ATOM      7  H   UNL     1       0.962  -0.541  -0.005  0.00  0.00    +0.163 HD
ATOM      8  H   UNL     1      -0.943  -0.567   0.003  0.00  0.00    +0.163 HD
ENDBRANCH   5   6
BRANCH   1   9
ATOM      9  C   UNL     1      -2.557   1.725   0.021  0.00  0.00    +0.306 C 
BRANCH   9  10
ATOM     10  O   UNL     1      -3.006   1.575   1.369  0.00  0.00    -0.484 OA
BRANCH  10  17
ATOM     11  C   UNL     1      -4.982   3.584   1.571  0.00  0.00    +0.047 C 
ATOM     12  C   UNL     1      -5.306   2.115   1.656  0.00  0.00    -0.009 A 
ATOM     13  C   UNL     1      -6.612   1.704   1.834  0.00  0.00    +0.007 A 
ATOM     14  C   UNL     1      -6.909   0.356   1.917  0.00  0.00    +0.001 A 
ATOM     15  C   UNL     1      -5.900  -0.584   1.817  0.00  0.00    +0.007 A 
ATOM     16  C   UNL     1      -4.592  -0.178   1.634  0.00  0.00    -0.009 A 
ATOM     17  C   UNL     1      -4.292   1.173   1.550  0.00  0.00    +0.127 A 
ATOM     18  C   UNL     1      -3.493  -1.203   1.525  0.00  0.00    +0.047 C 
ENDBRANCH  10  17
ENDBRANCH   9  10
ENDBRANCH   1   9
BRANCH   4  19
ATOM     19  S   UNL     1       2.758   1.727  -0.015  0.00  0.00    -0.075 S 
BRANCH  19  20
ATOM     20  C   UNL     1       3.540   3.360  -0.014  0.00  0.00    +0.173 C 
BRANCH  20  21
ATOM     21  C   UNL     1       5.038   3.199  -0.029  0.00  0.00    +0.226 C 
ATOM     22  O   UNL     1       5.529   2.090  -0.041  0.00  0.00    -0.275 OA
ATOM     23  N   UNL     1       5.832   4.288  -0.031  0.00  0.00    -0.297 N 
ATOM     24  C   UNL     1       5.239   5.627  -0.018  0.00  0.00    +0.132 C 
BRANCH  23  25
ATOM     25  C   UNL     1       7.289   4.131  -0.046  0.00  0.00    +0.106 C 
ATOM     26  C   UNL     1       7.879   4.787   1.201  0.00  0.00    +0.027 C 
ATOM     27  C   UNL     1       9.406   4.805   1.061  0.00  0.00    +0.007 C 
ATOM     28  C   UNL     1       9.778   5.803  -0.033  0.00  0.00    +0.035 C 
ATOM     29  C   UNL     1       8.989   5.534  -1.288  0.00  0.00    -0.042 A 
ATOM     30  C   UNL     1       7.844   4.769  -1.293  0.00  0.00    -0.024 A 
ATOM     31  C   UNL     1       7.159   4.564  -2.484  0.00  0.00    +0.006 A 
ATOM     32  C   UNL     1       7.619   5.118  -3.661  0.00  0.00    +0.000 A 
ATOM     33  C   UNL     1       8.771   5.882  -3.656  0.00  0.00    +0.000 A 
ATOM     34  C   UNL     1       9.452   6.088  -2.474  0.00  0.00    +0.004 A 
ENDBRANCH  23  25
ENDBRANCH  20  21
ENDBRANCH  19  20
ENDBRANCH   4  19
TORSDOF 8
