REMARK  Name = ZINC39701909
REMARK  3 active torsions:
REMARK  status: ('A' for Active; 'I' for Inactive)
REMARK    1  A    between atoms: C_4  and  C_7
REMARK    2  A    between atoms: C_9  and  C_14
REMARK    3  A    between atoms: C_16  and  C_27
REMARK                            x       y       z     vdW  Elec       q    Type
REMARK                         _______ _______ _______ _____ _____    ______ ____
ROOT
ATOM      1  C   UNL     1       5.059  -4.230  -0.079  0.00  0.00    +0.155 C 
ATOM      2  C   UNL     1       4.911  -4.679  -1.520  0.00  0.00    -0.014 C 
ATOM      3  C   UNL     1       3.857  -5.551  -1.807  0.00  0.00    +0.002 A 
ATOM      4  C   UNL     1       3.647  -6.019  -3.121  0.00  0.00    +0.025 A 
ATOM      5  C   UNL     1       2.613  -6.868  -3.373  0.00  0.00    +0.019 A 
ATOM      6  C   UNL     1       1.754  -7.286  -2.358  0.00  0.00    +0.017 A 
ATOM      7  C   UNL     1       1.907  -6.868  -1.071  0.00  0.00    +0.025 A 
ATOM      8  C   UNL     1       2.954  -5.990  -0.737  0.00  0.00    +0.041 A 
ATOM      9  N   UNL     1       3.103  -5.581   0.527  0.00  0.00    -0.284 N 
ATOM     10  C   UNL     1       4.057  -4.761   0.920  0.00  0.00    +0.231 C 
ATOM     11  O   UNL     1       4.131  -4.431   2.089  0.00  0.00    -0.274 OA
ATOM     12 BR   UNL     1       2.335  -7.492  -5.137  0.00  0.00    -0.050 Br
ATOM     13  H   UNL     1       2.474  -5.905   1.191  0.00  0.00    +0.155 HD
ENDROOT
BRANCH   1  16
ATOM     14  C   UNL     1       3.745  -0.691   0.145  0.00  0.00    +0.076 A 
ATOM     15  C   UNL     1       3.769  -2.088   0.128  0.00  0.00    +0.053 A 
ATOM     16  C   UNL     1       4.984  -2.725  -0.054  0.00  0.00    +0.062 A 
ATOM     17  N   UNL     1       6.080  -1.998  -0.207  0.00  0.00    -0.225 NA
ATOM     18  C   UNL     1       6.027  -0.673  -0.186  0.00  0.00    +0.200 A 
ATOM     19  S   UNL     1       7.515   0.248  -0.395  0.00  0.00    -0.009 SA
ATOM     20  N   UNL     1       4.885  -0.024  -0.019  0.00  0.00    -0.221 NA
BRANCH  14  24
ATOM     21  C   UNL     1       0.083   1.398   0.695  0.00  0.00    +0.000 A 
ATOM     22  C   UNL     1       1.260   2.104   0.526  0.00  0.00    +0.001 A 
ATOM     23  C   UNL     1       2.452   1.431   0.347  0.00  0.00    +0.010 A 
ATOM     24  C   UNL     1       2.468   0.037   0.338  0.00  0.00    +0.000 A 
ATOM     25  C   UNL     1       1.278  -0.669   0.509  0.00  0.00    +0.010 A 
ATOM     26  C   UNL     1       0.093   0.014   0.687  0.00  0.00    +0.001 A 
ENDBRANCH  14  24
ENDBRANCH   1  16
BRANCH   2  27
ATOM     27  C   UNL     1       5.801  -4.235  -2.530  0.00  0.00    -0.020 A 
ATOM     28  C   UNL     1       5.331  -3.436  -3.586  0.00  0.00    +0.008 A 
ATOM     29  C   UNL     1       6.204  -3.010  -4.561  0.00  0.00    +0.001 A 
ATOM     30  C   UNL     1       7.542  -3.366  -4.505  0.00  0.00    +0.000 A 
ATOM     31  C   UNL     1       8.015  -4.154  -3.468  0.00  0.00    +0.001 A 
ATOM     32  C   UNL     1       7.160  -4.586  -2.479  0.00  0.00    +0.008 A 
ENDBRANCH   2  27
TORSDOF 3
