REMARK  Name = ZINC52309177
REMARK  9 active torsions:
REMARK  status: ('A' for Active; 'I' for Inactive)
REMARK    1  A    between atoms: C_1  and  C_2
REMARK    2  A    between atoms: C_2  and  C_3
REMARK    3  A    between atoms: C_3  and  C_5
REMARK    4  A    between atoms: C_3  and  N_21
REMARK    5  A    between atoms: C_5  and  C_7
REMARK    6  A    between atoms: C_5  and  S_13
REMARK    7  A    between atoms: S_13  and  C_14
REMARK    8  A    between atoms: C_16  and  C_20
REMARK    9  A    between atoms: N_18  and  C_19
REMARK                            x       y       z     vdW  Elec       q    Type
REMARK                         _______ _______ _______ _____ _____    ______ ____
ROOT
ATOM      1  C   UNL     1      -1.422  -2.096  -0.327  0.00  0.00    +0.075 C 
ENDROOT
BRANCH   1   2
ATOM      2  C   UNL     1      -0.955  -2.526  -1.694  0.00  0.00    +0.003 A 
ATOM      3  C   UNL     1       0.123  -3.274  -2.032  0.00  0.00    +0.027 A 
ATOM      4  C   UNL     1       0.359  -3.546  -3.367  0.00  0.00    +0.025 A 
ATOM      5  C   UNL     1      -0.497  -3.057  -4.299  0.00  0.00    +0.060 A 
ATOM      6  S   UNL     1      -1.684  -2.187  -3.288  0.00  0.00    -0.099 S 
ATOM      7 BR   UNL     1       1.851  -4.585  -3.886  0.00  0.00    -0.050 Br
ENDBRANCH   1   2
BRANCH   1   8
ATOM      8  C   UNL     1      -1.453  -0.569  -0.256  0.00  0.00    -0.057 C 
BRANCH   8   9
ATOM      9  N   UNL     1      -2.009  -0.150   1.038  0.00  0.00    +0.381 N 
ATOM     10  H   UNL     1      -2.101   0.854   1.056  0.00  0.00    -0.090 HD
ATOM     11  H   UNL     1      -2.915  -0.574   1.168  0.00  0.00    -0.090 HD
ATOM     12  H   UNL     1      -1.391  -0.444   1.780  0.00  0.00    -0.090 HD
ENDBRANCH   8   9
BRANCH   8  14
ATOM     13  C   UNL     1      -0.077   1.507  -0.455  0.00  0.00    +0.002 C 
ATOM     14  C   UNL     1      -0.032  -0.021  -0.401  0.00  0.00    -0.018 C 
ENDBRANCH   8  14
ENDBRANCH   1   8
BRANCH   1  15
ATOM     15  S   UNL     1      -3.086  -2.751  -0.023  0.00  0.00    -0.099 S 
BRANCH  15  16
ATOM     16  C   UNL     1      -2.845  -4.493   0.090  0.00  0.00    +0.095 A 
ATOM     17  C   UNL     1      -1.656  -5.132   0.273  0.00  0.00    +0.059 A 
ATOM     18  C   UNL     1      -1.909  -6.506   0.305  0.00  0.00    +0.061 A 
ATOM     19  N   UNL     1      -3.194  -6.694   0.148  0.00  0.00    -0.176 NA
ATOM     20  N   UNL     1      -3.812  -5.444   0.016  0.00  0.00    -0.261 N 
ATOM     21  C   UNL     1      -5.245  -5.206  -0.171  0.00  0.00    +0.173 C 
ATOM     22  C   UNL     1      -0.875  -7.587   0.488  0.00  0.00    +0.067 C 
ENDBRANCH  15  16
ENDBRANCH   1  15
TORSDOF 6
