REMARK  Name = ZINC65430236
REMARK  8 active torsions:
REMARK  status: ('A' for Active; 'I' for Inactive)
REMARK    1  A    between atoms: C_1  and  C_2
REMARK    2  A    between atoms: C_2  and  C_3
REMARK    3  A    between atoms: C_3  and  C_4
REMARK    4  A    between atoms: C_4  and  C_5
REMARK    5  A    between atoms: C_7  and  C_11
REMARK    6  A    between atoms: C_14  and  N_27
REMARK    7  A    between atoms: C_17  and  C_20
REMARK    8  A    between atoms: C_28  and  C_30
REMARK                            x       y       z     vdW  Elec       q    Type
REMARK                         _______ _______ _______ _____ _____    ______ ____
ROOT
ATOM      1  C   UNL     1       1.568  -3.565  -5.962  0.00  0.00    +0.168 C 
ATOM      2  C   UNL     1       1.387  -5.082  -6.056  0.00  0.00    +0.060 C 
ATOM      3  C   UNL     1       1.202  -5.476  -7.525  0.00  0.00    +0.078 C 
ATOM      4  C   UNL     1       2.408  -4.984  -8.330  0.00  0.00    +0.058 C 
ATOM      5  C   UNL     1       2.550  -3.470  -8.148  0.00  0.00    +0.151 C 
ATOM      6  O   UNL     1       2.688  -3.170  -6.757  0.00  0.00    -0.363 OA
ENDROOT
BRANCH   1   9
ATOM      7  C   UNL     1       1.444  -2.513  -2.505  0.00  0.00    +0.085 A 
ATOM      8  N   UNL     1       0.878  -2.763  -3.654  0.00  0.00    -0.345 N 
ATOM      9  C   UNL     1       1.810  -3.176  -4.526  0.00  0.00    +0.063 A 
ATOM     10  H   UNL     1       3.432  -2.652  -1.913  0.00  0.00    +0.166 HD
ATOM     11  C   UNL     1       2.998  -3.182  -3.894  0.00  0.00    +0.107 A 
ATOM     12  N   UNL     1       2.768  -2.757  -2.613  0.00  0.00    -0.349 N 
ATOM     13  H   UNL     1      -0.068  -2.666  -3.847  0.00  0.00    +0.167 HD
BRANCH   7  14
ATOM     14  C   UNL     1       0.739  -2.027  -1.265  0.00  0.00    +0.072 C 
BRANCH  14  15
ATOM     15  C   UNL     1       0.718  -0.497  -1.257  0.00  0.00    +0.007 C 
BRANCH  15  17
ATOM     16  C   UNL     1      -0.019   1.526   0.010  0.00  0.00    +0.004 C 
ATOM     17  C   UNL     1       0.002  -0.004   0.002  0.00  0.00    -0.003 C 
ENDBRANCH  15  17
ENDBRANCH  14  15
ENDBRANCH   7  14
ENDBRANCH   1   9
BRANCH   5  18
ATOM     18  C   UNL     1       3.770  -2.987  -8.889  0.00  0.00    -0.019 A 
ATOM     19  C   UNL     1       5.025  -3.143  -8.330  0.00  0.00    +0.007 A 
ATOM     20  C   UNL     1       6.144  -2.700  -9.010  0.00  0.00    +0.020 A 
ATOM     21  C   UNL     1       6.008  -2.101 -10.249  0.00  0.00    +0.041 A 
ATOM     22  C   UNL     1       4.752  -1.945 -10.808  0.00  0.00    +0.020 A 
ATOM     23  C   UNL     1       3.634  -2.394 -10.130  0.00  0.00    +0.007 A 
ATOM     24 CL   UNL     1       7.413  -1.544 -11.103  0.00  0.00    -0.084 Cl
ENDBRANCH   5  18
BRANCH   3  25
ATOM     25  N   UNL     1       1.100  -6.934  -7.632  0.00  0.00    -0.312 N 
ATOM     26  C   UNL     1       0.455  -7.489  -8.677  0.00  0.00    +0.210 C 
ATOM     27  O   UNL     1      -0.042  -6.782  -9.528  0.00  0.00    -0.276 OA
ATOM     28  C   UNL     1       0.350  -8.988  -8.788  0.00  0.00    +0.109 C 
ATOM     29  H   UNL     1       1.498  -7.499  -6.952  0.00  0.00    +0.149 HD
ENDBRANCH   3  25
TORSDOF 6
