REMARK  Name = ZINC13977656
REMARK  11 active torsions:
REMARK  status: ('A' for Active; 'I' for Inactive)
REMARK    1  A    between atoms: C_1  and  C_2
REMARK    2  A    between atoms: C_2  and  C_3
REMARK    3  A    between atoms: C_6  and  O_10
REMARK    4  A    between atoms: O_10  and  C_11
REMARK    5  A    between atoms: C_11  and  C_12
REMARK    6  A    between atoms: N_14  and  N_15
REMARK    7  A    between atoms: C_16  and  C_18
REMARK    8  A    between atoms: C_18  and  C_19
REMARK    9  A    between atoms: C_19  and  C_20
REMARK   10  A    between atoms: C_20  and  O_21
REMARK   11  A    between atoms: O_21  and  C_22
REMARK                            x       y       z     vdW  Elec       q    Type
REMARK                         _______ _______ _______ _____ _____    ______ ____
ROOT
ATOM      1  N   UNL     1       5.213  -2.708  -0.065  0.00  0.00    -0.234 N 
ATOM      2  C   UNL     1       5.409  -4.041  -0.074  0.00  0.00    +0.229 C 
ATOM      3  O   UNL     1       4.459  -4.794  -0.069  0.00  0.00    -0.274 OA
ATOM      4  H   UNL     1       5.973  -2.106  -0.069  0.00  0.00    +0.173 HD
ENDROOT
BRANCH   1   7
ATOM      5  C   UNL     1       3.714  -0.859  -0.040  0.00  0.00    +0.267 C 
ATOM      6  O   UNL     1       4.664  -0.105  -0.044  0.00  0.00    -0.271 OA
ATOM      7  N   UNL     1       3.910  -2.192  -0.049  0.00  0.00    -0.232 N 
ATOM      8  H   UNL     1       3.150  -2.794  -0.045  0.00  0.00    +0.173 HD
BRANCH   5   9
ATOM      9  C   UNL     1       2.313  -0.304  -0.023  0.00  0.00    +0.326 C 
BRANCH   9  10
ATOM     10  O   UNL     1       2.366   1.124  -0.015  0.00  0.00    -0.482 OA
BRANCH  10  14
ATOM     11  C   UNL     1      -1.238   3.133   0.030  0.00  0.00    -0.046 A 
ATOM     12  C   UNL     1      -1.218   1.751   0.017  0.00  0.00    +0.007 A 
ATOM     13  C   UNL     1      -0.013   1.076   0.008  0.00  0.00    +0.047 A 
ATOM     14  C   UNL     1       1.179   1.786   0.000  0.00  0.00    +0.135 A 
ATOM     15  C   UNL     1       1.157   3.174   0.008  0.00  0.00    +0.060 A 
ATOM     16  C   UNL     1      -0.052   3.844   0.023  0.00  0.00    +0.022 A 
ATOM     17 BR   UNL     1       2.778   4.147  -0.003  0.00  0.00    -0.047 Br
BRANCH  11  19
ATOM     18  C   UNL     1      -3.013   4.122  -1.391  0.00  0.00    +0.009 C 
ATOM     19  C   UNL     1      -2.554   3.866   0.046  0.00  0.00    +0.032 C 
ENDBRANCH  11  19
ENDBRANCH  10  14
ENDBRANCH   9  10
ENDBRANCH   5   9
ENDBRANCH   1   7
BRANCH   2  20
ATOM     20  C   UNL     1       6.810  -4.596  -0.091  0.00  0.00    +0.100 C 
BRANCH  20  21
ATOM     21  C   UNL     1       6.753  -6.125  -0.099  0.00  0.00    +0.050 C 
BRANCH  21  22
ATOM     22  C   UNL     1       8.175  -6.689  -0.117  0.00  0.00    +0.229 C 
BRANCH  22  23
ATOM     23  O   UNL     1       8.122  -8.117  -0.124  0.00  0.00    -0.490 OA
BRANCH  23  24
ATOM     24  C   UNL     1       9.309  -8.778  -0.140  0.00  0.00    +0.139 A 
ATOM     25  C   UNL     1      10.500  -8.068  -0.147  0.00  0.00    +0.048 A 
ATOM     26  C   UNL     1      11.706  -8.742  -0.163  0.00  0.00    +0.023 A 
ATOM     27  C   UNL     1      11.726 -10.126  -0.171  0.00  0.00    +0.043 A 
ATOM     28  C   UNL     1      10.540 -10.837  -0.164  0.00  0.00    +0.043 A 
ATOM     29  C   UNL     1       9.331 -10.166  -0.142  0.00  0.00    +0.084 A 
ATOM     30 CL   UNL     1       7.842 -11.059  -0.125  0.00  0.00    -0.080 Cl
ATOM     31 CL   UNL     1      13.243 -10.970  -0.191  0.00  0.00    -0.083 Cl
ENDBRANCH  23  24
ENDBRANCH  22  23
ENDBRANCH  21  22
ENDBRANCH  20  21
ENDBRANCH   2  20
TORSDOF 10
