REMARK  Name = ZINC07057185
REMARK  8 active torsions:
REMARK  status: ('A' for Active; 'I' for Inactive)
REMARK    1  A    between atoms: C_1  and  C_2
REMARK    2  A    between atoms: C_5  and  C_28
REMARK    3  A    between atoms: C_6  and  S_8
REMARK    4  A    between atoms: S_8  and  N_11
REMARK    5  A    between atoms: N_11  and  C_12
REMARK    6  A    between atoms: C_14  and  S_19
REMARK    7  A    between atoms: C_17  and  C_18
REMARK    8  A    between atoms: S_19  and  N_22
REMARK                            x       y       z     vdW  Elec       q    Type
REMARK                         _______ _______ _______ _____ _____    ______ ____
ROOT
ATOM      1  C   UNL     1      -1.567   3.599  -3.432  0.00  0.00    +0.053 A 
ATOM      2  C   UNL     1      -0.907   2.982  -2.376  0.00  0.00    +0.053 A 
ATOM      3  C   UNL     1      -1.151   1.652  -2.094  0.00  0.00    +0.107 A 
ATOM      4  C   UNL     1      -2.047   0.933  -2.864  0.00  0.00    +0.029 A 
ATOM      5  C   UNL     1      -2.710   1.545  -3.912  0.00  0.00    +0.007 A 
ATOM      6  C   UNL     1      -2.471   2.875  -4.199  0.00  0.00    -0.028 A 
ATOM      7  C   UNL     1      -3.189   3.540  -5.345  0.00  0.00    +0.046 C 
ENDROOT
BRANCH   3   8
ATOM      8  S   UNL     1      -0.314   0.869  -0.756  0.00  0.00    +0.061 S 
ATOM      9  O   UNL     1      -0.308  -0.524  -1.040  0.00  0.00    -0.153 OA
ATOM     10  O   UNL     1       0.881   1.606  -0.537  0.00  0.00    -0.153 OA
BRANCH   8  11
ATOM     11  N   UNL     1      -1.250   1.073   0.594  0.00  0.00    -0.177 NA
ATOM     12  C   UNL     1      -1.066   2.244   1.463  0.00  0.00    +0.109 C 
ATOM     13  C   UNL     1      -2.422   2.945   1.633  0.00  0.00    +0.017 C 
ATOM     14  C   UNL     1      -3.451   1.935   2.148  0.00  0.00    +0.003 C 
ATOM     15  C   UNL     1      -3.617   0.807   1.128  0.00  0.00    +0.017 C 
ATOM     16  C   UNL     1      -2.278   0.085   0.949  0.00  0.00    +0.109 C 
ENDBRANCH   8  11
ENDBRANCH   3   8
BRANCH   1  17
ATOM     17  N   UNL     1      -1.323   4.943  -3.720  0.00  0.00    -0.216 N 
ATOM     18  H   UNL     1      -2.044   5.510  -4.036  0.00  0.00    +0.174 HD
BRANCH  17  19
ATOM     19  S   UNL     1       0.196   5.570  -3.521  0.00  0.00    +0.073 S 
ATOM     20  O   UNL     1       0.157   6.898  -4.025  0.00  0.00    -0.150 OA
ATOM     21  O   UNL     1       0.587   5.272  -2.188  0.00  0.00    -0.150 OA
BRANCH  19  27
ATOM     22  C   UNL     1       4.226   2.327  -4.270  0.00  0.00    +0.044 C 
ATOM     23  C   UNL     1       3.129   3.174  -4.862  0.00  0.00    -0.049 A 
ATOM     24  C   UNL     1       2.972   3.240  -6.234  0.00  0.00    +0.004 A 
ATOM     25  C   UNL     1       1.966   4.018  -6.777  0.00  0.00    +0.005 A 
ATOM     26  C   UNL     1       1.119   4.729  -5.948  0.00  0.00    -0.024 A 
ATOM     27  C   UNL     1       1.276   4.663  -4.577  0.00  0.00    +0.112 A 
ATOM     28  C   UNL     1       2.285   3.889  -4.034  0.00  0.00    +0.032 A 
ATOM     29  C   UNL     1       0.023   5.578  -6.541  0.00  0.00    +0.046 C 
ENDBRANCH  19  27
ENDBRANCH  17  19
ENDBRANCH   1  17
TORSDOF 5
