REMARK  Name = ZINC39667019
REMARK  8 active torsions:
REMARK  status: ('A' for Active; 'I' for Inactive)
REMARK    1  A    between atoms: C_1  and  C_2
REMARK    2  A    between atoms: C_5  and  C_9
REMARK    3  A    between atoms: C_6  and  C_8
REMARK    4  A    between atoms: C_9  and  C_10
REMARK    5  A    between atoms: C_10  and  N_11
REMARK    6  A    between atoms: C_12  and  C_14
REMARK    7  A    between atoms: C_25  and  C_27
REMARK    8  A    between atoms: C_29  and  C_34
REMARK                            x       y       z     vdW  Elec       q    Type
REMARK                         _______ _______ _______ _____ _____    ______ ____
ROOT
ATOM      1  C   UNL     1      -2.219  -9.103   0.153  0.00  0.00    +0.100 C 
ATOM      2  C   UNL     1      -1.386  -9.305   1.438  0.00  0.00    +0.121 C 
ATOM      3  N   UNL     1      -2.391  -9.508   2.508  0.00  0.00    -0.296 N 
ATOM      4  C   UNL     1      -3.440 -10.344   1.875  0.00  0.00    +0.115 C 
ATOM      5  C   UNL     1      -3.565  -9.789   0.442  0.00  0.00    -0.004 C 
ATOM      6  C   UNL     1      -3.801 -10.927  -0.547  0.00  0.00    -0.010 C 
ATOM      7  C   UNL     1      -5.170 -11.556  -0.276  0.00  0.00    -0.082 C 
ATOM      8  N   UNL     1      -6.216 -10.536  -0.415  0.00  0.00    +0.379 N 
ATOM      9  C   UNL     1      -6.035  -9.492   0.601  0.00  0.00    -0.082 C 
ATOM     10  C   UNL     1      -4.702  -8.775   0.367  0.00  0.00    -0.010 C 
ATOM     11  C   UNL     1      -2.360  -9.040   3.771  0.00  0.00    +0.247 C 
ATOM     12  O   UNL     1      -1.491  -8.259   4.108  0.00  0.00    -0.270 OA
ATOM     13  H   UNL     1      -6.161 -10.122  -1.334  0.00  0.00    -0.086 HD
ATOM     14  H   UNL     1      -7.122 -10.965  -0.297  0.00  0.00    -0.086 HD
ENDROOT
BRANCH  11  15
ATOM     15  C   UNL     1      -3.382  -9.475   4.747  0.00  0.00    +0.040 A 
ATOM     16  C   UNL     1      -4.096 -10.655   4.534  0.00  0.00    +0.025 A 
ATOM     17  C   UNL     1      -5.048 -11.056   5.448  0.00  0.00    +0.058 A 
ATOM     18  C   UNL     1      -5.297 -10.293   6.574  0.00  0.00    +0.050 A 
ATOM     19  C   UNL     1      -4.593  -9.120   6.792  0.00  0.00    +0.125 A 
ATOM     20  C   UNL     1      -3.632  -8.710   5.886  0.00  0.00    +0.051 A 
ATOM     21  F   UNL     1      -4.841  -8.378   7.893  0.00  0.00    -0.205 F 
BRANCH  17  22
ATOM     22  C   UNL     1      -5.820 -12.331   5.218  0.00  0.00    +0.418 C 
ATOM     23  F   UNL     1      -5.139 -13.401   5.809  0.00  0.00    -0.166 F 
ATOM     24  F   UNL     1      -7.092 -12.215   5.790  0.00  0.00    -0.166 F 
ATOM     25  F   UNL     1      -5.945 -12.559   3.844  0.00  0.00    -0.166 F 
ENDBRANCH  17  22
ENDBRANCH  11  15
BRANCH   1  27
ATOM     26  N   UNL     1      -2.686  -7.205  -1.364  0.00  0.00    -0.315 N 
ATOM     27  C   UNL     1      -2.426  -7.634  -0.113  0.00  0.00    +0.218 C 
ATOM     28  O   UNL     1      -2.359  -6.838   0.800  0.00  0.00    -0.275 OA
ATOM     29  H   UNL     1      -2.739  -7.842  -2.093  0.00  0.00    +0.149 HD
BRANCH  26  30
ATOM     30  C   UNL     1      -2.886  -5.777  -1.621  0.00  0.00    +0.109 C 
BRANCH  30  31
ATOM     31  C   UNL     1      -3.163  -5.561  -3.111  0.00  0.00    +0.054 C 
BRANCH  31  36
ATOM     32  C   UNL     1      -3.955   0.072  -4.125  0.00  0.00    +0.044 C 
ATOM     33  C   UNL     1      -3.749  -1.397  -3.860  0.00  0.00    -0.050 A 
ATOM     34  C   UNL     1      -4.838  -2.220  -3.643  0.00  0.00    +0.003 A 
ATOM     35  C   UNL     1      -4.648  -3.568  -3.401  0.00  0.00    +0.004 A 
ATOM     36  C   UNL     1      -3.369  -4.092  -3.376  0.00  0.00    -0.043 A 
ATOM     37  C   UNL     1      -2.280  -3.269  -3.594  0.00  0.00    -0.047 A 
ATOM     38  C   UNL     1      -2.470  -1.923  -3.841  0.00  0.00    +0.007 A 
ATOM     39  C   UNL     1      -0.886  -3.841  -3.567  0.00  0.00    +0.044 C 
ENDBRANCH  31  36
ENDBRANCH  30  31
ENDBRANCH  26  30
ENDBRANCH   1  27
TORSDOF 6
