REMARK  Name = ZINC22321917
REMARK  8 active torsions:
REMARK  status: ('A' for Active; 'I' for Inactive)
REMARK    1  A    between atoms: C_1  and  N_2
REMARK    2  A    between atoms: N_2  and  C_3
REMARK    3  A    between atoms: C_3  and  C_4
REMARK    4  A    between atoms: C_15  and  C_17
REMARK    5  A    between atoms: C_17  and  C_19
REMARK    6  A    between atoms: C_17  and  N_30
REMARK    7  A    between atoms: C_19  and  C_20
REMARK    8  A    between atoms: C_31  and  C_33
REMARK                            x       y       z     vdW  Elec       q    Type
REMARK                         _______ _______ _______ _____ _____    ______ ____
ROOT
ATOM      1  C   UNL     1      -0.023   0.089  -2.470  0.00  0.00    +0.164 C 
ENDROOT
BRANCH   1   4
ATOM      2  C   UNL     1      -0.018   1.461   0.010  0.00  0.00    +0.132 C 
ATOM      3  N   UNL     1       0.002  -0.004   0.002  0.00  0.00    -0.296 N 
ATOM      4  C   UNL     1       0.000  -0.672  -1.169  0.00  0.00    +0.236 C 
ATOM      5  O   UNL     1       0.017  -1.884  -1.175  0.00  0.00    -0.274 OA
BRANCH   3   6
ATOM      6  C   UNL     1       0.024  -0.743   1.267  0.00  0.00    +0.181 C 
BRANCH   6   7
ATOM      7  C   UNL     1      -1.389  -1.016   1.714  0.00  0.00    +0.128 A 
ATOM      8  N   UNL     1      -1.579  -1.692   2.877  0.00  0.00    -0.309 N 
ATOM      9  H   UNL     1      -0.819  -1.988   3.402  0.00  0.00    +0.170 HD
ATOM     10  C   UNL     1      -2.842  -1.948   3.298  0.00  0.00    +0.266 A 
ATOM     11  O   UNL     1      -3.046  -2.551   4.338  0.00  0.00    -0.267 OA
ATOM     12  C   UNL     1      -3.901  -1.501   2.508  0.00  0.00    +0.102 A 
ATOM     13  C   UNL     1      -3.677  -0.804   1.308  0.00  0.00    +0.085 A 
ATOM     14  N   UNL     1      -2.362  -0.591   0.973  0.00  0.00    -0.232 NA
ATOM     15  C   UNL     1      -4.829  -0.413   0.612  0.00  0.00    +0.036 A 
ATOM     16  C   UNL     1      -6.052  -0.708   1.103  0.00  0.00    +0.048 A 
ATOM     17  S   UNL     1      -5.669  -1.580   2.614  0.00  0.00    -0.090 S 
ENDBRANCH   6   7
ENDBRANCH   3   6
ENDBRANCH   1   4
BRANCH   1  18
ATOM     18  N   UNL     1      -0.493  -0.792  -3.542  0.00  0.00    -0.299 N 
ATOM     19  C   UNL     1       0.185  -1.919  -3.835  0.00  0.00    +0.251 C 
ATOM     20  O   UNL     1       1.189  -2.205  -3.209  0.00  0.00    -0.270 OA
ATOM     21  H   UNL     1      -1.293  -0.564  -4.041  0.00  0.00    +0.150 HD
BRANCH  19  22
ATOM     22  C   UNL     1      -0.285  -2.799  -4.908  0.00  0.00    +0.074 A 
ATOM     23  C   UNL     1       0.256  -3.993  -5.360  0.00  0.00    +0.021 A 
ATOM     24  C   UNL     1      -0.415  -4.600  -6.394  0.00  0.00    +0.008 A 
ATOM     25  C   UNL     1      -1.531  -4.011  -6.891  0.00  0.00    +0.046 A 
ATOM     26  S   UNL     1      -1.708  -2.619  -5.967  0.00  0.00    -0.092 S 
ENDBRANCH  19  22
ENDBRANCH   1  18
BRANCH   1  27
ATOM     27  C   UNL     1       1.388   0.582  -2.797  0.00  0.00    +0.069 C 
BRANCH  27  28
ATOM     28  C   UNL     1       1.345   1.445  -4.032  0.00  0.00    -0.020 A 
ATOM     29  C   UNL     1       1.571   1.046  -5.293  0.00  0.00    +0.087 A 
ATOM     30  N   UNL     1       1.443   2.107  -6.148  0.00  0.00    -0.360 N 
ATOM     31  H   UNL     1       1.560   2.064  -7.110  0.00  0.00    +0.165 HD
ATOM     32  C   UNL     1       1.125   3.243  -5.439  0.00  0.00    +0.047 A 
ATOM     33  C   UNL     1       1.043   2.877  -4.083  0.00  0.00    +0.003 A 
ATOM     34  C   UNL     1       0.725   3.837  -3.121  0.00  0.00    +0.010 A 
ATOM     35  C   UNL     1       0.492   5.129  -3.502  0.00  0.00    +0.001 A 
ATOM     36  C   UNL     1       0.567   5.494  -4.839  0.00  0.00    +0.002 A 
ATOM     37  C   UNL     1       0.888   4.564  -5.804  0.00  0.00    +0.026 A 
ENDBRANCH  27  28
ENDBRANCH   1  27
TORSDOF 7
