REMARK  Name = ZINC06553813
REMARK  8 active torsions:
REMARK  status: ('A' for Active; 'I' for Inactive)
REMARK    1  A    between atoms: C_1  and  C_2
REMARK    2  A    between atoms: C_2  and  O_3
REMARK    3  A    between atoms: O_3  and  C_4
REMARK    4  A    between atoms: C_6  and  C_11
REMARK    5  A    between atoms: C_9  and  O_10
REMARK    6  A    between atoms: C_19  and  O_31
REMARK    7  A    between atoms: C_22  and  C_23
REMARK    8  A    between atoms: C_22  and  N_66
REMARK                            x       y       z     vdW  Elec       q    Type
REMARK                         _______ _______ _______ _____ _____    ______ ____
ROOT
ATOM      1  C   UNL     1      -2.865   1.593  -0.035  0.00  0.00    -0.031 C 
ATOM      2  C   UNL     1      -2.182   1.084   1.236  0.00  0.00    +0.011 C 
ATOM      3  C   UNL     1      -2.930   1.597   2.466  0.00  0.00    +0.005 C 
ATOM      4  C   UNL     1      -2.914   3.127   2.476  0.00  0.00    +0.000 C 
ATOM      5  C   UNL     1      -1.466   3.619   2.517  0.00  0.00    +0.003 C 
ATOM      6  C   UNL     1      -0.721   3.112   1.281  0.00  0.00    +0.035 C 
ATOM      7  C   UNL     1      -0.733   1.581   1.267  0.00  0.00    +0.066 C 
ATOM      8  C   UNL     1      -0.013   1.086   0.008  0.00  0.00    +0.016 C 
ATOM      9  C   UNL     1      -0.756   1.594  -1.230  0.00  0.00    -0.075 C 
ATOM     10  N   UNL     1      -2.138   1.070  -1.211  0.00  0.00    +0.390 N 
ATOM     11  H   UNL     1      -2.104   0.045  -1.153  0.00  0.00    -0.080 HD
ENDROOT
BRANCH   1  14
ATOM     12  C   UNL     1      -6.629   1.468   0.266  0.00  0.00    +0.162 A 
ATOM     13  C   UNL     1      -5.321   1.925   0.308  0.00  0.00    +0.051 A 
ATOM     14  C   UNL     1      -4.286   1.093  -0.076  0.00  0.00    -0.057 A 
ATOM     15  C   UNL     1      -4.551  -0.199  -0.491  0.00  0.00    +0.006 A 
ATOM     16  C   UNL     1      -5.853  -0.662  -0.530  0.00  0.00    +0.049 A 
ATOM     17  C   UNL     1      -6.895   0.168  -0.153  0.00  0.00    +0.158 A 
BRANCH  17  18
ATOM     18  O   UNL     1      -8.177  -0.286  -0.191  0.00  0.00    -0.503 OA
ATOM     19  H   UNL     1      -8.472  -0.702   0.631  0.00  0.00    +0.292 HD
ENDBRANCH  17  18
BRANCH  12  20
ATOM     20  O   UNL     1      -7.649   2.287   0.638  0.00  0.00    -0.489 OA
BRANCH  20  22
ATOM     21  C   UNL     1      -8.570   4.375   1.433  0.00  0.00    +0.048 C 
ATOM     22  C   UNL     1      -7.301   3.608   1.056  0.00  0.00    +0.226 C 
ENDBRANCH  20  22
ENDBRANCH  12  20
ENDBRANCH   1  14
BRANCH   7  23
ATOM     23  O   UNL     1      -0.073   1.073   2.428  0.00  0.00    -0.388 OA
ATOM     24  H   UNL     1       0.852   1.344   2.505  0.00  0.00    +0.210 HD
ENDBRANCH   7  23
BRANCH  10  25
ATOM     25  C   UNL     1      -2.841   1.457  -2.452  0.00  0.00    +0.020 C 
BRANCH  25  26
ATOM     26  C   UNL     1      -2.996   2.954  -2.528  0.00  0.00    +0.199 C 
ATOM     27  O   UNL     1      -2.564   3.655  -1.637  0.00  0.00    -0.278 OA
ATOM     28  N   UNL     1      -3.615   3.514  -3.586  0.00  0.00    -0.303 N 
ATOM     29  C   UNL     1      -4.138   2.679  -4.676  0.00  0.00    +0.107 C 
ATOM     30  C   UNL     1      -5.620   3.026  -4.889  0.00  0.00    +0.019 C 
ATOM     31  C   UNL     1      -5.755   4.531  -5.131  0.00  0.00    +0.003 C 
ATOM     32  C   UNL     1      -5.254   5.294  -3.902  0.00  0.00    +0.019 C 
ATOM     33  C   UNL     1      -3.774   4.972  -3.675  0.00  0.00    +0.107 C 
ENDBRANCH  25  26
ENDBRANCH  10  25
TORSDOF 7
