REMARK  Name = ZINC00161266
REMARK  6 active torsions:
REMARK  status: ('A' for Active; 'I' for Inactive)
REMARK    1  A    between atoms: C_1  and  C_2
REMARK    2  A    between atoms: C_2  and  O_19
REMARK    3  A    between atoms: C_4  and  C_17
REMARK    4  A    between atoms: C_4  and  C_18
REMARK    5  A    between atoms: N_5  and  C_16
REMARK    6  A    between atoms: N_8  and  C_9
REMARK                            x       y       z     vdW  Elec       q    Type
REMARK                         _______ _______ _______ _____ _____    ______ ____
ROOT
ATOM      1  C   UNL     1      -0.495   1.646   0.686  0.00  0.00    +0.064 C 
ATOM      2  C   UNL     1      -0.348   0.201   0.205  0.00  0.00    +0.140 C 
ATOM      3  C   UNL     1      -1.579  -0.607   0.629  0.00  0.00    +0.080 C 
ATOM      4  C   UNL     1      -1.358  -2.073   0.239  0.00  0.00    +0.037 C 
ATOM      5  N   UNL     1      -0.107  -2.545   0.836  0.00  0.00    -0.283 N 
ATOM      6  C   UNL     1       0.911  -1.706   1.077  0.00  0.00    +0.311 C 
ATOM      7  O   UNL     1       1.932  -2.152   1.565  0.00  0.00    -0.252 OA
ATOM      8  N   UNL     1       0.848  -0.394   0.803  0.00  0.00    -0.227 N 
ATOM      9  C   UNL     1       0.035  -3.963   1.175  0.00  0.00    +0.134 C 
ATOM     10  C   UNL     1      -1.274  -2.190  -1.284  0.00  0.00    +0.031 C 
ATOM     11  C   UNL     1      -2.522  -2.920   0.755  0.00  0.00    +0.031 C 
ENDROOT
BRANCH   8  12
ATOM     12  C   UNL     1       1.947   0.421   1.094  0.00  0.00    +0.041 A 
ATOM     13  C   UNL     1       2.853   0.750   0.095  0.00  0.00    +0.025 A 
ATOM     14  C   UNL     1       3.938   1.555   0.385  0.00  0.00    +0.022 A 
ATOM     15  C   UNL     1       4.122   2.033   1.671  0.00  0.00    +0.041 A 
ATOM     16  C   UNL     1       3.220   1.707   2.668  0.00  0.00    +0.022 A 
ATOM     17  C   UNL     1       2.131   0.907   2.382  0.00  0.00    +0.025 A 
ATOM     18 CL   UNL     1       5.485   3.045   2.032  0.00  0.00    -0.084 Cl
ENDBRANCH   8  12
BRANCH   2  19
ATOM     19  O   UNL     1      -0.231   0.182  -1.219  0.00  0.00    -0.371 OA
ATOM     20  H   UNL     1       0.530   0.673  -1.558  0.00  0.00    +0.212 HD
ENDBRANCH   2  19
TORSDOF 2
