REMARK  Name = ZINC35544491
REMARK  8 active torsions:
REMARK  status: ('A' for Active; 'I' for Inactive)
REMARK    1  A    between atoms: C_1  and  C_2
REMARK    2  A    between atoms: C_2  and  O_3
REMARK    3  A    between atoms: O_3  and  C_4
REMARK    4  A    between atoms: C_4  and  C_6
REMARK    5  A    between atoms: C_13  and  C_15
REMARK    6  A    between atoms: C_20  and  N_39
REMARK    7  A    between atoms: N_28  and  C_31
REMARK    8  A    between atoms: C_31  and  C_32
REMARK                            x       y       z     vdW  Elec       q    Type
REMARK                         _______ _______ _______ _____ _____    ______ ____
ROOT
ATOM      1  C   UNL     1      -5.935  -6.072  -0.517  0.00  0.00    +0.098 C 
ATOM      2  C   UNL     1      -5.962  -6.729   0.863  0.00  0.00    +0.051 C 
ATOM      3  C   UNL     1      -4.969  -7.862   0.897  0.00  0.00    -0.023 A 
ATOM      4  C   UNL     1      -4.427  -8.249   2.111  0.00  0.00    +0.038 A 
ATOM      5  C   UNL     1      -3.511  -9.282   2.164  0.00  0.00    +0.127 A 
ATOM      6  C   UNL     1      -3.133  -9.933   1.004  0.00  0.00    +0.034 A 
ATOM      7  C   UNL     1      -3.672  -9.555  -0.208  0.00  0.00    +0.025 A 
ATOM      8  C   UNL     1      -4.596  -8.515  -0.264  0.00  0.00    +0.033 A 
ATOM      9  N   UNL     1      -5.136  -8.160  -1.510  0.00  0.00    -0.329 N 
ATOM     10  C   UNL     1      -6.167  -7.138  -1.595  0.00  0.00    +0.069 C 
ATOM     11  C   UNL     1      -6.237  -6.458  -2.953  0.00  0.00    -0.055 C 
ATOM     12  N   UNL     1      -6.017  -7.402  -4.048  0.00  0.00    +0.388 N 
ATOM     13  C   UNL     1      -4.668  -7.974  -3.918  0.00  0.00    -0.059 C 
ATOM     14  C   UNL     1      -4.643  -8.879  -2.688  0.00  0.00    +0.087 C 
ATOM     15  H   UNL     1      -6.703  -8.140  -4.001  0.00  0.00    -0.081 HD
ENDROOT
BRANCH   1  22
ATOM     16  C   UNL     1      -3.159  -2.203  -0.980  0.00  0.00    +0.115 C 
ATOM     17  C   UNL     1      -4.157  -1.375  -0.166  0.00  0.00    +0.018 C 
ATOM     18  C   UNL     1      -5.526  -2.059  -0.186  0.00  0.00    +0.020 C 
ATOM     19  C   UNL     1      -5.409  -3.444   0.458  0.00  0.00    +0.108 C 
ATOM     20  N   UNL     1      -4.349  -4.196  -0.227  0.00  0.00    -0.300 N 
ATOM     21  C   UNL     1      -3.016  -3.591  -0.345  0.00  0.00    +0.122 C 
ATOM     22  C   UNL     1      -4.595  -5.419  -0.737  0.00  0.00    +0.221 C 
ATOM     23  O   UNL     1      -3.737  -5.995  -1.373  0.00  0.00    -0.275 OA
BRANCH  16  24
ATOM     24  C   UNL     1      -1.820  -1.513  -0.987  0.00  0.00    +0.312 C 
ATOM     25  O   UNL     1      -0.850  -2.071  -0.533  0.00  0.00    -0.250 OA
BRANCH  24  26
ATOM     26  O   UNL     1      -1.705  -0.277  -1.497  0.00  0.00    -0.465 OA
BRANCH  26  28
ATOM     27  C   UNL     1      -0.472   1.715  -2.091  0.00  0.00    +0.048 C 
ATOM     28  C   UNL     1      -0.406   0.318  -1.471  0.00  0.00    +0.229 C 
ENDBRANCH  26  28
ENDBRANCH  24  26
ENDBRANCH  16  24
ENDBRANCH   1  22
BRANCH   5  29
ATOM     29  N   UNL     1      -2.935  -9.692   3.464  0.00  0.00    +0.056 N 
ATOM     30  O   UNL     1      -3.265  -9.123   4.478  0.00  0.00    -0.126 OA
ATOM     31  O   UNL     1      -2.133 -10.596   3.511  0.00  0.00    -0.126 OA
ENDBRANCH   5  29
BRANCH  12  32
ATOM     32  C   UNL     1      -6.132  -6.700  -5.333  0.00  0.00    +0.019 C 
BRANCH  32  33
ATOM     33  C   UNL     1      -6.026  -7.695  -6.460  0.00  0.00    +0.199 C 
ATOM     34  O   UNL     1      -5.870  -8.873  -6.216  0.00  0.00    -0.278 OA
ATOM     35  N   UNL     1      -6.104  -7.276  -7.739  0.00  0.00    -0.303 N 
ATOM     36  C   UNL     1      -6.285  -5.883  -8.174  0.00  0.00    +0.108 C 
ATOM     37  C   UNL     1      -6.343  -5.889  -9.716  0.00  0.00    +0.020 C 
ATOM     38  C   UNL     1      -6.760  -7.348 -10.042  0.00  0.00    +0.020 C 
ATOM     39  C   UNL     1      -6.017  -8.137  -8.932  0.00  0.00    +0.108 C 
ENDBRANCH  32  33
ENDBRANCH  12  32
TORSDOF 7
