REMARK  Name = ZINC40346995
REMARK  5 active torsions:
REMARK  status: ('A' for Active; 'I' for Inactive)
REMARK    1  A    between atoms: C_3  and  S_9
REMARK    2  A    between atoms: C_4  and  N_8
REMARK    3  A    between atoms: S_9  and  N_12
REMARK    4  A    between atoms: N_12  and  C_13
REMARK    5  A    between atoms: C_13  and  C_14
REMARK                            x       y       z     vdW  Elec       q    Type
REMARK                         _______ _______ _______ _____ _____    ______ ____
ROOT
ATOM      1  S   UNL     1       3.872   2.253   0.019  0.00  0.00    +0.060 S 
ATOM      2  O   UNL     1       4.711   1.634  -0.946  0.00  0.00    -0.153 OA
ATOM      3  O   UNL     1       3.396   3.584  -0.127  0.00  0.00    -0.153 OA
ENDROOT
BRANCH   1   6
ATOM      4  C   UNL     1       1.206  -0.714  -0.469  0.00  0.00    +0.017 A 
ATOM      5  C   UNL     1       2.321   0.094  -0.598  0.00  0.00    +0.031 A 
ATOM      6  C   UNL     1       2.450   1.226   0.183  0.00  0.00    +0.126 A 
ATOM      7  C   UNL     1       1.458   1.553   1.099  0.00  0.00    +0.052 A 
ATOM      8  C   UNL     1       0.339   0.741   1.226  0.00  0.00    +0.040 A 
ATOM      9  C   UNL     1       0.216  -0.391   0.442  0.00  0.00    +0.020 A 
ATOM     10 BR   UNL     1      -1.307  -1.499   0.614  0.00  0.00    -0.050 Br
BRANCH   7  11
ATOM     11  N   UNL     1       1.585   2.697   1.890  0.00  0.00    -0.356 N 
ATOM     12  H   UNL     1       2.337   3.296   1.759  0.00  0.00    +0.142 HD
ATOM     13  H   UNL     1       0.923   2.892   2.572  0.00  0.00    +0.142 HD
ENDBRANCH   7  11
ENDBRANCH   1   6
BRANCH   1  14
ATOM     14  N   UNL     1       4.686   2.197   1.460  0.00  0.00    -0.185 NA
ATOM     15  H   UNL     1       4.767   2.996   2.003  0.00  0.00    +0.148 HD
BRANCH  14  16
ATOM     16  C   UNL     1       5.283   0.939   1.915  0.00  0.00    +0.148 C 
BRANCH  16  17
ATOM     17  C   UNL     1       6.264   1.220   3.023  0.00  0.00    +0.006 A 
ATOM     18  C   UNL     1       6.051   1.265   4.361  0.00  0.00    +0.013 A 
ATOM     19  C   UNL     1       7.112   1.546   5.201  0.00  0.00    +0.023 A 
ATOM     20  C   UNL     1       8.336   1.768   4.661  0.00  0.00    +0.055 A 
ATOM     21  S   UNL     1       8.011   1.574   2.916  0.00  0.00    -0.085 S 
ATOM     22 BR   UNL     1       9.966   2.172   5.530  0.00  0.00    -0.043 Br
ENDBRANCH  16  17
ENDBRANCH  14  16
ENDBRANCH   1  14
TORSDOF 5
