REMARK  Name = ZINC21060775
REMARK  5 active torsions:
REMARK  status: ('A' for Active; 'I' for Inactive)
REMARK    1  A    between atoms: C_1  and  S_2
REMARK    2  A    between atoms: S_2  and  C_5
REMARK    3  A    between atoms: C_9  and  C_11
REMARK    4  A    between atoms: C_11  and  C_13
REMARK    5  A    between atoms: C_11  and  N_21
REMARK                            x       y       z     vdW  Elec       q    Type
REMARK                         _______ _______ _______ _____ _____    ______ ____
ROOT
ATOM      1  C   UNL     1       2.451   3.937   0.001  0.00  0.00    -0.012 C 
ENDROOT
BRANCH   1   2
ATOM      2  C   UNL     1       3.021   3.974   1.395  0.00  0.00    -0.043 A 
ATOM      3  C   UNL     1       4.037   3.106   1.750  0.00  0.00    +0.018 A 
ATOM      4  C   UNL     1       4.560   3.140   3.030  0.00  0.00    +0.018 A 
ATOM      5  C   UNL     1       4.067   4.044   3.955  0.00  0.00    +0.016 A 
ATOM      6  C   UNL     1       3.052   4.912   3.600  0.00  0.00    +0.016 A 
ATOM      7  C   UNL     1       2.533   4.881   2.318  0.00  0.00    +0.020 A 
ATOM      8 BR   UNL     1       1.149   6.074   1.830  0.00  0.00    -0.050 Br
ATOM      9 BR   UNL     1       5.948   1.952   3.516  0.00  0.00    -0.050 Br
ENDBRANCH   1   2
BRANCH   1  14
ATOM     10  C   UNL     1      -1.238   3.133   0.029  0.00  0.00    +0.088 A 
ATOM     11  C   UNL     1      -1.219   1.750   0.017  0.00  0.00    +0.027 A 
ATOM     12  C   UNL     1      -0.013   1.076   0.008  0.00  0.00    +0.002 A 
ATOM     13  C   UNL     1       1.175   1.783   0.000  0.00  0.00    +0.002 A 
ATOM     14  C   UNL     1       1.157   3.165   0.008  0.00  0.00    -0.056 A 
ATOM     15  C   UNL     1      -0.050   3.840   0.023  0.00  0.00    +0.029 A 
BRANCH  10  17
ATOM     16  C   UNL     1      -3.197   4.231  -1.701  0.00  0.00    +0.200 C 
ATOM     17  S   UNL     1      -2.775   3.993   0.047  0.00  0.00    -0.006 S 
ATOM     18  O   UNL     1      -3.689   3.089   0.653  0.00  0.00    -0.170 OA
ATOM     19  O   UNL     1      -2.484   5.244   0.655  0.00  0.00    -0.170 OA
ENDBRANCH  10  17
ENDBRANCH   1  14
BRANCH   1  20
ATOM     20  N   UNL     1       3.407   3.280  -0.901  0.00  0.00    +0.385 N 
ATOM     21  H   UNL     1       4.352   3.843  -0.907  0.00  0.00    -0.089 HD
ATOM     22  H   UNL     1       2.991   3.253  -1.919  0.00  0.00    -0.089 HD
ATOM     23  H   UNL     1       3.594   2.254  -0.554  0.00  0.00    -0.089 HD
ENDBRANCH   1  20
TORSDOF 4
