REMARK  Name = ZINC39466044
REMARK  7 active torsions:
REMARK  status: ('A' for Active; 'I' for Inactive)
REMARK    1  A    between atoms: C_1  and  C_2
REMARK    2  A    between atoms: C_2  and  C_3
REMARK    3  A    between atoms: C_2  and  S_4
REMARK    4  A    between atoms: S_4  and  C_7
REMARK    5  A    between atoms: P_18  and  S_24
REMARK    6  A    between atoms: S_24  and  O_27
REMARK    7  A    between atoms: O_27  and  C_28
REMARK                            x       y       z     vdW  Elec       q    Type
REMARK                         _______ _______ _______ _____ _____    ______ ____
ROOT
ATOM      1  C   UNL     1      -1.536  -2.381   0.152  0.00  0.00    +0.107 A 
ATOM      2  C   UNL     1      -2.002  -3.034   1.276  0.00  0.00    +0.032 A 
ATOM      3  C   UNL     1      -1.875  -4.410   1.389  0.00  0.00    -0.039 A 
ATOM      4  C   UNL     1      -1.280  -5.133   0.377  0.00  0.00    -0.022 A 
ATOM      5  C   UNL     1      -0.813  -4.475  -0.752  0.00  0.00    +0.027 A 
ATOM      6  C   UNL     1      -0.946  -3.105  -0.868  0.00  0.00    +0.066 A 
ATOM      7 CL   UNL     1      -0.366  -2.293  -2.288  0.00  0.00    -0.082 Cl
ATOM      8  C   UNL     1      -1.115  -6.628   0.452  0.00  0.00    +0.130 C 
ATOM      9  C   UNL     1      -1.461  -7.237  -0.910  0.00  0.00    +0.195 C 
ATOM     10  O   UNL     1      -1.188  -8.651  -0.866  0.00  0.00    -0.296 OA
ATOM     11  P   UNL     1      -1.790  -9.514   0.375  0.00  0.00    +0.458 P 
ATOM     12  O   UNL     1      -3.208  -9.852   0.122  0.00  0.00    -0.243 OA
ATOM     13  N   UNL     1      -1.664  -8.534   1.700  0.00  0.00    -0.158 NA
ATOM     14  N   UNL     1      -1.964  -7.202   1.496  0.00  0.00    -0.224 NA
ATOM     15  C   UNL     1      -1.804  -6.472   2.763  0.00  0.00    +0.108 C 
ATOM     16  C   UNL     1      -2.398  -5.082   2.633  0.00  0.00    +0.052 C 
ATOM     17  H   UNL     1      -1.404  -8.881   2.568  0.00  0.00    +0.152 HD
ENDROOT
BRANCH   1  18
ATOM     18  S   UNL     1      -1.700  -0.632   0.015  0.00  0.00    +0.001 S 
ATOM     19  O   UNL     1      -2.359  -0.234   1.209  0.00  0.00    -0.169 OA
ATOM     20  O   UNL     1      -2.308  -0.423  -1.252  0.00  0.00    -0.169 OA
BRANCH  18  22
ATOM     21  C   UNL     1      -0.019   1.526   0.010  0.00  0.00    +0.032 C 
ATOM     22  C   UNL     1       0.002  -0.004   0.002  0.00  0.00    +0.130 C 
ATOM     23  C   UNL     1       0.742  -0.511   1.242  0.00  0.00    +0.032 C 
ENDBRANCH  18  22
ENDBRANCH   1  18
BRANCH  11  24
ATOM     24  S   UNL     1      -0.655 -11.282   0.656  0.00  0.00    +0.211 S 
ATOM     25  O   UNL     1       0.701 -10.878   0.790  0.00  0.00    -0.126 OA
ATOM     26  O   UNL     1      -1.326 -12.041   1.652  0.00  0.00    -0.126 OA
BRANCH  24  27
ATOM     27  O   UNL     1      -0.744 -12.084  -0.635  0.00  0.00    -0.339 OA
BRANCH  27  28
ATOM     28  C   UNL     1       0.014 -11.587  -1.647  0.00  0.00    +0.157 A 
ATOM     29  C   UNL     1      -0.520 -10.650  -2.520  0.00  0.00    +0.048 A 
ATOM     30  C   UNL     1       0.252 -10.146  -3.548  0.00  0.00    +0.004 A 
ATOM     31  C   UNL     1       1.557 -10.574  -3.709  0.00  0.00    +0.000 A 
ATOM     32  C   UNL     1       2.091 -11.508  -2.841  0.00  0.00    +0.004 A 
ATOM     33  C   UNL     1       1.325 -12.011  -1.807  0.00  0.00    +0.048 A 
ENDBRANCH  27  28
ENDBRANCH  24  27
ENDBRANCH  11  24
TORSDOF 5
