REMARK  Name = ZINC63562109
REMARK  3 active torsions:
REMARK  status: ('A' for Active; 'I' for Inactive)
REMARK    1  A    between atoms: C_6  and  C_7
REMARK    2  A    between atoms: C_9  and  C_13
REMARK    3  A    between atoms: C_21  and  C_23
REMARK                            x       y       z     vdW  Elec       q    Type
REMARK                         _______ _______ _______ _____ _____    ______ ____
ROOT
ATOM      1  C   UNL     1      -3.317  -3.156   1.242  0.00  0.00    +0.246 C 
ATOM      2  O   UNL     1      -3.811  -2.568   2.180  0.00  0.00    -0.273 OA
ATOM      3  N   UNL     1      -3.115  -4.487   1.310  0.00  0.00    -0.296 N 
ATOM      4  C   UNL     1      -2.511  -5.211   0.183  0.00  0.00    +0.127 C 
ATOM      5  C   UNL     1      -1.281  -5.973   0.692  0.00  0.00    +0.127 C 
ATOM      6  N   UNL     1      -1.660  -6.726   1.895  0.00  0.00    -0.292 N 
ATOM      7  C   UNL     1      -2.264  -6.002   3.023  0.00  0.00    +0.127 C 
ATOM      8  C   UNL     1      -3.489  -5.239   2.516  0.00  0.00    +0.127 C 
ATOM      9  C   UNL     1      -1.458  -8.056   1.964  0.00  0.00    +0.282 C 
ATOM     10  O   UNL     1      -1.684  -8.653   3.000  0.00  0.00    -0.267 OA
ENDROOT
BRANCH   9  11
ATOM     11  C   UNL     1      -0.966  -8.784   0.791  0.00  0.00    +0.191 A 
ATOM     12  C   UNL     1      -0.831 -10.139   0.686  0.00  0.00    +0.056 A 
ATOM     13  C   UNL     1      -0.331 -10.397  -0.599  0.00  0.00    +0.058 A 
ATOM     14  C   UNL     1      -0.184  -9.202  -1.216  0.00  0.00    +0.171 A 
ATOM     15  O   UNL     1      -0.574  -8.233  -0.377  0.00  0.00    -0.444 OA
ATOM     16 BR   UNL     1       0.458  -8.942  -2.976  0.00  0.00    -0.008 Br
ENDBRANCH   9  11
BRANCH   1  19
ATOM     17  C   UNL     1      -1.362  -0.772  -0.019  0.00  0.00    +0.092 C 
ATOM     18  C   UNL     1      -1.437  -2.117  -0.014  0.00  0.00    +0.040 C 
ATOM     19  C   UNL     1      -2.929  -2.398  -0.002  0.00  0.00    +0.238 C 
ATOM     20  N   UNL     1      -3.524  -1.051  -0.001  0.00  0.00    -0.170 NA
ATOM     21  N   UNL     1      -2.607  -0.228  -0.005  0.00  0.00    -0.153 NA
BRANCH  17  27
ATOM     22  C   UNL     1      -0.134   1.399  -0.029  0.00  0.00    +0.011 A 
ATOM     23  C   UNL     1       1.044   2.117  -0.040  0.00  0.00    +0.016 A 
ATOM     24  C   UNL     1       2.260   1.456  -0.053  0.00  0.00    +0.018 A 
ATOM     25  C   UNL     1       2.301   0.072  -0.055  0.00  0.00    +0.016 A 
ATOM     26  C   UNL     1       1.129  -0.655  -0.044  0.00  0.00    +0.011 A 
ATOM     27  C   UNL     1      -0.098   0.005  -0.031  0.00  0.00    +0.002 A 
ATOM     28 BR   UNL     1       3.870   2.447  -0.069  0.00  0.00    -0.050 Br
ENDBRANCH  17  27
ENDBRANCH   1  19
TORSDOF 3
