REMARK  Name = ZINC01182245
REMARK  6 active torsions:
REMARK  status: ('A' for Active; 'I' for Inactive)
REMARK    1  A    between atoms: C_1  and  C_2
REMARK    2  A    between atoms: C_2  and  O_3
REMARK    3  A    between atoms: O_3  and  C_4
REMARK    4  A    between atoms: C_6  and  C_12
REMARK    5  A    between atoms: C_9  and  O_10
REMARK    6  A    between atoms: C_17  and  C_22
REMARK                            x       y       z     vdW  Elec       q    Type
REMARK                         _______ _______ _______ _____ _____    ______ ____
ROOT
ATOM      1  C   UNL     1       0.629   3.269   1.846  0.00  0.00    +0.136 C 
ATOM      2  C   UNL     1       1.685   2.713   0.918  0.00  0.00    +0.036 C 
ATOM      3  C   UNL     1       1.512   1.715   0.039  0.00  0.00    +0.017 C 
ATOM      4  C   UNL     1       2.655   1.290  -0.870  0.00  0.00    +0.059 C 
ATOM      5  C   UNL     1       3.987   1.454  -0.139  0.00  0.00    +0.032 C 
ATOM      6  C   UNL     1       4.135   2.935   0.232  0.00  0.00    +0.088 C 
ATOM      7  C   UNL     1       2.943   3.348   1.042  0.00  0.00    +0.163 C 
ATOM      8  O   UNL     1       3.062   4.262   1.835  0.00  0.00    -0.292 OA
ATOM      9  N   UNL     1       0.362   1.016  -0.141  0.00  0.00    -0.316 N 
ATOM     10  C   UNL     1      -0.899   1.588  -0.282  0.00  0.00    +0.052 A 
ATOM     11  C   UNL     1      -1.645   1.462  -1.440  0.00  0.00    +0.025 A 
ATOM     12  C   UNL     1      -2.918   2.006  -1.489  0.00  0.00    +0.002 A 
ATOM     13  C   UNL     1      -3.436   2.666  -0.390  0.00  0.00    +0.002 A 
ATOM     14  C   UNL     1      -2.677   2.813   0.773  0.00  0.00    +0.025 A 
ATOM     15  C   UNL     1      -1.393   2.290   0.813  0.00  0.00    +0.049 A 
ATOM     16  N   UNL     1      -0.574   2.468   1.925  0.00  0.00    -0.331 N 
ATOM     17  H   UNL     1       0.424   0.049  -0.177  0.00  0.00    +0.152 HD
ATOM     18  H   UNL     1      -0.813   2.048   2.765  0.00  0.00    +0.147 HD
ENDROOT
BRANCH   1  21
ATOM     19  C   UNL     1       0.160   7.017   1.745  0.00  0.00    +0.163 A 
ATOM     20  C   UNL     1       0.503   5.746   2.178  0.00  0.00    +0.055 A 
ATOM     21  C   UNL     1       0.255   4.651   1.373  0.00  0.00    -0.018 A 
ATOM     22  C   UNL     1      -0.332   4.819   0.133  0.00  0.00    +0.025 A 
ATOM     23  C   UNL     1      -0.682   6.084  -0.304  0.00  0.00    +0.063 A 
ATOM     24  C   UNL     1      -0.435   7.187   0.499  0.00  0.00    +0.173 A 
ATOM     25 BR   UNL     1      -1.490   6.310  -1.999  0.00  0.00    -0.046 Br
BRANCH  24  26
ATOM     26  O   UNL     1      -0.774   8.432   0.070  0.00  0.00    -0.503 OA
ATOM     27  H   UNL     1      -0.075   8.883  -0.423  0.00  0.00    +0.292 HD
ENDBRANCH  24  26
BRANCH  19  28
ATOM     28  O   UNL     1       0.403   8.096   2.537  0.00  0.00    -0.489 OA
BRANCH  28  30
ATOM     29  C   UNL     1       1.210   9.169   4.546  0.00  0.00    +0.048 C 
ATOM     30  C   UNL     1       1.016   7.846   3.803  0.00  0.00    +0.226 C 
ENDBRANCH  28  30
ENDBRANCH  19  28
ENDBRANCH   1  21
BRANCH   5  31
ATOM     31  C   UNL     1       5.120   1.038  -1.040  0.00  0.00    -0.044 A 
ATOM     32  C   UNL     1       5.297   1.662  -2.261  0.00  0.00    +0.004 A 
ATOM     33  C   UNL     1       6.340   1.283  -3.086  0.00  0.00    +0.000 A 
ATOM     34  C   UNL     1       7.199   0.273  -2.695  0.00  0.00    +0.000 A 
ATOM     35  C   UNL     1       7.018  -0.355  -1.477  0.00  0.00    +0.000 A 
ATOM     36  C   UNL     1       5.979   0.028  -0.649  0.00  0.00    +0.004 A 
ENDBRANCH   5  31
TORSDOF 5
