REMARK  Name = ZINC03349562
REMARK  11 active torsions:
REMARK  status: ('A' for Active; 'I' for Inactive)
REMARK    1  A    between atoms: C_1  and  C_2
REMARK    2  A    between atoms: C_4  and  C_40
REMARK    3  A    between atoms: C_5  and  N_9
REMARK    4  A    between atoms: C_6  and  C_8
REMARK    5  A    between atoms: C_10  and  C_12
REMARK    6  A    between atoms: C_12  and  N_13
REMARK    7  A    between atoms: C_14  and  C_16
REMARK    8  A    between atoms: C_16  and  S_17
REMARK    9  A    between atoms: S_17  and  C_18
REMARK   10  A    between atoms: C_22  and  C_25
REMARK   11  A    between atoms: N_33  and  C_34
REMARK                            x       y       z     vdW  Elec       q    Type
REMARK                         _______ _______ _______ _____ _____    ______ ____
ROOT
ATOM      1  C   UNL     1       1.519 -11.315   5.663  0.00  0.00    +0.178 A 
ATOM      2  N   UNL     1       1.746 -10.377   6.561  0.00  0.00    -0.215 NA
ATOM      3  C   UNL     1       2.702 -10.522   7.472  0.00  0.00    +0.117 A 
ATOM      4  C   UNL     1       3.513 -11.669   7.526  0.00  0.00    +0.080 A 
ATOM      5  C   UNL     1       4.514 -11.667   8.588  0.00  0.00    +0.004 A 
ATOM      6  C   UNL     1       4.586 -10.597   9.413  0.00  0.00    +0.056 A 
ATOM      7  S   UNL     1       3.301  -9.520   8.808  0.00  0.00    -0.076 S 
ATOM      8  C   UNL     1       3.244 -12.669   6.541  0.00  0.00    +0.268 A 
ATOM      9  O   UNL     1       3.898 -13.698   6.513  0.00  0.00    -0.267 OA
ATOM     10  N   UNL     1       2.258 -12.464   5.649  0.00  0.00    -0.255 N 
ENDROOT
BRANCH   5  11
ATOM     11  C   UNL     1       5.436 -12.816   8.759  0.00  0.00    -0.017 A 
ATOM     12  C   UNL     1       4.933 -14.115   8.804  0.00  0.00    +0.008 A 
ATOM     13  C   UNL     1       5.795 -15.181   8.963  0.00  0.00    +0.001 A 
ATOM     14  C   UNL     1       7.156 -14.961   9.079  0.00  0.00    +0.000 A 
ATOM     15  C   UNL     1       7.661 -13.674   9.035  0.00  0.00    +0.001 A 
ATOM     16  C   UNL     1       6.809 -12.601   8.870  0.00  0.00    +0.008 A 
ENDBRANCH   5  11
BRANCH  10  17
ATOM     17  C   UNL     1       1.988 -13.444   4.685  0.00  0.00    +0.052 A 
ATOM     18  C   UNL     1       1.086 -14.463   4.963  0.00  0.00    +0.026 A 
ATOM     19  C   UNL     1       0.821 -15.428   4.010  0.00  0.00    +0.002 A 
ATOM     20  C   UNL     1       1.454 -15.380   2.782  0.00  0.00    +0.000 A 
ATOM     21  C   UNL     1       2.353 -14.367   2.503  0.00  0.00    +0.002 A 
ATOM     22  C   UNL     1       2.617 -13.396   3.449  0.00  0.00    +0.026 A 
ENDBRANCH  10  17
BRANCH   1  23
ATOM     23  S   UNL     1       0.242 -11.087   4.471  0.00  0.00    -0.078 S 
BRANCH  23  24
ATOM     24  C   UNL     1      -0.446  -9.457   4.872  0.00  0.00    +0.173 C 
BRANCH  24  26
ATOM     25  N   UNL     1      -2.227  -7.966   4.020  0.00  0.00    -0.306 N 
ATOM     26  C   UNL     1      -1.564  -9.134   3.913  0.00  0.00    +0.224 C 
ATOM     27  O   UNL     1      -1.866  -9.926   3.046  0.00  0.00    -0.275 OA
ATOM     28  H   UNL     1      -1.985  -7.333   4.714  0.00  0.00    +0.149 HD
BRANCH  25  29
ATOM     29  C   UNL     1      -3.313  -7.652   3.089  0.00  0.00    +0.200 C 
BRANCH  29  31
ATOM     30  N   UNL     1      -4.902  -5.798   2.692  0.00  0.00    -0.284 N 
ATOM     31  C   UNL     1      -3.885  -6.298   3.421  0.00  0.00    +0.234 C 
ATOM     32  O   UNL     1      -3.430  -5.658   4.346  0.00  0.00    -0.274 OA
ATOM     33  H   UNL     1      -5.318  -6.341   2.004  0.00  0.00    +0.155 HD
BRANCH  30  38
ATOM     34  C   UNL     1      -6.753  -0.521   3.645  0.00  0.00    +0.044 C 
ATOM     35  C   UNL     1      -6.262  -1.923   3.392  0.00  0.00    -0.050 A 
ATOM     36  C   UNL     1      -5.830  -2.285   2.129  0.00  0.00    +0.008 A 
ATOM     37  C   UNL     1      -5.379  -3.569   1.894  0.00  0.00    -0.029 A 
ATOM     38  C   UNL     1      -5.358  -4.497   2.927  0.00  0.00    +0.039 A 
ATOM     39  C   UNL     1      -5.792  -4.129   4.194  0.00  0.00    -0.029 A 
ATOM     40  C   UNL     1      -6.237  -2.842   4.424  0.00  0.00    +0.008 A 
ATOM     41  C   UNL     1      -5.771  -5.133   5.319  0.00  0.00    +0.045 C 
ATOM     42  C   UNL     1      -4.910  -3.963   0.517  0.00  0.00    +0.045 C 
ENDBRANCH  30  38
ENDBRANCH  29  31
ENDBRANCH  25  29
ENDBRANCH  24  26
ENDBRANCH  23  24
ENDBRANCH   1  23
TORSDOF 8
