REMARK  Name = ZINC12493485
REMARK  7 active torsions:
REMARK  status: ('A' for Active; 'I' for Inactive)
REMARK    1  A    between atoms: C_1  and  C_2
REMARK    2  A    between atoms: C_7  and  O_8
REMARK    3  A    between atoms: O_8  and  C_9
REMARK    4  A    between atoms: C_9  and  C_10
REMARK    5  A    between atoms: N_12  and  N_13
REMARK    6  A    between atoms: C_14  and  C_15
REMARK    7  A    between atoms: C_24  and  O_25
REMARK                            x       y       z     vdW  Elec       q    Type
REMARK                         _______ _______ _______ _____ _____    ______ ____
ROOT
ATOM      1  C   UNL     1      -2.563   9.406   0.072  0.00  0.00    +0.270 C 
ATOM      2  O   UNL     1      -1.508  10.005   0.065  0.00  0.00    -0.270 OA
ATOM      3  N   UNL     1      -2.572   8.058   0.066  0.00  0.00    -0.204 N 
ATOM      4  H   UNL     1      -3.415   7.579   0.072  0.00  0.00    +0.177 HD
ENDROOT
BRANCH   3   5
ATOM      5  N   UNL     1      -1.363   7.350   0.052  0.00  0.00    -0.187 NA
ATOM      6  C   UNL     1      -1.372   6.050   0.046  0.00  0.00    +0.142 C 
BRANCH   6   7
ATOM      7  C   UNL     1      -0.104   5.307   0.031  0.00  0.00    +0.044 A 
ATOM      8  C   UNL     1      -0.096   3.845   0.024  0.00  0.00    -0.006 A 
ATOM      9  C   UNL     1      -1.286   3.107   0.031  0.00  0.00    +0.009 A 
ATOM     10  C   UNL     1      -1.234   1.745   0.017  0.00  0.00    +0.001 A 
ATOM     11  C   UNL     1      -0.013   1.076   0.008  0.00  0.00    +0.001 A 
ATOM     12  C   UNL     1       1.163   1.762   0.000  0.00  0.00    +0.008 A 
ATOM     13  C   UNL     1       1.148   3.168   0.008  0.00  0.00    -0.017 A 
ATOM     14  C   UNL     1       2.342   3.910   0.000  0.00  0.00    +0.012 A 
ATOM     15  C   UNL     1       2.316   5.269   0.007  0.00  0.00    +0.046 A 
ATOM     16  C   UNL     1       1.117   5.981   0.022  0.00  0.00    +0.126 A 
BRANCH  16  17
ATOM     17  O   UNL     1       1.138   7.338   0.028  0.00  0.00    -0.506 OA
ATOM     18  H   UNL     1       1.135   7.735  -0.854  0.00  0.00    +0.292 HD
ENDBRANCH  16  17
ENDBRANCH   6   7
ENDBRANCH   3   5
BRANCH   1  19
ATOM     19  C   UNL     1      -3.863  10.168   0.088  0.00  0.00    +0.326 C 
BRANCH  19  20
ATOM     20  O   UNL     1      -3.592  11.571   0.091  0.00  0.00    -0.482 OA
BRANCH  20  27
ATOM     21  C   UNL     1      -3.079  14.349   0.111  0.00  0.00    +0.047 C 
ATOM     22  C   UNL     1      -4.474  13.780   0.115  0.00  0.00    -0.008 A 
ATOM     23  C   UNL     1      -5.566  14.628   0.124  0.00  0.00    +0.022 A 
ATOM     24  C   UNL     1      -6.847  14.106   0.134  0.00  0.00    +0.018 A 
ATOM     25  C   UNL     1      -7.039  12.736   0.129  0.00  0.00    +0.019 A 
ATOM     26  C   UNL     1      -5.950  11.886   0.115  0.00  0.00    +0.047 A 
ATOM     27  C   UNL     1      -4.664  12.406   0.105  0.00  0.00    +0.124 A 
ATOM     28 BR   UNL     1      -8.339  15.268   0.153  0.00  0.00    -0.050 Br
ENDBRANCH  20  27
ENDBRANCH  19  20
ENDBRANCH   1  19
TORSDOF 6
