REMARK  Name = ZINC06810003
REMARK  9 active torsions:
REMARK  status: ('A' for Active; 'I' for Inactive)
REMARK    1  A    between atoms: C_1  and  C_2
REMARK    2  A    between atoms: C_3  and  C_22
REMARK    3  A    between atoms: N_6  and  C_7
REMARK    4  A    between atoms: N_8  and  C_16
REMARK    5  A    between atoms: C_10  and  C_12
REMARK    6  A    between atoms: C_12  and  O_14
REMARK    7  A    between atoms: O_14  and  C_15
REMARK    8  A    between atoms: C_22  and  O_24
REMARK    9  A    between atoms: O_24  and  C_25
REMARK                            x       y       z     vdW  Elec       q    Type
REMARK                         _______ _______ _______ _____ _____    ______ ____
ROOT
ATOM      1  C   UNL     1      -2.846   1.546  -0.004  0.00  0.00    +0.062 C 
ATOM      2  C   UNL     1      -2.036   1.787   1.244  0.00  0.00    +0.027 C 
ATOM      3  C   UNL     1      -2.668   2.220   2.363  0.00  0.00    +0.113 C 
ATOM      4  S   UNL     1      -1.340   2.368   3.555  0.00  0.00    -0.058 S 
ATOM      5  C   UNL     1       0.007   1.819   2.454  0.00  0.00    +0.229 C 
ATOM      6  N   UNL     1      -0.698   1.558   1.213  0.00  0.00    -0.296 N 
ATOM      7  C   UNL     1      -0.013   1.086   0.008  0.00  0.00    +0.133 C 
ATOM      8  N   UNL     1       0.774   0.715   3.004  0.00  0.00    -0.180 N 
ATOM      9  N   UNL     1       2.117   0.991   3.207  0.00  0.00    -0.162 NA
ATOM     10  C   UNL     1       2.653   2.152   2.926  0.00  0.00    +0.203 C 
ATOM     11  S   UNL     1       1.282   3.113   2.292  0.00  0.00    -0.039 S 
ENDROOT
BRANCH   8  12
ATOM     12  C   UNL     1       0.205  -0.523   3.305  0.00  0.00    +0.056 A 
ATOM     13  C   UNL     1      -1.150  -0.738   3.085  0.00  0.00    +0.025 A 
ATOM     14  C   UNL     1      -1.709  -1.967   3.378  0.00  0.00    +0.002 A 
ATOM     15  C   UNL     1      -0.923  -2.978   3.900  0.00  0.00    +0.000 A 
ATOM     16  C   UNL     1       0.425  -2.766   4.126  0.00  0.00    +0.002 A 
ATOM     17  C   UNL     1       0.991  -1.542   3.830  0.00  0.00    +0.025 A 
ENDBRANCH   8  12
BRANCH  10  18
ATOM     18  C   UNL     1       4.050   2.568   3.092  0.00  0.00    +0.366 C 
ATOM     19  O   UNL     1       4.391   3.693   2.780  0.00  0.00    -0.243 OA
BRANCH  18  20
ATOM     20  O   UNL     1       4.957   1.703   3.590  0.00  0.00    -0.463 OA
ATOM     21  C   UNL     1       6.321   2.183   3.726  0.00  0.00    +0.280 C 
ENDBRANCH  18  20
ENDBRANCH  10  18
BRANCH   3  22
ATOM     22  C   UNL     1      -4.045   2.496   2.543  0.00  0.00    +0.347 C 
ATOM     23  O   UNL     1      -4.823   2.342   1.620  0.00  0.00    -0.244 OA
BRANCH  22  24
ATOM     24  O   UNL     1      -4.496   2.929   3.740  0.00  0.00    -0.464 OA
ATOM     25  C   UNL     1      -5.897   3.188   3.850  0.00  0.00    +0.280 C 
ENDBRANCH  22  24
ENDBRANCH   3  22
TORSDOF 5
