REMARK  Name = ZINC12374773
REMARK  5 active torsions:
REMARK  status: ('A' for Active; 'I' for Inactive)
REMARK    1  A    between atoms: C_6  and  N_7
REMARK    2  A    between atoms: N_10  and  C_13
REMARK    3  A    between atoms: N_17  and  N_18
REMARK    4  A    between atoms: N_18  and  C_19
REMARK    5  A    between atoms: C_19  and  N_21
REMARK                            x       y       z     vdW  Elec       q    Type
REMARK                         _______ _______ _______ _____ _____    ______ ____
ROOT
ATOM      1  C   UNL     1      -0.768   1.601  -1.224  0.00  0.00    +0.148 C 
ATOM      2  C   UNL     1      -0.013   1.086   0.008  0.00  0.00    +0.087 C 
ATOM      3  C   UNL     1      -0.737   1.582   1.246  0.00  0.00    +0.094 C 
ATOM      4  N   UNL     1      -0.106   2.081   2.242  0.00  0.00    -0.185 NA
ATOM      5  C   UNL     1      -2.256   1.453   1.236  0.00  0.00    +0.298 C 
ATOM      6  O   UNL     1      -2.548   0.072   0.936  0.00  0.00    -0.343 OA
ATOM      7  C   UNL     1      -2.497  -0.058  -0.497  0.00  0.00    +0.197 C 
ATOM      8  C   UNL     1      -2.272   1.375  -1.025  0.00  0.00    +0.172 C 
ATOM      9  O   UNL     1      -2.711   2.200   0.081  0.00  0.00    -0.338 OA
ENDROOT
BRANCH   1  13
ATOM     10  N   UNL     1       0.109   4.940  -2.207  0.00  0.00    -0.188 N 
ATOM     11  C   UNL     1       0.062   3.617  -2.472  0.00  0.00    +0.201 A 
ATOM     12  S   UNL     1       0.615   2.835  -3.891  0.00  0.00    -0.009 S 
ATOM     13  N   UNL     1      -0.507   3.032  -1.396  0.00  0.00    -0.215 N 
ATOM     14  N   UNL     1      -0.807   4.045  -0.476  0.00  0.00    -0.044 NA
ATOM     15  N   UNL     1      -0.450   5.135  -0.938  0.00  0.00    -0.040 NA
BRANCH  10  21
ATOM     16  C   UNL     1       1.726   5.670  -3.847  0.00  0.00    +0.029 A 
ATOM     17  C   UNL     1       2.228   6.652  -4.679  0.00  0.00    +0.016 A 
ATOM     18  C   UNL     1       1.639   7.903  -4.707  0.00  0.00    +0.014 A 
ATOM     19  C   UNL     1       0.543   8.173  -3.907  0.00  0.00    +0.016 A 
ATOM     20  C   UNL     1       0.034   7.193  -3.078  0.00  0.00    +0.029 A 
ATOM     21  C   UNL     1       0.623   5.936  -3.047  0.00  0.00    +0.070 A 
ATOM     22  I   UNL     1       2.408   9.393  -5.963  0.00  0.00    -0.044 I 
ENDBRANCH  10  21
ENDBRANCH   1  13
BRANCH   4  23
ATOM     23  N   UNL     1      -0.814   2.527   3.366  0.00  0.00    -0.218 N 
ATOM     24  H   UNL     1      -1.781   2.458   3.389  0.00  0.00    +0.176 HD
BRANCH  23  25
ATOM     25  C   UNL     1      -0.150   3.053   4.415  0.00  0.00    +0.147 C 
ATOM     26  S   UNL     1      -1.014   3.599   5.788  0.00  0.00    -0.017 S 
BRANCH  25  27
ATOM     27  N   UNL     1       1.194   3.150   4.382  0.00  0.00    -0.339 N 
ATOM     28  H   UNL     1       1.683   2.841   3.604  0.00  0.00    +0.144 HD
ATOM     29  H   UNL     1       1.671   3.528   5.137  0.00  0.00    +0.144 HD
ENDBRANCH  25  27
ENDBRANCH  23  25
ENDBRANCH   4  23
TORSDOF 5
