REMARK  Name = ZINC31641158
REMARK  11 active torsions:
REMARK  status: ('A' for Active; 'I' for Inactive)
REMARK    1  A    between atoms: C_1  and  C_2
REMARK    2  A    between atoms: C_2  and  O_3
REMARK    3  A    between atoms: O_3  and  C_4
REMARK    4  A    between atoms: C_4  and  C_6
REMARK    5  A    between atoms: C_10  and  N_11
REMARK    6  A    between atoms: C_12  and  C_14
REMARK    7  A    between atoms: C_14  and  N_15
REMARK    8  A    between atoms: C_25  and  C_31
REMARK    9  A    between atoms: C_25  and  C_32
REMARK   10  A    between atoms: C_27  and  C_29
REMARK   11  A    between atoms: C_27  and  C_30
REMARK                            x       y       z     vdW  Elec       q    Type
REMARK                         _______ _______ _______ _____ _____    ______ ____
ROOT
ATOM      1  C   UNL     1      -5.487  -0.981   3.448  0.00  0.00    +0.091 A 
ATOM      2  C   UNL     1      -5.659  -1.103   4.880  0.00  0.00    -0.024 A 
ATOM      3  C   UNL     1      -4.706  -0.508   5.635  0.00  0.00    -0.016 A 
ATOM      4  S   UNL     1      -3.586   0.201   4.464  0.00  0.00    -0.079 S 
ATOM      5  C   UNL     1      -4.372  -0.280   2.997  0.00  0.00    +0.086 A 
ATOM      6  C   UNL     1      -4.649  -0.471   7.127  0.00  0.00    -0.041 C 
ATOM      7  N   UNL     1      -5.649  -1.347   7.729  0.00  0.00    +0.389 N 
ATOM      8  C   UNL     1      -6.237  -2.387   6.902  0.00  0.00    -0.069 C 
ATOM      9  C   UNL     1      -6.794  -1.832   5.586  0.00  0.00    +0.024 C 
ATOM     10  C   UNL     1      -5.216  -3.486   6.593  0.00  0.00    -0.010 C 
ATOM     11  C   UNL     1      -7.404  -3.030   7.674  0.00  0.00    -0.010 C 
ATOM     12  C   UNL     1      -3.242  -0.872   7.592  0.00  0.00    -0.005 C 
ATOM     13  C   UNL     1      -4.907   0.976   7.588  0.00  0.00    -0.005 C 
ATOM     14  H   UNL     1      -5.204  -1.880   8.582  0.00  0.00    -0.084 HD
ATOM     15  H   UNL     1      -6.502  -0.745   8.077  0.00  0.00    -0.084 HD
ENDROOT
BRANCH   5  16
ATOM     16  N   UNL     1      -3.987  -0.028   1.689  0.00  0.00    -0.278 N 
ATOM     17  C   UNL     1      -2.865   0.676   1.441  0.00  0.00    +0.238 C 
ATOM     18  O   UNL     1      -2.192   1.089   2.361  0.00  0.00    -0.273 OA
ATOM     19  H   UNL     1      -4.597  -0.403   0.854  0.00  0.00    +0.155 HD
BRANCH  17  20
ATOM     20  C   UNL     1      -2.446   0.950   0.019  0.00  0.00    +0.222 C 
BRANCH  20  21
ATOM     21  N   UNL     1      -1.204   1.726   0.017  0.00  0.00    -0.290 N 
ATOM     22  C   UNL     1      -0.013   1.076   0.008  0.00  0.00    +0.203 A 
ATOM     23  N   UNL     1       1.116   1.733   0.001  0.00  0.00    -0.230 NA
ATOM     24  C   UNL     1       1.135   3.062   0.007  0.00  0.00    +0.115 A 
ATOM     25  C   UNL     1      -0.048   3.823   0.022  0.00  0.00    +0.072 A 
ATOM     26  C   UNL     1      -1.268   3.071   0.029  0.00  0.00    +0.263 A 
ATOM     27  O   UNL     1      -2.346   3.640   0.043  0.00  0.00    -0.267 OA
ATOM     28  C   UNL     1       0.147   5.261   0.028  0.00  0.00    +0.023 A 
ATOM     29  C   UNL     1       1.396   5.753   0.018  0.00  0.00    +0.048 A 
ATOM     30  S   UNL     1       2.416   4.290   0.001  0.00  0.00    -0.077 S 
ENDBRANCH  20  21
ENDBRANCH  17  20
ENDBRANCH   5  16
BRANCH   1  31
ATOM     31  C   UNL     1      -6.440  -1.565   2.501  0.00  0.00    +0.342 C 
ATOM     32  O   UNL     1      -6.278  -2.701   2.098  0.00  0.00    -0.245 OA
BRANCH  31  33
ATOM     33  O   UNL     1      -7.497  -0.843   2.077  0.00  0.00    -0.461 OA
BRANCH  33  35
ATOM     34  C   UNL     1      -9.529  -0.519   0.775  0.00  0.00    +0.048 C 
ATOM     35  C   UNL     1      -8.400  -1.485   1.139  0.00  0.00    +0.229 C 
ENDBRANCH  33  35
ENDBRANCH  31  33
ENDBRANCH   1  31
TORSDOF 6
