REMARK  Name = ZINC02687578
REMARK  5 active torsions:
REMARK  status: ('A' for Active; 'I' for Inactive)
REMARK    1  A    between atoms: C_1  and  C_2
REMARK    2  A    between atoms: C_7  and  C_8
REMARK    3  A    between atoms: C_8  and  N_9
REMARK    4  A    between atoms: N_20  and  C_23
REMARK    5  A    between atoms: C_23  and  C_24
REMARK                            x       y       z     vdW  Elec       q    Type
REMARK                         _______ _______ _______ _____ _____    ______ ____
ROOT
ATOM      1  N   UNL     1       4.060   1.615  -3.231  0.00  0.00    -0.283 N 
ATOM      2  C   UNL     1       3.700   0.473  -3.896  0.00  0.00    +0.097 A 
ATOM      3  C   UNL     1       2.916  -0.502  -3.287  0.00  0.00    +0.074 A 
ATOM      4  C   UNL     1       2.601  -1.681  -4.110  0.00  0.00    -0.023 A 
ATOM      5  C   UNL     1       3.106  -1.677  -5.354  0.00  0.00    -0.004 A 
ATOM      6  S   UNL     1       3.998  -0.145  -5.475  0.00  0.00    -0.075 S 
ATOM      7  C   UNL     1       2.731  -2.916  -6.121  0.00  0.00    +0.043 C 
ATOM      8  C   UNL     1       1.550  -3.520  -5.329  0.00  0.00    +0.010 C 
ATOM      9  C   UNL     1       1.812  -2.975  -3.911  0.00  0.00    +0.037 C 
ATOM     10  C   UNL     1       2.508  -0.227  -1.893  0.00  0.00    +0.265 A 
ATOM     11  O   UNL     1       1.825  -1.026  -1.280  0.00  0.00    -0.267 OA
ATOM     12  N   UNL     1       2.900   0.922  -1.312  0.00  0.00    -0.256 N 
ATOM     13  C   UNL     1       3.659   1.820  -1.961  0.00  0.00    +0.333 A 
ATOM     14  O   UNL     1       3.991   2.841  -1.390  0.00  0.00    -0.246 OA
ENDROOT
BRANCH   1  15
ATOM     15  C   UNL     1       4.887   2.619  -3.904  0.00  0.00    +0.162 C 
BRANCH  15  22
ATOM     16  C   UNL     1       6.902   4.489  -4.793  0.00  0.00    +0.044 C 
ATOM     17  C   UNL     1       7.302   3.270  -4.003  0.00  0.00    -0.046 A 
ATOM     18  C   UNL     1       8.633   3.049  -3.701  0.00  0.00    +0.004 A 
ATOM     19  C   UNL     1       9.000   1.928  -2.980  0.00  0.00    +0.000 A 
ATOM     20  C   UNL     1       8.037   1.030  -2.559  0.00  0.00    +0.000 A 
ATOM     21  C   UNL     1       6.706   1.254  -2.858  0.00  0.00    +0.005 A 
ATOM     22  C   UNL     1       6.338   2.375  -3.578  0.00  0.00    -0.025 A 
ENDBRANCH  15  22
ENDBRANCH   1  15
BRANCH  12  23
ATOM     23  C   UNL     1       2.492   1.198   0.068  0.00  0.00    +0.165 C 
BRANCH  23  24
ATOM     24  C   UNL     1       1.180   1.940   0.065  0.00  0.00    -0.028 A 
ATOM     25  C   UNL     1      -0.010   1.238   0.098  0.00  0.00    +0.005 A 
ATOM     26  C   UNL     1      -1.214   1.919   0.090  0.00  0.00    +0.000 A 
ATOM     27  C   UNL     1      -1.226   3.300   0.059  0.00  0.00    +0.000 A 
ATOM     28  C   UNL     1      -0.036   4.002   0.026  0.00  0.00    +0.000 A 
ATOM     29  C   UNL     1       1.167   3.322   0.029  0.00  0.00    +0.005 A 
ENDBRANCH  23  24
ENDBRANCH  12  23
TORSDOF 4
