REMARK  Name = ZINC17784553
REMARK  12 active torsions:
REMARK  status: ('A' for Active; 'I' for Inactive)
REMARK    1  A    between atoms: C_1  and  C_2
REMARK    2  A    between atoms: C_2  and  C_3
REMARK    3  A    between atoms: C_2  and  C_4
REMARK    4  A    between atoms: C_4  and  C_5
REMARK    5  A    between atoms: C_5  and  N_6
REMARK    6  A    between atoms: N_6  and  C_7
REMARK    7  A    between atoms: C_8  and  N_23
REMARK    8  A    between atoms: N_9  and  C_16
REMARK    9  A    between atoms: C_16  and  C_17
REMARK   10  A    between atoms: C_24  and  C_26
REMARK   11  A    between atoms: C_26  and  C_27
REMARK   12  A    between atoms: C_36  and  O_39
REMARK                            x       y       z     vdW  Elec       q    Type
REMARK                         _______ _______ _______ _____ _____    ______ ____
ROOT
ATOM      1  N   UNL     1      -0.692   1.515   1.241  0.00  0.00    -0.264 N 
ATOM      2  C   UNL     1      -1.530   0.794   2.014  0.00  0.00    +0.221 C 
ATOM      3  O   UNL     1      -1.885   1.227   3.091  0.00  0.00    -0.275 OA
ENDROOT
BRANCH   1   4
ATOM      4  C   UNL     1      -0.143   2.721   1.728  0.00  0.00    +0.140 A 
ATOM      5  C   UNL     1      -0.957   3.799   2.009  0.00  0.00    +0.128 A 
ATOM      6  N   UNL     1      -0.394   4.959   2.489  0.00  0.00    -0.276 N 
ATOM      7  C   UNL     1       0.937   5.045   2.670  0.00  0.00    +0.331 A 
ATOM      8  O   UNL     1       1.416   6.080   3.090  0.00  0.00    -0.246 OA
ATOM      9  N   UNL     1       1.746   4.006   2.396  0.00  0.00    -0.273 N 
ATOM     10  H   UNL     1       2.831   4.098   2.553  0.00  0.00    +0.173 HD
ATOM     11  C   UNL     1       1.244   2.846   1.930  0.00  0.00    +0.277 A 
ATOM     12  O   UNL     1       1.987   1.910   1.685  0.00  0.00    -0.266 OA
BRANCH   5  13
ATOM     13  N   UNL     1      -2.315   3.713   1.818  0.00  0.00    -0.343 N 
ATOM     14  H   UNL     1      -2.958   4.577   2.044  0.00  0.00    +0.144 HD
ATOM     15  H   UNL     1      -2.760   2.781   1.438  0.00  0.00    +0.144 HD
ENDBRANCH   5  13
BRANCH   6  16
ATOM     16  C   UNL     1      -1.246   6.109   2.797  0.00  0.00    +0.163 C 
BRANCH  16  17
ATOM     17  C   UNL     1      -1.387   6.973   1.570  0.00  0.00    -0.028 A 
ATOM     18  C   UNL     1      -0.490   7.999   1.341  0.00  0.00    +0.005 A 
ATOM     19  C   UNL     1      -0.617   8.789   0.213  0.00  0.00    +0.000 A 
ATOM     20  C   UNL     1      -1.646   8.558  -0.680  0.00  0.00    +0.000 A 
ATOM     21  C   UNL     1      -2.546   7.535  -0.448  0.00  0.00    +0.000 A 
ATOM     22  C   UNL     1      -2.417   6.742   0.677  0.00  0.00    +0.005 A 
ENDBRANCH  16  17
ENDBRANCH   6  16
ENDBRANCH   1   4
BRANCH   1  23
ATOM     23  C   UNL     1      -0.351   1.047  -0.105  0.00  0.00    +0.114 C 
BRANCH  23  24
ATOM     24  C   UNL     1      -1.391   1.562  -1.102  0.00  0.00    +0.022 C 
BRANCH  24  26
ATOM     25  C   UNL     1      -2.140   1.481  -3.485  0.00  0.00    +0.007 C 
ATOM     26  C   UNL     1      -1.035   1.072  -2.508  0.00  0.00    -0.016 C 
ATOM     27  C   UNL     1       0.290   1.699  -2.946  0.00  0.00    +0.007 C 
ENDBRANCH  24  26
ENDBRANCH  23  24
ENDBRANCH   1  23
BRANCH   2  28
ATOM     28  C   UNL     1      -2.024  -0.549   1.541  0.00  0.00    +0.103 C 
BRANCH  28  29
ATOM     29  C   UNL     1      -2.952  -1.151   2.597  0.00  0.00    -0.018 C 
ATOM     30  C   UNL     1      -2.187  -1.323   3.911  0.00  0.00    +0.011 C 
ATOM     31  C   UNL     1      -3.116  -1.926   4.967  0.00  0.00    -0.007 C 
ATOM     32  C   UNL     1      -4.308  -0.993   5.190  0.00  0.00    +0.007 C 
ATOM     33  C   UNL     1      -5.073  -0.821   3.876  0.00  0.00    -0.007 C 
ATOM     34  C   UNL     1      -4.145  -0.219   2.820  0.00  0.00    +0.011 C 
ATOM     35  C   UNL     1      -5.575  -2.185   3.396  0.00  0.00    +0.038 C 
ATOM     36  C   UNL     1      -4.383  -3.117   3.173  0.00  0.00    +0.067 C 
ATOM     37  C   UNL     1      -3.618  -3.289   4.487  0.00  0.00    +0.038 C 
ATOM     38  C   UNL     1      -3.454  -2.515   2.117  0.00  0.00    +0.042 C 
BRANCH  36  39
ATOM     39  O   UNL     1      -4.851  -4.391   2.725  0.00  0.00    -0.389 OA
ATOM     40  H   UNL     1      -4.134  -5.197   2.511  0.00  0.00    +0.210 HD
ENDBRANCH  36  39
ENDBRANCH  28  29
ENDBRANCH   2  28
TORSDOF 10
