REMARK  Name = ZINC02826540
REMARK  5 active torsions:
REMARK  status: ('A' for Active; 'I' for Inactive)
REMARK    1  A    between atoms: C_1  and  C_2
REMARK    2  A    between atoms: C_9  and  O_12
REMARK    3  A    between atoms: O_12  and  C_13
REMARK    4  A    between atoms: C_16  and  N_22
REMARK    5  A    between atoms: C_18  and  C_19
REMARK                            x       y       z     vdW  Elec       q    Type
REMARK                         _______ _______ _______ _____ _____    ______ ____
ROOT
ATOM      1  C   UNL     1       2.296   3.192   4.092  0.00  0.00    +0.141 A 
ATOM      2  C   UNL     1       1.750   4.393   3.662  0.00  0.00    +0.049 A 
ATOM      3  C   UNL     1       2.564   5.367   3.118  0.00  0.00    +0.036 A 
ATOM      4  C   UNL     1       3.928   5.154   2.998  0.00  0.00    +0.127 A 
ATOM      5  C   UNL     1       4.486   3.968   3.421  0.00  0.00    +0.049 A 
ATOM      6  C   UNL     1       3.675   2.975   3.977  0.00  0.00    +0.081 A 
ENDROOT
BRANCH   6   7
ATOM      7  C   UNL     1       4.268   1.705   4.437  0.00  0.00    +0.245 C 
ATOM      8  O   UNL     1       3.558   0.842   4.917  0.00  0.00    -0.270 OA
ATOM      9  N   UNL     1       5.595   1.501   4.325  0.00  0.00    -0.325 N 
ATOM     10  H   UNL     1       6.161   2.189   3.942  0.00  0.00    +0.145 HD
ATOM     11  H   UNL     1       5.985   0.665   4.627  0.00  0.00    +0.145 HD
ENDBRANCH   6   7
BRANCH   4  12
ATOM     12  N   UNL     1       4.789   6.207   2.414  0.00  0.00    +0.056 N 
ATOM     13  O   UNL     1       4.298   7.257   2.039  0.00  0.00    -0.126 OA
ATOM     14  O   UNL     1       5.988   6.023   2.307  0.00  0.00    -0.126 OA
ENDBRANCH   4  12
BRANCH   1  15
ATOM     15  O   UNL     1       1.498   2.235   4.627  0.00  0.00    -0.453 OA
BRANCH  15  24
ATOM     16  C   UNL     1       0.015   0.984   0.025  0.00  0.00    +0.065 C 
ATOM     17  C   UNL     1      -0.699   1.493   1.252  0.00  0.00    +0.039 A 
ATOM     18  C   UNL     1      -2.075   1.700   1.198  0.00  0.00    +0.023 A 
ATOM     19  C   UNL     1      -2.739   2.155   2.302  0.00  0.00    +0.012 A 
ATOM     20  C   UNL     1      -1.992   2.413   3.467  0.00  0.00    +0.004 A 
ATOM     21  C   UNL     1      -2.605   2.887   4.638  0.00  0.00    +0.010 A 
ATOM     22  C   UNL     1      -1.850   3.125   5.747  0.00  0.00    +0.004 A 
ATOM     23  C   UNL     1      -0.476   2.904   5.738  0.00  0.00    +0.048 A 
ATOM     24  C   UNL     1       0.156   2.444   4.617  0.00  0.00    +0.154 A 
ATOM     25  C   UNL     1      -0.594   2.186   3.450  0.00  0.00    +0.113 A 
ATOM     26  N   UNL     1      -0.007   1.735   2.338  0.00  0.00    -0.248 NA
ENDBRANCH  15  24
ENDBRANCH   1  15
TORSDOF 4
