REMARK  Name = ZINC20454840
REMARK  8 active torsions:
REMARK  status: ('A' for Active; 'I' for Inactive)
REMARK    1  A    between atoms: C_1  and  C_2
REMARK    2  A    between atoms: C_2  and  C_3
REMARK    3  A    between atoms: C_3  and  C_4
REMARK    4  A    between atoms: C_4  and  C_5
REMARK    5  A    between atoms: C_9  and  C_11
REMARK    6  A    between atoms: C_11  and  N_12
REMARK    7  A    between atoms: C_25  and  C_27
REMARK    8  A    between atoms: C_31  and  C_33
REMARK                            x       y       z     vdW  Elec       q    Type
REMARK                         _______ _______ _______ _____ _____    ______ ____
ROOT
ATOM      1  N   UNL     1       4.686  -5.023   4.041  0.00  0.00    -0.283 NA
ATOM      2  C   UNL     1       3.734  -5.915   4.717  0.00  0.00    +0.090 C 
ATOM      3  C   UNL     1       3.787  -7.305   4.067  0.00  0.00    +0.053 C 
ATOM      4  C   UNL     1       5.234  -7.718   3.968  0.00  0.00    -0.016 A 
ATOM      5  C   UNL     1       5.798  -9.027   3.728  0.00  0.00    +0.003 A 
ATOM      6  C   UNL     1       5.226 -10.285   3.518  0.00  0.00    +0.010 A 
ATOM      7  C   UNL     1       6.089 -11.334   3.318  0.00  0.00    +0.001 A 
ATOM      8  C   UNL     1       7.464 -11.168   3.323  0.00  0.00    +0.002 A 
ATOM      9  C   UNL     1       8.058  -9.934   3.529  0.00  0.00    +0.026 A 
ATOM     10  C   UNL     1       7.207  -8.850   3.734  0.00  0.00    +0.047 A 
ATOM     11  N   UNL     1       7.451  -7.526   3.962  0.00  0.00    -0.356 N 
ATOM     12  H   UNL     1       8.331  -7.122   4.018  0.00  0.00    +0.166 HD
ATOM     13  C   UNL     1       6.266  -6.855   4.101  0.00  0.00    +0.044 A 
ATOM     14  C   UNL     1       6.077  -5.379   4.362  0.00  0.00    +0.153 C 
ENDROOT
BRANCH  14  15
ATOM     15  C   UNL     1       7.017  -4.587   3.490  0.00  0.00    +0.065 A 
ATOM     16  C   UNL     1       8.309  -4.348   3.918  0.00  0.00    +0.025 A 
ATOM     17  C   UNL     1       9.166  -3.618   3.109  0.00  0.00    +0.004 A 
ATOM     18  C   UNL     1       8.688  -3.153   1.893  0.00  0.00    +0.023 A 
ATOM     19  C   UNL     1       7.384  -3.431   1.531  0.00  0.00    +0.039 A 
ATOM     20  N   UNL     1       6.599  -4.133   2.325  0.00  0.00    -0.255 NA
ATOM     21  C   UNL     1       6.854  -2.930   0.212  0.00  0.00    +0.065 C 
ENDBRANCH  14  15
BRANCH   1  22
ATOM     22  C   UNL     1       4.414  -3.617   4.368  0.00  0.00    +0.140 C 
BRANCH  22  27
ATOM     23  C   UNL     1       1.492  -2.540   2.454  0.00  0.00    +0.084 A 
ATOM     24  N   UNL     1       0.946  -2.808   3.609  0.00  0.00    -0.350 N 
ATOM     25  H   UNL     1       3.466  -2.682   1.820  0.00  0.00    +0.167 HD
ATOM     26  C   UNL     1       1.895  -3.228   4.459  0.00  0.00    +0.106 A 
ATOM     27  C   UNL     1       3.072  -3.221   3.806  0.00  0.00    +0.048 A 
ATOM     28  N   UNL     1       2.817  -2.790   2.533  0.00  0.00    -0.346 N 
ATOM     29  H   UNL     1       0.004  -2.717   3.820  0.00  0.00    +0.166 HD
BRANCH  23  30
ATOM     30  C   UNL     1       0.763  -2.041   1.233  0.00  0.00    +0.072 C 
BRANCH  30  31
ATOM     31  C   UNL     1       0.742  -0.511   1.242  0.00  0.00    +0.007 C 
BRANCH  31  33
ATOM     32  C   UNL     1      -0.019   1.526   0.010  0.00  0.00    +0.004 C 
ATOM     33  C   UNL     1       0.002  -0.004   0.002  0.00  0.00    -0.003 C 
ENDBRANCH  31  33
ENDBRANCH  30  31
ENDBRANCH  23  30
ENDBRANCH  22  27
ENDBRANCH   1  22
TORSDOF 6
