REMARK  Name = ZINC14458484
REMARK  6 active torsions:
REMARK  status: ('A' for Active; 'I' for Inactive)
REMARK    1  A    between atoms: C_1  and  C_2
REMARK    2  A    between atoms: C_5  and  C_8
REMARK    3  A    between atoms: C_19  and  S_24
REMARK    4  A    between atoms: S_24  and  N_27
REMARK    5  A    between atoms: N_27  and  C_28
REMARK    6  A    between atoms: C_28  and  C_29
REMARK                            x       y       z     vdW  Elec       q    Type
REMARK                         _______ _______ _______ _____ _____    ______ ____
ROOT
ATOM      1  C   UNL     1       1.238   2.179   0.002  0.00  0.00    +0.105 C 
ATOM      2  C   UNL     1       2.219   1.372  -0.830  0.00  0.00    +0.029 C 
ATOM      3  C   UNL     1       3.673   1.859  -0.865  0.00  0.00    +0.033 C 
ATOM      4  C   UNL     1       4.431   0.547  -1.081  0.00  0.00    -0.030 C 
ATOM      5  C   UNL     1       3.719  -0.471  -0.615  0.00  0.00    -0.023 C 
ATOM      6  C   UNL     1       2.462   0.059  -0.026  0.00  0.00    +0.049 C 
ATOM      7  C   UNL     1       1.204  -0.719  -0.039  0.00  0.00    -0.018 A 
ATOM      8  C   UNL     1       1.187  -2.097  -0.069  0.00  0.00    +0.034 A 
ATOM      9  C   UNL     1      -0.015  -2.780  -0.045  0.00  0.00    +0.106 A 
ATOM     10  C   UNL     1      -1.207  -2.080   0.008  0.00  0.00    +0.030 A 
ATOM     11  C   UNL     1      -1.200  -0.701   0.032  0.00  0.00    +0.025 A 
ATOM     12  C   UNL     1       0.002  -0.004   0.002  0.00  0.00    +0.031 A 
ATOM     13  N   UNL     1      -0.017   1.396   0.010  0.00  0.00    -0.336 N 
ATOM     14  H   UNL     1      -0.868   1.861   0.016  0.00  0.00    +0.147 HD
ENDROOT
BRANCH   1  19
ATOM     15  C   UNL     1       0.348   7.350  -2.420  0.00  0.00    +0.044 C 
ATOM     16  C   UNL     1       0.581   6.001  -1.789  0.00  0.00    -0.050 A 
ATOM     17  C   UNL     1       1.390   5.891  -0.674  0.00  0.00    +0.004 A 
ATOM     18  C   UNL     1       1.602   4.654  -0.094  0.00  0.00    +0.006 A 
ATOM     19  C   UNL     1       1.006   3.527  -0.630  0.00  0.00    -0.027 A 
ATOM     20  C   UNL     1       0.201   3.638  -1.749  0.00  0.00    +0.006 A 
ATOM     21  C   UNL     1      -0.015   4.875  -2.325  0.00  0.00    +0.004 A 
ENDBRANCH   1  19
BRANCH   9  22
ATOM     22  S   UNL     1      -0.028  -4.542  -0.084  0.00  0.00    +0.059 S 
ATOM     23  O   UNL     1       1.231  -4.968   0.417  0.00  0.00    -0.153 OA
ATOM     24  O   UNL     1      -1.258  -4.951   0.498  0.00  0.00    -0.153 OA
BRANCH  22  25
ATOM     25  N   UNL     1      -0.083  -4.996  -1.675  0.00  0.00    -0.186 NA
ATOM     26  H   UNL     1      -0.859  -5.465  -2.020  0.00  0.00    +0.148 HD
BRANCH  25  27
ATOM     27  C   UNL     1       1.041  -4.689  -2.564  0.00  0.00    +0.141 C 
BRANCH  27  28
ATOM     28  C   UNL     1       0.923  -5.506  -3.824  0.00  0.00    -0.032 A 
ATOM     29  C   UNL     1       1.513  -6.754  -3.897  0.00  0.00    +0.005 A 
ATOM     30  C   UNL     1       1.401  -7.505  -5.052  0.00  0.00    +0.000 A 
ATOM     31  C   UNL     1       0.706  -7.005  -6.138  0.00  0.00    +0.000 A 
ATOM     32  C   UNL     1       0.120  -5.755  -6.066  0.00  0.00    +0.000 A 
ATOM     33  C   UNL     1       0.229  -5.005  -4.910  0.00  0.00    +0.005 A 
ENDBRANCH  27  28
ENDBRANCH  25  27
ENDBRANCH  22  25
ENDBRANCH   9  22
TORSDOF 5
