REMARK  Name = ZINC51422507
REMARK  7 active torsions:
REMARK  status: ('A' for Active; 'I' for Inactive)
REMARK    1  A    between atoms: C_1  and  C_2
REMARK    2  A    between atoms: C_2  and  C_4
REMARK    3  A    between atoms: C_2  and  N_20
REMARK    4  A    between atoms: C_4  and  N_6
REMARK    5  A    between atoms: C_9  and  C_12
REMARK    6  A    between atoms: C_12  and  N_13
REMARK    7  A    between atoms: C_21  and  C_23
REMARK                            x       y       z     vdW  Elec       q    Type
REMARK                         _______ _______ _______ _____ _____    ______ ____
ROOT
ATOM      1  N   UNL     1       1.999  -0.167   1.423  0.00  0.00    -0.155 NA
ATOM      2  C   UNL     1       2.644  -0.609   2.504  0.00  0.00    +0.163 A 
ATOM      3  N   UNL     1       3.929  -0.368   2.878  0.00  0.00    -0.341 N 
ATOM      4  C   UNL     1       4.392  -0.922   4.031  0.00  0.00    +0.008 A 
ATOM      5  C   UNL     1       3.541  -1.679   4.732  0.00  0.00    +0.067 A 
ATOM      6  S   UNL     1       2.063  -1.592   3.738  0.00  0.00    -0.061 S 
ATOM      7  H   UNL     1       4.506   0.189   2.332  0.00  0.00    +0.167 HD
ENDROOT
BRANCH   1   8
ATOM      8  C   UNL     1       0.731  -0.503   1.223  0.00  0.00    +0.258 C 
ATOM      9  O   UNL     1       0.157  -1.215   2.025  0.00  0.00    -0.272 OA
BRANCH   8  11
ATOM     10  C   UNL     1      -0.019   1.526   0.010  0.00  0.00    +0.038 C 
ATOM     11  C   UNL     1       0.002  -0.004   0.002  0.00  0.00    +0.158 C 
BRANCH  11  12
ATOM     12  N   UNL     1      -1.372  -0.511   0.012  0.00  0.00    -0.300 N 
ATOM     13  C   UNL     1      -2.051  -0.643  -1.145  0.00  0.00    +0.248 C 
ATOM     14  O   UNL     1      -1.522  -0.341  -2.197  0.00  0.00    -0.270 OA
ATOM     15  H   UNL     1      -1.794  -0.752   0.852  0.00  0.00    +0.150 HD
BRANCH  13  16
ATOM     16  C   UNL     1      -3.433  -1.153  -1.134  0.00  0.00    +0.074 A 
ATOM     17  C   UNL     1      -4.312  -1.364  -2.294  0.00  0.00    +0.054 A 
ATOM     18  C   UNL     1      -5.466  -1.838  -1.801  0.00  0.00    +0.195 A 
ATOM     19  O   UNL     1      -5.369  -1.931  -0.466  0.00  0.00    -0.470 OA
ATOM     20  C   UNL     1      -4.164  -1.533  -0.047  0.00  0.00    +0.207 A 
ENDBRANCH  13  16
ENDBRANCH  11  12
ENDBRANCH   8  11
ENDBRANCH   1   8
BRANCH   4  21
ATOM     21  C   UNL     1       5.806  -0.693   4.498  0.00  0.00    -0.024 C 
BRANCH  21  22
ATOM     22  N   UNL     1       6.742  -1.299   3.542  0.00  0.00    +0.383 N 
ATOM     23  C   UNL     1       6.487  -2.752   3.486  0.00  0.00    -0.078 C 
ATOM     24  C   UNL     1       6.966  -3.265   2.151  0.00  0.00    -0.019 C 
ATOM     25  C   UNL     1       8.391  -3.842   2.248  0.00  0.00    -0.002 C 
ATOM     26  C   UNL     1       9.299  -2.977   3.145  0.00  0.00    -0.002 C 
ATOM     27  C   UNL     1       9.091  -1.502   2.920  0.00  0.00    -0.019 C 
ATOM     28  C   UNL     1       8.046  -0.981   3.928  0.00  0.00    -0.078 C 
ATOM     29  H   UNL     1       6.570  -0.906   2.628  0.00  0.00    -0.081 HD
ENDBRANCH  21  22
ENDBRANCH   4  21
TORSDOF 6
