REMARK  Name = ZINC04993451
REMARK  8 active torsions:
REMARK  status: ('A' for Active; 'I' for Inactive)
REMARK    1  A    between atoms: C_1  and  C_2
REMARK    2  A    between atoms: C_6  and  C_27
REMARK    3  A    between atoms: C_7  and  O_8
REMARK    4  A    between atoms: O_8  and  C_9
REMARK    5  A    between atoms: C_9  and  C_11
REMARK    6  A    between atoms: C_9  and  C_12
REMARK    7  A    between atoms: N_14  and  C_15
REMARK    8  A    between atoms: C_16  and  C_24
REMARK                            x       y       z     vdW  Elec       q    Type
REMARK                         _______ _______ _______ _____ _____    ______ ____
ROOT
ATOM      1  C   UNL     1       1.462   4.167  -0.337  0.00  0.00    +0.258 C 
ATOM      2  O   UNL     1       0.260   4.038  -0.234  0.00  0.00    -0.271 OA
ATOM      3  N   UNL     1       2.231   3.102  -0.638  0.00  0.00    -0.276 N 
ATOM      4  H   UNL     1       3.192   3.205  -0.720  0.00  0.00    +0.155 HD
ENDROOT
BRANCH   3   5
ATOM      5  C   UNL     1       1.648   1.858  -0.829  0.00  0.00    +0.084 A 
ATOM      6  C   UNL     1       2.266   0.656  -1.142  0.00  0.00    +0.068 A 
ATOM      7  C   UNL     1       1.419  -0.515  -1.291  0.00  0.00    -0.023 A 
ATOM      8  C   UNL     1       0.099  -0.298  -1.105  0.00  0.00    -0.004 A 
ATOM      9  S   UNL     1      -0.028   1.429  -0.737  0.00  0.00    -0.077 S 
ATOM     10  C   UNL     1      -1.004  -1.307  -1.194  0.00  0.00    +0.043 C 
ATOM     11  C   UNL     1      -0.459  -2.559  -1.897  0.00  0.00    +0.005 C 
ATOM     12  C   UNL     1       0.881  -2.938  -1.260  0.00  0.00    +0.005 C 
ATOM     13  C   UNL     1       1.945  -1.904  -1.631  0.00  0.00    +0.037 C 
BRANCH   6  14
ATOM     14  C   UNL     1       3.719   0.570  -1.316  0.00  0.00    +0.244 C 
ATOM     15  O   UNL     1       4.212   0.745  -2.415  0.00  0.00    -0.270 OA
ATOM     16  N   UNL     1       4.510   0.298  -0.259  0.00  0.00    -0.325 N 
ATOM     17  H   UNL     1       4.117   0.159   0.617  0.00  0.00    +0.145 HD
ATOM     18  H   UNL     1       5.471   0.241  -0.374  0.00  0.00    +0.145 HD
ENDBRANCH   6  14
ENDBRANCH   3   5
BRANCH   1  19
ATOM     19  C   UNL     1       2.095   5.519  -0.129  0.00  0.00    +0.256 C 
ATOM     20  C   UNL     1       3.090   5.442   1.031  0.00  0.00    +0.062 C 
BRANCH  19  21
ATOM     21  O   UNL     1       1.081   6.478   0.177  0.00  0.00    -0.479 OA
BRANCH  21  28
ATOM     22  C   UNL     1       2.122   8.203   2.157  0.00  0.00    +0.047 C 
ATOM     23  C   UNL     1       1.835   8.660   0.751  0.00  0.00    -0.008 A 
ATOM     24  C   UNL     1       2.086   9.969   0.384  0.00  0.00    +0.007 A 
ATOM     25  C   UNL     1       1.817  10.391  -0.905  0.00  0.00    +0.001 A 
ATOM     26  C   UNL     1       1.301   9.503  -1.832  0.00  0.00    +0.007 A 
ATOM     27  C   UNL     1       1.054   8.193  -1.472  0.00  0.00    -0.008 A 
ATOM     28  C   UNL     1       1.323   7.767  -0.179  0.00  0.00    +0.127 A 
ATOM     29  C   UNL     1       0.493   7.226  -2.483  0.00  0.00    +0.047 C 
ENDBRANCH  21  28
ENDBRANCH  19  21
ENDBRANCH   1  19
TORSDOF 5
