REMARK  Name = ZINC38635103
REMARK  4 active torsions:
REMARK  status: ('A' for Active; 'I' for Inactive)
REMARK    1  A    between atoms: C_1  and  C_2
REMARK    2  A    between atoms: C_4  and  S_9
REMARK    3  A    between atoms: S_9  and  N_12
REMARK    4  A    between atoms: N_24  and  C_25
REMARK                            x       y       z     vdW  Elec       q    Type
REMARK                         _______ _______ _______ _____ _____    ______ ____
ROOT
ATOM      1  N   UNL     1       2.120  -3.412  -3.393  0.00  0.00    -0.144 NA
ATOM      2  C   UNL     1       2.923  -2.378  -4.084  0.00  0.00    +0.140 C 
ATOM      3  C   UNL     1       4.276  -2.436  -3.331  0.00  0.00    +0.179 C 
ATOM      4  O   UNL     1       4.411  -3.848  -3.045  0.00  0.00    -0.356 OA
ATOM      5  C   UNL     1       3.085  -4.303  -2.732  0.00  0.00    +0.145 C 
ATOM      6  C   UNL     1       2.903  -5.732  -3.247  0.00  0.00    +0.072 C 
ATOM      7  C   UNL     1       1.478  -6.204  -2.942  0.00  0.00    +0.113 C 
ATOM      8  N   UNL     1       1.223  -6.038  -1.504  0.00  0.00    -0.285 N 
ATOM      9  C   UNL     1       1.445  -4.719  -0.895  0.00  0.00    +0.113 C 
ATOM     10  C   UNL     1       2.871  -4.261  -1.218  0.00  0.00    +0.072 C 
ATOM     11  C   UNL     1       0.792  -7.075  -0.759  0.00  0.00    +0.307 C 
ATOM     12  O   UNL     1       0.703  -8.182  -1.252  0.00  0.00    -0.252 OA
ATOM     13  N   UNL     1       0.459  -6.884   0.533  0.00  0.00    -0.265 N 
ATOM     14  H   UNL     1       0.575  -6.011   0.940  0.00  0.00    +0.157 HD
ENDROOT
BRANCH  13  15
ATOM     15  C   UNL     1      -0.056  -7.947   1.289  0.00  0.00    +0.106 A 
ATOM     16  C   UNL     1      -0.861  -8.905   0.685  0.00  0.00    +0.147 A 
ATOM     17  C   UNL     1      -1.367  -9.953   1.434  0.00  0.00    +0.040 A 
ATOM     18  C   UNL     1      -1.072 -10.047   2.781  0.00  0.00    +0.006 A 
ATOM     19  C   UNL     1      -0.271  -9.095   3.386  0.00  0.00    +0.040 A 
ATOM     20  C   UNL     1       0.243  -8.048   2.642  0.00  0.00    +0.147 A 
ATOM     21  F   UNL     1       1.030  -7.122   3.232  0.00  0.00    -0.203 F 
ATOM     22  F   UNL     1      -1.151  -8.813  -0.632  0.00  0.00    -0.203 F 
ENDBRANCH  13  15
BRANCH   1  23
ATOM     23  S   UNL     1       0.469  -3.536  -3.364  0.00  0.00    +0.063 S 
ATOM     24  O   UNL     1       0.159  -4.637  -2.521  0.00  0.00    -0.153 OA
ATOM     25  O   UNL     1       0.032  -3.464  -4.715  0.00  0.00    -0.153 OA
BRANCH  23  29
ATOM     26  C   UNL     1      -0.953   1.493  -3.411  0.00  0.00    +0.047 C 
ATOM     27  C   UNL     1      -0.786   0.211  -2.637  0.00  0.00    -0.013 A 
ATOM     28  C   UNL     1      -0.302  -0.920  -3.268  0.00  0.00    +0.034 A 
ATOM     29  C   UNL     1      -0.148  -2.096  -2.558  0.00  0.00    +0.106 A 
ATOM     30  C   UNL     1      -0.478  -2.143  -1.216  0.00  0.00    +0.031 A 
ATOM     31  C   UNL     1      -0.962  -1.014  -0.583  0.00  0.00    +0.040 A 
ATOM     32  C   UNL     1      -1.111   0.167  -1.292  0.00  0.00    +0.126 A 
ATOM     33  F   UNL     1      -1.579   1.272  -0.673  0.00  0.00    -0.205 F 
ENDBRANCH  23  29
ENDBRANCH   1  23
TORSDOF 3
