REMARK  Name = ZINC12850247
REMARK  4 active torsions:
REMARK  status: ('A' for Active; 'I' for Inactive)
REMARK    1  A    between atoms: C_6  and  C_7
REMARK    2  A    between atoms: C_7  and  C_9
REMARK    3  A    between atoms: C_9  and  S_10
REMARK    4  A    between atoms: S_10  and  C_11
REMARK                            x       y       z     vdW  Elec       q    Type
REMARK                         _______ _______ _______ _____ _____    ______ ____
ROOT
ATOM      1  S   UNL     1      -2.935  -2.900   0.016  0.00  0.00    -0.078 S 
ENDROOT
BRANCH   1   2
ATOM      2  C   UNL     1      -2.739  -4.651   0.004  0.00  0.00    +0.193 A 
ATOM      3  N   UNL     1      -1.506  -5.147  -0.005  0.00  0.00    -0.182 NA
ATOM      4  C   UNL     1      -1.320  -6.464  -0.014  0.00  0.00    +0.288 A 
ATOM      5  O   UNL     1      -0.070  -6.987  -0.023  0.00  0.00    -0.265 OA
ATOM      6  C   UNL     1      -2.430  -7.287  -0.013  0.00  0.00    +0.104 A 
ATOM      7  C   UNL     1      -3.737  -6.754  -0.003  0.00  0.00    +0.086 A 
ATOM      8  N   UNL     1      -3.819  -5.400   0.011  0.00  0.00    -0.221 NA
ATOM      9  C   UNL     1      -4.775  -7.703  -0.003  0.00  0.00    +0.036 A 
ATOM     10  C   UNL     1      -4.489  -9.019  -0.012  0.00  0.00    +0.048 A 
ATOM     11  S   UNL     1      -2.704  -9.039  -0.022  0.00  0.00    -0.090 S 
ENDBRANCH   1   2
BRANCH   1  12
ATOM     12  C   UNL     1      -1.235  -2.267   0.002  0.00  0.00    +0.157 C 
BRANCH  12  13
ATOM     13  C   UNL     1      -1.260  -0.760   0.011  0.00  0.00    +0.173 C 
ATOM     14  O   UNL     1      -2.319  -0.171   0.024  0.00  0.00    -0.291 OA
BRANCH  13  20
ATOM     15  C   UNL     1      -0.017   1.395   0.010  0.00  0.00    +0.013 A 
ATOM     16  C   UNL     1       1.169   2.097   0.002  0.00  0.00    +0.020 A 
ATOM     17  C   UNL     1       2.378   1.420  -0.013  0.00  0.00    +0.041 A 
ATOM     18  C   UNL     1       2.405   0.035  -0.021  0.00  0.00    +0.020 A 
ATOM     19  C   UNL     1       1.227  -0.680  -0.013  0.00  0.00    +0.013 A 
ATOM     20  C   UNL     1       0.002  -0.004   0.002  0.00  0.00    +0.018 A 
ATOM     21 CL   UNL     1       3.867   2.313  -0.023  0.00  0.00    -0.084 Cl
ENDBRANCH  13  20
ENDBRANCH  12  13
ENDBRANCH   1  12
TORSDOF 4
