REMARK  Name = ZINC41484481
REMARK  4 active torsions:
REMARK  status: ('A' for Active; 'I' for Inactive)
REMARK    1  A    between atoms: C_1  and  C_2
REMARK    2  A    between atoms: C_7  and  O_8
REMARK    3  A    between atoms: O_8  and  C_9
REMARK    4  A    between atoms: C_9  and  C_10
REMARK                            x       y       z     vdW  Elec       q    Type
REMARK                         _______ _______ _______ _____ _____    ______ ____
ROOT
ATOM      1  C   UNL     1       0.048  -0.819   3.574  0.00  0.00    +0.291 C 
ENDROOT
BRANCH   1   2
ATOM      2  C   UNL     1       0.047   0.092   4.775  0.00  0.00    +0.118 A 
ATOM      3  N   UNL     1      -0.982   0.565   5.437  0.00  0.00    -0.226 NA
ATOM      4  C   UNL     1      -0.833   1.362   6.484  0.00  0.00    +0.130 A 
ATOM      5  C   UNL     1       0.462   1.649   6.812  0.00  0.00    +0.031 A 
ATOM      6  S   UNL     1       1.369   0.741   5.596  0.00  0.00    -0.072 S 
ATOM      7  C   UNL     1       0.931   2.515   7.929  0.00  0.00    +0.047 C 
ATOM      8  C   UNL     1      -0.252   3.377   8.401  0.00  0.00    +0.024 C 
ATOM      9  C   UNL     1      -1.489   2.489   8.575  0.00  0.00    +0.103 C 
ATOM     10  N   UNL     1      -1.877   1.923   7.272  0.00  0.00    -0.328 N 
ATOM     11  H   UNL     1      -2.798   1.932   6.967  0.00  0.00    +0.147 HD
ENDBRANCH   1   2
BRANCH   1  12
ATOM     12  O   UNL     1       0.025  -0.033   2.381  0.00  0.00    -0.485 OA
BRANCH  12  19
ATOM     13  C   UNL     1      -0.018   1.503   0.010  0.00  0.00    +0.047 C 
ATOM     14  C   UNL     1       0.002  -0.004   0.002  0.00  0.00    -0.007 A 
ATOM     15  C   UNL     1       0.006  -0.689  -1.198  0.00  0.00    +0.027 A 
ATOM     16  C   UNL     1       0.024  -2.072  -1.206  0.00  0.00    +0.041 A 
ATOM     17  C   UNL     1       0.040  -2.773  -0.013  0.00  0.00    +0.023 A 
ATOM     18  C   UNL     1       0.036  -2.092   1.189  0.00  0.00    +0.047 A 
ATOM     19  C   UNL     1       0.023  -0.704   1.199  0.00  0.00    +0.124 A 
ATOM     20 CL   UNL     1       0.028  -2.930  -2.715  0.00  0.00    -0.084 Cl
ENDBRANCH  12  19
ENDBRANCH   1  12
TORSDOF 3
