REMARK  Name = ZINC20719725
REMARK  6 active torsions:
REMARK  status: ('A' for Active; 'I' for Inactive)
REMARK    1  A    between atoms: C_1  and  C_2
REMARK    2  A    between atoms: C_2  and  N_3
REMARK    3  A    between atoms: N_3  and  C_4
REMARK    4  A    between atoms: N_3  and  S_10
REMARK    5  A    between atoms: S_10  and  C_13
REMARK    6  A    between atoms: C_26  and  C_29
REMARK                            x       y       z     vdW  Elec       q    Type
REMARK                         _______ _______ _______ _____ _____    ______ ____
ROOT
ATOM      1  C   UNL     1      -2.774   9.536  -1.543  0.00  0.00    +0.109 A 
ATOM      2  C   UNL     1      -2.502   9.760  -0.206  0.00  0.00    +0.030 A 
ATOM      3  C   UNL     1      -1.330   9.280   0.344  0.00  0.00    +0.025 A 
ATOM      4  C   UNL     1      -0.429   8.576  -0.447  0.00  0.00    +0.031 A 
ATOM      5  C   UNL     1      -0.696   8.352  -1.786  0.00  0.00    -0.018 A 
ATOM      6  C   UNL     1      -1.878   8.838  -2.328  0.00  0.00    +0.034 A 
ATOM      7  C   UNL     1       0.242   7.601  -2.692  0.00  0.00    +0.049 C 
ATOM      8  C   UNL     1       0.641   8.528  -3.832  0.00  0.00    -0.023 C 
ATOM      9  C   UNL     1       1.794   9.096  -3.578  0.00  0.00    -0.030 C 
ATOM     10  C   UNL     1       2.331   8.629  -2.237  0.00  0.00    +0.033 C 
ATOM     11  C   UNL     1       1.589   7.290  -2.015  0.00  0.00    +0.029 C 
ATOM     12  C   UNL     1       1.431   6.993  -0.536  0.00  0.00    +0.107 C 
ATOM     13  N   UNL     1       0.760   8.119   0.123  0.00  0.00    -0.336 N 
ATOM     14  H   UNL     1       1.197   8.567   1.028  0.00  0.00    +0.147 HD
ENDROOT
BRANCH  12  15
ATOM     15  C   UNL     1       0.606   5.744  -0.360  0.00  0.00    -0.002 A 
ATOM     16  C   UNL     1      -0.718   5.685  -0.148  0.00  0.00    +0.089 A 
ATOM     17  N   UNL     1      -1.115   4.381  -0.037  0.00  0.00    -0.360 N 
ATOM     18  H   UNL     1      -2.175   4.141   0.139  0.00  0.00    +0.165 HD
ATOM     19  C   UNL     1      -0.029   3.547  -0.178  0.00  0.00    +0.047 A 
ATOM     20  C   UNL     1       1.097   4.364  -0.386  0.00  0.00    +0.005 A 
ATOM     21  C   UNL     1       2.355   3.785  -0.564  0.00  0.00    +0.010 A 
ATOM     22  C   UNL     1       2.486   2.425  -0.534  0.00  0.00    +0.001 A 
ATOM     23  C   UNL     1       1.378   1.614  -0.329  0.00  0.00    +0.002 A 
ATOM     24  C   UNL     1       0.127   2.165  -0.157  0.00  0.00    +0.026 A 
ENDBRANCH  12  15
BRANCH   1  25
ATOM     25  S   UNL     1      -4.269  10.145  -2.248  0.00  0.00    +0.075 S 
ATOM     26  O   UNL     1      -4.543   9.334  -3.383  0.00  0.00    -0.150 OA
ATOM     27  O   UNL     1      -5.192  10.293  -1.178  0.00  0.00    -0.150 OA
BRANCH  25  28
ATOM     28  N   UNL     1      -3.958  11.668  -2.818  0.00  0.00    -0.203 N 
BRANCH  28  29
ATOM     29  C   UNL     1      -4.251  12.782  -2.030  0.00  0.00    +0.051 A 
ATOM     30  C   UNL     1      -3.237  13.655  -1.653  0.00  0.00    +0.025 A 
ATOM     31  C   UNL     1      -3.531  14.758  -0.877  0.00  0.00    +0.002 A 
ATOM     32  C   UNL     1      -4.831  14.990  -0.466  0.00  0.00    +0.000 A 
ATOM     33  C   UNL     1      -5.841  14.121  -0.834  0.00  0.00    +0.002 A 
ATOM     34  C   UNL     1      -5.555  13.018  -1.615  0.00  0.00    +0.025 A 
ENDBRANCH  28  29
BRANCH  28  36
ATOM     35  C   UNL     1      -4.491  12.089  -5.168  0.00  0.00    +0.026 C 
ATOM     36  C   UNL     1      -3.374  11.846  -4.151  0.00  0.00    +0.128 C 
ENDBRANCH  28  36
ENDBRANCH  25  28
ENDBRANCH   1  25
TORSDOF 5
