REMARK  Name = ZINC39035072
REMARK  2 active torsions:
REMARK  status: ('A' for Active; 'I' for Inactive)
REMARK    1  A    between atoms: C_17  and  C_18
REMARK    2  A    between atoms: C_28  and  C_30
REMARK                            x       y       z     vdW  Elec       q    Type
REMARK                         _______ _______ _______ _____ _____    ______ ____
ROOT
ATOM      1  C   UNL     1      -0.017   1.379   0.010  0.00  0.00    +0.000 A 
ATOM      2  C   UNL     1       1.168   2.094   0.002  0.00  0.00    +0.001 A 
ATOM      3  C   UNL     1       2.378   1.429  -0.023  0.00  0.00    +0.010 A 
ATOM      4  C   UNL     1       2.401   0.039  -0.047  0.00  0.00    +0.004 A 
ATOM      5  C   UNL     1       1.206  -0.677  -0.017  0.00  0.00    -0.038 A 
ATOM      6  C   UNL     1       0.002  -0.004   0.002  0.00  0.00    +0.004 A 
ATOM      7  C   UNL     1       1.240  -2.183   0.021  0.00  0.00    +0.040 C 
ATOM      8  C   UNL     1       2.411  -2.704  -0.808  0.00  0.00    +0.040 C 
ATOM      9  C   UNL     1       3.685  -2.002  -0.431  0.00  0.00    -0.016 C 
ATOM     10  C   UNL     1       3.686  -0.703  -0.085  0.00  0.00    +0.076 C 
ATOM     11  N   UNL     1       4.850  -0.075   0.227  0.00  0.00    -0.223 NA
ATOM     12  C   UNL     1       6.015  -0.647   0.229  0.00  0.00    +0.178 A 
ATOM     13  N   UNL     1       6.222  -1.977  -0.084  0.00  0.00    -0.275 N 
ATOM     14  C   UNL     1       7.471  -2.458  -0.046  0.00  0.00    +0.268 A 
ATOM     15  O   UNL     1       7.705  -3.622  -0.311  0.00  0.00    -0.266 OA
ATOM     16  C   UNL     1       8.557  -1.527   0.327  0.00  0.00    +0.080 A 
ATOM     17  C   UNL     1       9.915  -1.762   0.438  0.00  0.00    +0.026 C 
ATOM     18  S   UNL     1       7.641  -0.018   0.595  0.00  0.00    -0.046 S 
ATOM     19  C   UNL     1       4.997  -2.748  -0.439  0.00  0.00    +0.151 C 
ENDROOT
BRANCH  17  20
ATOM     20  C   UNL     1      10.773  -0.727   0.809  0.00  0.00    -0.018 C 
ATOM     21  C   UNL     1      12.160  -0.793   0.961  0.00  0.00    +0.003 A 
ATOM     22  C   UNL     1      13.088  -1.843   0.805  0.00  0.00    +0.010 A 
ATOM     23  C   UNL     1      14.408  -1.615   1.025  0.00  0.00    +0.001 A 
ATOM     24  C   UNL     1      14.880  -0.355   1.405  0.00  0.00    +0.002 A 
ATOM     25  C   UNL     1      14.047   0.699   1.574  0.00  0.00    +0.026 A 
ATOM     26  C   UNL     1      12.651   0.537   1.362  0.00  0.00    +0.043 A 
ATOM     27  N   UNL     1      11.652   1.388   1.459  0.00  0.00    -0.380 N 
ATOM     28  C   UNL     1      10.398   0.704   1.125  0.00  0.00    +0.149 C 
ATOM     29  H   UNL     1      11.732   2.321   1.709  0.00  0.00    +0.160 HD
ENDBRANCH  17  20
BRANCH  19  30
ATOM     30  C   UNL     1       5.195  -3.323  -1.818  0.00  0.00    -0.020 A 
ATOM     31  C   UNL     1       5.669  -2.520  -2.839  0.00  0.00    +0.007 A 
ATOM     32  C   UNL     1       5.850  -3.046  -4.104  0.00  0.00    +0.020 A 
ATOM     33  C   UNL     1       5.559  -4.377  -4.348  0.00  0.00    +0.041 A 
ATOM     34  C   UNL     1       5.085  -5.179  -3.325  0.00  0.00    +0.020 A 
ATOM     35  C   UNL     1       4.909  -4.653  -2.059  0.00  0.00    +0.007 A 
ATOM     36 CL   UNL     1       5.786  -5.038  -5.937  0.00  0.00    -0.084 Cl
ENDBRANCH  19  30
TORSDOF 2
