REMARK  Name = ZINC50105919
REMARK  11 active torsions:
REMARK  status: ('A' for Active; 'I' for Inactive)
REMARK    1  A    between atoms: C_1  and  C_2
REMARK    2  A    between atoms: C_5  and  N_9
REMARK    3  A    between atoms: C_10  and  C_12
REMARK    4  A    between atoms: C_12  and  N_13
REMARK    5  A    between atoms: N_13  and  C_14
REMARK    6  A    between atoms: N_13  and  C_18
REMARK    7  A    between atoms: C_14  and  C_15
REMARK    8  A    between atoms: C_15  and  C_16
REMARK    9  A    between atoms: C_16  and  O_17
REMARK   10  A    between atoms: C_18  and  C_19
REMARK   11  A    between atoms: C_18  and  C_20
REMARK                            x       y       z     vdW  Elec       q    Type
REMARK                         _______ _______ _______ _____ _____    ______ ____
ROOT
ATOM      1  N   UNL     1      -0.184  -4.264   0.214  0.00  0.00    -0.285 N 
ATOM      2  C   UNL     1       0.100  -4.971   1.325  0.00  0.00    +0.201 C 
ATOM      3  O   UNL     1       0.025  -4.444   2.415  0.00  0.00    -0.278 OA
ATOM      4  H   UNL     1      -0.199  -4.704  -0.650  0.00  0.00    +0.155 HD
ENDROOT
BRANCH   1   9
ATOM      5  C   UNL     1      -1.289   1.290   0.588  0.00  0.00    +0.044 C 
ATOM      6  C   UNL     1      -0.996  -0.185   0.489  0.00  0.00    -0.048 A 
ATOM      7  C   UNL     1       0.022  -0.632  -0.334  0.00  0.00    +0.020 A 
ATOM      8  C   UNL     1       0.294  -1.983  -0.428  0.00  0.00    +0.040 A 
ATOM      9  C   UNL     1      -0.456  -2.894   0.306  0.00  0.00    +0.062 A 
ATOM     10  C   UNL     1      -1.477  -2.441   1.132  0.00  0.00    +0.040 A 
ATOM     11  C   UNL     1      -1.740  -1.087   1.225  0.00  0.00    +0.020 A 
ATOM     12 BR   UNL     1      -2.502  -3.675   2.134  0.00  0.00    -0.048 Br
ATOM     13 BR   UNL     1       1.685  -2.594  -1.554  0.00  0.00    -0.048 Br
ENDBRANCH   1   9
BRANCH   2  14
ATOM     14  C   UNL     1       0.511  -6.417   1.214  0.00  0.00    +0.019 C 
BRANCH  14  15
ATOM     15  N   UNL     1       0.946  -6.904   2.530  0.00  0.00    +0.387 N 
ATOM     16  H   UNL     1       0.323  -6.553   3.242  0.00  0.00    -0.081 HD
BRANCH  15  17
ATOM     17  C   UNL     1       2.312  -6.434   2.799  0.00  0.00    -0.074 C 
ATOM     18  C   UNL     1       3.223  -6.817   1.631  0.00  0.00    -0.014 C 
ATOM     19  C   UNL     1       2.305  -4.913   2.964  0.00  0.00    -0.014 C 
ENDBRANCH  15  17
BRANCH  15  20
ATOM     20  C   UNL     1       0.923  -8.373   2.540  0.00  0.00    -0.076 C 
BRANCH  20  21
ATOM     21  C   UNL     1       1.234  -8.879   3.950  0.00  0.00    +0.009 C 
BRANCH  21  22
ATOM     22  C   UNL     1       1.308 -10.407   3.939  0.00  0.00    +0.154 C 
BRANCH  22  23
ATOM     23  O   UNL     1       1.598 -10.879   5.256  0.00  0.00    -0.395 OA
ATOM     24  H   UNL     1       1.660 -11.842   5.324  0.00  0.00    +0.209 HD
ENDBRANCH  22  23
ENDBRANCH  21  22
ENDBRANCH  20  21
ENDBRANCH  15  20
ENDBRANCH  14  15
ENDBRANCH   2  14
TORSDOF 8
