REMARK  Name = ZINC63567361
REMARK  7 active torsions:
REMARK  status: ('A' for Active; 'I' for Inactive)
REMARK    1  A    between atoms: C_1  and  C_2
REMARK    2  A    between atoms: C_2  and  N_3
REMARK    3  A    between atoms: C_10  and  N_28
REMARK    4  A    between atoms: C_12  and  C_14
REMARK    5  A    between atoms: N_16  and  C_17
REMARK    6  A    between atoms: C_17  and  C_18
REMARK    7  A    between atoms: C_18  and  C_19
REMARK                            x       y       z     vdW  Elec       q    Type
REMARK                         _______ _______ _______ _____ _____    ______ ____
ROOT
ATOM      1  N   UNL     1       0.601  -0.610   1.372  0.00  0.00    -0.317 N 
ATOM      2  C   UNL     1       1.940  -0.980   1.522  0.00  0.00    +0.036 A 
ATOM      3  C   UNL     1       2.943  -1.084   0.555  0.00  0.00    +0.026 A 
ATOM      4  C   UNL     1       4.217  -1.471   0.913  0.00  0.00    +0.040 A 
ATOM      5  C   UNL     1       4.512  -1.760   2.234  0.00  0.00    +0.124 A 
ATOM      6  C   UNL     1       3.523  -1.660   3.197  0.00  0.00    +0.045 A 
ATOM      7  C   UNL     1       2.245  -1.272   2.842  0.00  0.00    -0.001 A 
ATOM      8  C   UNL     1       0.998  -1.085   3.676  0.00  0.00    +0.137 C 
ATOM      9  C   UNL     1      -0.076  -0.639   2.671  0.00  0.00    +0.184 C 
ATOM     10  F   UNL     1       5.761  -2.140   2.582  0.00  0.00    -0.205 F 
ENDROOT
BRANCH   8  11
ATOM     11  N   UNL     1       0.617  -2.346   4.316  0.00  0.00    -0.292 N 
ATOM     12  C   UNL     1       0.433  -3.615   3.601  0.00  0.00    +0.109 C 
ATOM     13  C   UNL     1       0.476  -4.711   4.689  0.00  0.00    +0.028 C 
ATOM     14  C   UNL     1       0.028  -3.926   5.944  0.00  0.00    +0.097 C 
ATOM     15  C   UNL     1       0.396  -2.492   5.634  0.00  0.00    +0.216 C 
ATOM     16  O   UNL     1       0.477  -1.603   6.454  0.00  0.00    -0.276 OA
ENDBRANCH   8  11
BRANCH   9  17
ATOM     17  C   UNL     1      -1.211  -1.631   2.647  0.00  0.00    +0.236 C 
ATOM     18  O   UNL     1      -1.367  -2.350   1.683  0.00  0.00    -0.274 OA
ATOM     19  N   UNL     1      -2.051  -1.718   3.697  0.00  0.00    -0.313 N 
ATOM     20  H   UNL     1      -1.926  -1.143   4.468  0.00  0.00    +0.149 HD
BRANCH  19  21
ATOM     21  C   UNL     1      -3.154  -2.682   3.674  0.00  0.00    +0.108 C 
BRANCH  21  22
ATOM     22  C   UNL     1      -3.950  -2.578   4.976  0.00  0.00    +0.052 C 
BRANCH  22  23
ATOM     23  C   UNL     1      -5.084  -3.570   4.953  0.00  0.00    -0.040 C 
ATOM     24  C   UNL     1      -5.086  -4.816   5.480  0.00  0.00    -0.001 A 
ATOM     25  C   UNL     1      -4.072  -5.590   6.205  0.00  0.00    +0.010 A 
ATOM     26  C   UNL     1      -4.373  -6.843   6.617  0.00  0.00    +0.001 A 
ATOM     27  C   UNL     1      -5.627  -7.418   6.370  0.00  0.00    +0.002 A 
ATOM     28  C   UNL     1      -6.610  -6.769   5.711  0.00  0.00    +0.026 A 
ATOM     29  C   UNL     1      -6.403  -5.446   5.232  0.00  0.00    +0.043 A 
ATOM     30  N   UNL     1      -7.184  -4.622   4.577  0.00  0.00    -0.380 N 
ATOM     31  C   UNL     1      -6.453  -3.372   4.341  0.00  0.00    +0.144 C 
ATOM     32  H   UNL     1      -8.095  -4.806   4.299  0.00  0.00    +0.160 HD
ENDBRANCH  22  23
ENDBRANCH  21  22
ENDBRANCH  19  21
ENDBRANCH   9  17
BRANCH   1  34
ATOM     33  C   UNL     1       0.112   1.265  -0.120  0.00  0.00    +0.024 C 
ATOM     34  C   UNL     1      -0.031  -0.242   0.103  0.00  0.00    +0.102 C 
ENDBRANCH   1  34
TORSDOF 6
