REMARK  Name = ZINC06515971
REMARK  6 active torsions:
REMARK  status: ('A' for Active; 'I' for Inactive)
REMARK    1  A    between atoms: C_1  and  C_2
REMARK    2  A    between atoms: C_2  and  C_3
REMARK    3  A    between atoms: C_3  and  C_4
REMARK    4  A    between atoms: N_6  and  C_7
REMARK    5  A    between atoms: C_7  and  N_9
REMARK    6  A    between atoms: C_11  and  C_17
REMARK                            x       y       z     vdW  Elec       q    Type
REMARK                         _______ _______ _______ _____ _____    ______ ____
ROOT
ATOM      1  N   UNL     1      -1.192   2.002   0.019  0.00  0.00    -0.281 N 
ATOM      2  C   UNL     1      -1.211   3.395   0.026  0.00  0.00    +0.127 A 
ATOM      3  C   UNL     1      -2.429   4.067   0.030  0.00  0.00    -0.009 A 
ATOM      4  C   UNL     1      -2.433   5.450   0.043  0.00  0.00    +0.022 A 
ATOM      5  C   UNL     1      -1.215   6.117   0.041  0.00  0.00    +0.032 A 
ATOM      6  C   UNL     1      -0.044   5.385   0.032  0.00  0.00    +0.127 A 
ATOM      7  N   UNL     1      -0.070   4.066   0.025  0.00  0.00    -0.239 NA
ATOM      8  I   UNL     1      -1.154   8.211   0.051  0.00  0.00    -0.042 I 
ATOM      9  C   UNL     1      -3.725   3.299   0.026  0.00  0.00    +0.047 C 
ATOM     10  H   UNL     1      -2.026   1.505   0.020  0.00  0.00    +0.155 HD
ENDROOT
BRANCH   1  11
ATOM     11  C   UNL     1      -0.016   1.344   0.009  0.00  0.00    +0.142 C 
ATOM     12  S   UNL     1       1.455   2.220   0.000  0.00  0.00    -0.018 S 
BRANCH  11  15
ATOM     13  C   UNL     1       1.178  -0.662  -0.013  0.00  0.00    +0.218 C 
ATOM     14  O   UNL     1       2.220  -0.042  -0.019  0.00  0.00    -0.275 OA
ATOM     15  N   UNL     1       0.002  -0.004   0.002  0.00  0.00    -0.268 N 
ATOM     16  H   UNL     1      -0.831  -0.500   0.007  0.00  0.00    +0.156 HD
BRANCH  13  17
ATOM     17  C   UNL     1       1.199  -2.169  -0.021  0.00  0.00    +0.096 C 
BRANCH  17  19
ATOM     18  C   UNL     1       2.669  -4.189  -0.046  0.00  0.00    +0.004 C 
ATOM     19  C   UNL     1       2.648  -2.659  -0.037  0.00  0.00    +0.006 C 
ENDBRANCH  17  19
ENDBRANCH  13  17
ENDBRANCH  11  15
ENDBRANCH   1  11
TORSDOF 4
