REMARK  Name = ZINC49645470
REMARK  5 active torsions:
REMARK  status: ('A' for Active; 'I' for Inactive)
REMARK    1  A    between atoms: C_1  and  C_2
REMARK    2  A    between atoms: C_2  and  C_4
REMARK    3  A    between atoms: C_2  and  N_10
REMARK    4  A    between atoms: N_10  and  S_11
REMARK    5  A    between atoms: S_11  and  C_14
REMARK                            x       y       z     vdW  Elec       q    Type
REMARK                         _______ _______ _______ _____ _____    ______ ____
ROOT
ATOM      1  S   UNL     1      -0.188  -0.875  -2.551  0.00  0.00    +0.031 S 
ATOM      2  O   UNL     1       0.781  -1.306  -3.498  0.00  0.00    -0.158 OA
ATOM      3  O   UNL     1      -1.190  -1.767  -2.083  0.00  0.00    -0.158 OA
ENDROOT
BRANCH   1   4
ATOM      4  C   UNL     1      -0.942   0.683  -3.095  0.00  0.00    +0.131 C 
ATOM      5  C   UNL     1       0.158   1.699  -3.416  0.00  0.00    +0.024 C 
ATOM      6  C   UNL     1      -0.486   2.983  -3.947  0.00  0.00    -0.017 C 
ATOM      7  C   UNL     1      -1.342   2.648  -5.171  0.00  0.00    -0.082 C 
ATOM      8  N   UNL     1      -2.391   1.694  -4.793  0.00  0.00    +0.380 N 
ATOM      9  C   UNL     1      -1.782   0.434  -4.349  0.00  0.00    -0.055 C 
ATOM     10  H   UNL     1      -2.942   2.081  -4.042  0.00  0.00    -0.086 HD
ATOM     11  H   UNL     1      -2.986   1.516  -5.588  0.00  0.00    -0.086 HD
ENDBRANCH   1   4
BRANCH   1  12
ATOM     12  N   UNL     1       0.688  -0.476  -1.203  0.00  0.00    -0.187 NA
ATOM     13  H   UNL     1       1.655  -0.556  -1.212  0.00  0.00    +0.148 HD
BRANCH  12  15
ATOM     14  C   UNL     1      -0.019   1.526   0.010  0.00  0.00    +0.031 C 
ATOM     15  C   UNL     1       0.002  -0.004   0.002  0.00  0.00    +0.110 C 
BRANCH  15  16
ATOM     16  C   UNL     1       0.731  -0.503   1.223  0.00  0.00    +0.009 A 
ATOM     17  C   UNL     1       0.222  -0.979   2.385  0.00  0.00    +0.014 A 
ATOM     18  C   UNL     1       1.091  -1.386   3.381  0.00  0.00    +0.028 A 
ATOM     19  C   UNL     1       2.427  -1.297   3.164  0.00  0.00    +0.078 A 
ATOM     20  S   UNL     1       2.489  -0.629   1.510  0.00  0.00    -0.080 S 
ATOM     21 CL   UNL     1       3.737  -1.728   4.219  0.00  0.00    -0.076 Cl
ENDBRANCH  15  16
ENDBRANCH  12  15
ENDBRANCH   1  12
TORSDOF 4
