REMARK  Name = ZINC39666496
REMARK  8 active torsions:
REMARK  status: ('A' for Active; 'I' for Inactive)
REMARK    1  A    between atoms: C_1  and  C_2
REMARK    2  A    between atoms: C_6  and  C_9
REMARK    3  A    between atoms: C_13  and  C_22
REMARK    4  A    between atoms: N_24  and  C_25
REMARK    5  A    between atoms: C_25  and  C_26
REMARK    6  A    between atoms: C_26  and  C_28
REMARK    7  A    between atoms: C_26  and  O_29
REMARK    8  A    between atoms: O_29  and  C_30
REMARK                            x       y       z     vdW  Elec       q    Type
REMARK                         _______ _______ _______ _____ _____    ______ ____
ROOT
ATOM      1  C   UNL     1      -0.397  -1.824   0.689  0.00  0.00    +0.252 C 
ATOM      2  O   UNL     1       0.726  -1.832   1.155  0.00  0.00    -0.270 OA
ATOM      3  N   UNL     1      -1.453  -2.130   1.469  0.00  0.00    -0.296 N 
ATOM      4  C   UNL     1      -2.883  -2.180   1.084  0.00  0.00    +0.121 C 
ATOM      5  C   UNL     1      -3.446  -3.409   1.832  0.00  0.00    +0.100 C 
ATOM      6  C   UNL     1      -2.500  -3.608   3.027  0.00  0.00    -0.004 C 
ATOM      7  C   UNL     1      -1.445  -2.499   2.905  0.00  0.00    +0.115 C 
ATOM      8  C   UNL     1      -1.830  -4.977   2.948  0.00  0.00    -0.010 C 
ATOM      9  C   UNL     1      -0.938  -5.175   4.177  0.00  0.00    -0.082 C 
ATOM     10  N   UNL     1      -1.751  -5.075   5.395  0.00  0.00    +0.379 N 
ATOM     11  C   UNL     1      -2.317  -3.726   5.511  0.00  0.00    -0.082 C 
ATOM     12  C   UNL     1      -3.267  -3.467   4.338  0.00  0.00    -0.010 C 
ATOM     13  H   UNL     1      -2.500  -5.750   5.354  0.00  0.00    -0.086 HD
ATOM     14  H   UNL     1      -1.173  -5.267   6.200  0.00  0.00    -0.086 HD
ENDROOT
BRANCH   1  20
ATOM     15  C   UNL     1      -1.245   1.599  -2.845  0.00  0.00    +0.047 C 
ATOM     16  C   UNL     1      -1.013   0.167  -2.438  0.00  0.00    -0.014 A 
ATOM     17  C   UNL     1      -0.995  -0.829  -3.398  0.00  0.00    +0.009 A 
ATOM     18  C   UNL     1      -0.783  -2.146  -3.035  0.00  0.00    +0.039 A 
ATOM     19  C   UNL     1      -0.588  -2.479  -1.707  0.00  0.00    +0.138 A 
ATOM     20  C   UNL     1      -0.605  -1.478  -0.730  0.00  0.00    +0.107 A 
ATOM     21  C   UNL     1      -0.814  -0.147  -1.107  0.00  0.00    +0.141 A 
ATOM     22  F   UNL     1      -0.826   0.828  -0.172  0.00  0.00    -0.204 F 
ATOM     23  F   UNL     1      -0.381  -3.767  -1.355  0.00  0.00    -0.205 F 
ENDBRANCH   1  20
BRANCH   5  24
ATOM     24  C   UNL     1      -3.428  -4.621   0.937  0.00  0.00    +0.218 C 
ATOM     25  O   UNL     1      -2.585  -4.723   0.071  0.00  0.00    -0.275 OA
ATOM     26  N   UNL     1      -4.348  -5.593   1.099  0.00  0.00    -0.312 N 
ATOM     27  H   UNL     1      -5.022  -5.512   1.792  0.00  0.00    +0.149 HD
BRANCH  26  28
ATOM     28  C   UNL     1      -4.330  -6.771   0.229  0.00  0.00    +0.148 C 
BRANCH  28  29
ATOM     29  C   UNL     1      -5.471  -7.712   0.622  0.00  0.00    +0.187 C 
ATOM     30  C   UNL     1      -5.377  -8.998  -0.202  0.00  0.00    +0.053 C 
BRANCH  29  31
ATOM     31  O   UNL     1      -6.723  -7.074   0.367  0.00  0.00    -0.486 OA
BRANCH  31  32
ATOM     32  C   UNL     1      -7.789  -7.492   1.100  0.00  0.00    +0.139 A 
ATOM     33  C   UNL     1      -7.658  -8.568   1.965  0.00  0.00    +0.047 A 
ATOM     34  C   UNL     1      -8.743  -8.991   2.709  0.00  0.00    +0.004 A 
ATOM     35  C   UNL     1      -9.959  -8.343   2.592  0.00  0.00    +0.002 A 
ATOM     36  C   UNL     1     -10.093  -7.271   1.730  0.00  0.00    +0.023 A 
ATOM     37  C   UNL     1      -9.009  -6.839   0.988  0.00  0.00    +0.083 A 
ATOM     38 CL   UNL     1      -9.176  -5.488  -0.089  0.00  0.00    -0.080 Cl
ENDBRANCH  31  32
ENDBRANCH  29  31
ENDBRANCH  28  29
ENDBRANCH  26  28
ENDBRANCH   5  24
TORSDOF 6
