REMARK  Name = ZINC08691425
REMARK  7 active torsions:
REMARK  status: ('A' for Active; 'I' for Inactive)
REMARK    1  A    between atoms: C_1  and  C_2
REMARK    2  A    between atoms: C_2  and  O_3
REMARK    3  A    between atoms: O_3  and  C_4
REMARK    4  A    between atoms: C_4  and  C_6
REMARK    5  A    between atoms: C_7  and  C_26
REMARK    6  A    between atoms: C_11  and  C_13
REMARK    7  A    between atoms: C_16  and  C_18
REMARK                            x       y       z     vdW  Elec       q    Type
REMARK                         _______ _______ _______ _____ _____    ______ ____
ROOT
ATOM      1  C   UNL     1      -2.800  -2.432   0.236  0.00  0.00    +0.081 C 
ATOM      2  C   UNL     1      -2.984  -3.731  -0.085  0.00  0.00    +0.019 C 
ATOM      3  N   UNL     1      -4.235  -4.233  -0.298  0.00  0.00    -0.300 N 
ATOM      4  C   UNL     1      -5.354  -3.503  -0.209  0.00  0.00    +0.135 C 
ATOM      5  N   UNL     1      -5.332  -2.192   0.102  0.00  0.00    -0.312 N 
ATOM      6  C   UNL     1      -4.029  -1.554   0.357  0.00  0.00    +0.177 C 
ATOM      7  S   UNL     1      -6.862  -4.259  -0.502  0.00  0.00    -0.019 S 
ATOM      8  C   UNL     1      -1.789  -4.641  -0.209  0.00  0.00    +0.061 C 
ATOM      9  H   UNL     1      -4.318  -5.172  -0.526  0.00  0.00    +0.154 HD
ATOM     10  H   UNL     1      -6.154  -1.681   0.160  0.00  0.00    +0.149 HD
ENDROOT
BRANCH   6  11
ATOM     11  C   UNL     1      -3.880  -0.410  -0.612  0.00  0.00    +0.131 A 
ATOM     12  C   UNL     1      -3.475   0.837  -0.300  0.00  0.00    +0.047 A 
ATOM     13  C   UNL     1      -3.477   1.583  -1.495  0.00  0.00    +0.050 A 
ATOM     14  C   UNL     1      -3.888   0.743  -2.481  0.00  0.00    +0.135 A 
ATOM     15  O   UNL     1      -4.123  -0.464  -1.932  0.00  0.00    -0.457 OA
BRANCH  14  16
ATOM     16  C   UNL     1      -4.044   1.091  -3.909  0.00  0.00    +0.017 A 
ATOM     17  C   UNL     1      -3.754   2.384  -4.350  0.00  0.00    +0.013 A 
ATOM     18  C   UNL     1      -3.900   2.703  -5.684  0.00  0.00    +0.021 A 
ATOM     19  C   UNL     1      -4.335   1.745  -6.585  0.00  0.00    +0.041 A 
ATOM     20  C   UNL     1      -4.625   0.461  -6.152  0.00  0.00    +0.021 A 
ATOM     21  C   UNL     1      -4.476   0.129  -4.822  0.00  0.00    +0.013 A 
ATOM     22 CL   UNL     1      -4.519   2.154  -8.261  0.00  0.00    -0.084 Cl
ENDBRANCH  14  16
ENDBRANCH   6  11
BRANCH   1  23
ATOM     23  C   UNL     1      -1.504  -1.910   0.457  0.00  0.00    +0.339 C 
ATOM     24  O   UNL     1      -0.542  -2.655   0.472  0.00  0.00    -0.245 OA
BRANCH  23  25
ATOM     25  O   UNL     1      -1.335  -0.585   0.652  0.00  0.00    -0.462 OA
BRANCH  25  27
ATOM     26  C   UNL     1      -0.005   1.389   1.069  0.00  0.00    +0.048 C 
ATOM     27  C   UNL     1       0.002  -0.128   0.869  0.00  0.00    +0.229 C 
ENDBRANCH  25  27
ENDBRANCH  23  25
ENDBRANCH   1  23
TORSDOF 5
