REMARK  Name = ZINC03286710
REMARK  8 active torsions:
REMARK  status: ('A' for Active; 'I' for Inactive)
REMARK    1  A    between atoms: C_10  and  C_11
REMARK    2  A    between atoms: C_11  and  C_12
REMARK    3  A    between atoms: C_15  and  S_18
REMARK    4  A    between atoms: N_16  and  N_17
REMARK    5  A    between atoms: S_18  and  C_19
REMARK    6  A    between atoms: C_19  and  C_20
REMARK    7  A    between atoms: C_20  and  C_22
REMARK    8  A    between atoms: C_22  and  C_32
REMARK                            x       y       z     vdW  Elec       q    Type
REMARK                         _______ _______ _______ _____ _____    ______ ____
ROOT
ATOM      1  C   UNL     1      -0.742   1.585  -1.213  0.00  0.00    +0.155 A 
ATOM      2  N   UNL     1      -1.706   0.973  -1.841  0.00  0.00    -0.132 NA
ATOM      3  N   UNL     1      -2.102   1.681  -2.837  0.00  0.00    -0.121 NA
ATOM      4  C   UNL     1      -1.400   2.788  -2.905  0.00  0.00    +0.209 A 
ATOM      5  N   UNL     1      -0.510   2.761  -1.871  0.00  0.00    -0.228 N 
ENDROOT
BRANCH   5   6
ATOM      6  N   UNL     1       0.419   3.712  -1.557  0.00  0.00    -0.295 N 
ATOM      7  H   UNL     1       1.294   3.531  -2.026  0.00  0.00    +0.163 HD
ATOM      8  H   UNL     1       0.078   4.637  -1.773  0.00  0.00    +0.163 HD
ENDBRANCH   5   6
BRANCH   1   9
ATOM      9  C   UNL     1      -0.013   1.086   0.008  0.00  0.00    +0.113 C 
BRANCH   9  19
ATOM     10  C   UNL     1      -3.956  -0.536   2.841  0.00  0.00    +0.001 A 
ATOM     11  C   UNL     1      -3.316  -1.001   1.693  0.00  0.00    +0.001 A 
ATOM     12  C   UNL     1      -2.260  -0.330   1.158  0.00  0.00    +0.009 A 
ATOM     13  C   UNL     1      -1.806   0.851   1.770  0.00  0.00    -0.014 A 
ATOM     14  C   UNL     1      -2.457   1.324   2.937  0.00  0.00    -0.018 A 
ATOM     15  C   UNL     1      -3.543   0.603   3.460  0.00  0.00    +0.008 A 
ATOM     16  C   UNL     1      -2.002   2.505   3.549  0.00  0.00    +0.008 A 
ATOM     17  C   UNL     1      -0.945   3.176   3.014  0.00  0.00    +0.001 A 
ATOM     18  C   UNL     1      -0.301   2.708   1.871  0.00  0.00    +0.004 A 
ATOM     19  C   UNL     1      -0.718   1.572   1.248  0.00  0.00    -0.032 A 
ENDBRANCH   9  19
ENDBRANCH   1   9
BRANCH   4  20
ATOM     20  S   UNL     1      -1.574   4.067  -4.105  0.00  0.00    -0.077 S 
BRANCH  20  21
ATOM     21  C   UNL     1      -2.921   3.382  -5.101  0.00  0.00    +0.157 C 
BRANCH  21  22
ATOM     22  C   UNL     1      -3.251   4.334  -6.222  0.00  0.00    +0.187 C 
ATOM     23  O   UNL     1      -2.635   5.376  -6.336  0.00  0.00    -0.290 OA
BRANCH  22  24
ATOM     24  C   UNL     1      -4.271   4.018  -7.136  0.00  0.00    +0.131 C 
ATOM     25  C   UNL     1      -4.579   4.906  -8.181  0.00  0.00    +0.114 C 
ATOM     26  N   UNL     1      -3.967   6.098  -8.407  0.00  0.00    -0.300 N 
ATOM     27  C   UNL     1      -4.546   6.679  -9.529  0.00  0.00    +0.054 A 
ATOM     28  C   UNL     1      -4.319   7.872 -10.202  0.00  0.00    +0.025 A 
ATOM     29  C   UNL     1      -5.075   8.190 -11.312  0.00  0.00    +0.002 A 
ATOM     30  C   UNL     1      -6.061   7.324 -11.757  0.00  0.00    +0.002 A 
ATOM     31  C   UNL     1      -6.295   6.136 -11.095  0.00  0.00    +0.025 A 
ATOM     32  C   UNL     1      -5.539   5.806  -9.978  0.00  0.00    +0.054 A 
ATOM     33  N   UNL     1      -5.539   4.711  -9.122  0.00  0.00    -0.300 N 
ATOM     34  H   UNL     1      -3.248   6.477  -7.877  0.00  0.00    +0.153 HD
ATOM     35  H   UNL     1      -6.124   3.940  -9.185  0.00  0.00    +0.153 HD
BRANCH  24  36
ATOM     36  C   UNL     1      -4.996   2.791  -7.001  0.00  0.00    +0.106 C 
ATOM     37  N   UNL     1      -5.572   1.817  -6.895  0.00  0.00    -0.191 NA
ENDBRANCH  24  36
ENDBRANCH  22  24
ENDBRANCH  21  22
ENDBRANCH  20  21
ENDBRANCH   4  20
TORSDOF 8
