REMARK  Name = ZINC09168710
REMARK  7 active torsions:
REMARK  status: ('A' for Active; 'I' for Inactive)
REMARK    1  A    between atoms: C_1  and  C_2
REMARK    2  A    between atoms: C_2  and  O_3
REMARK    3  A    between atoms: O_3  and  C_4
REMARK    4  A    between atoms: C_11  and  C_13
REMARK    5  A    between atoms: C_19  and  C_21
REMARK    6  A    between atoms: C_21  and  S_22
REMARK    7  A    between atoms: S_22  and  C_23
REMARK                            x       y       z     vdW  Elec       q    Type
REMARK                         _______ _______ _______ _____ _____    ______ ____
ROOT
ATOM      1  C   UNL     1       3.980   7.688   0.005  0.00  0.00    +0.285 A 
ATOM      2  N   UNL     1       2.667   7.736   0.018  0.00  0.00    -0.103 NA
ATOM      3  N   UNL     1       2.196   6.539   0.011  0.00  0.00    -0.092 NA
ATOM      4  C   UNL     1       3.187   5.679   0.002  0.00  0.00    +0.315 A 
ATOM      5  O   UNL     1       4.334   6.384  -0.005  0.00  0.00    -0.402 OA
ATOM      6  N   UNL     1       3.074   4.299  -0.004  0.00  0.00    -0.238 N 
ATOM      7  C   UNL     1       1.855   3.722   0.004  0.00  0.00    +0.231 C 
ATOM      8  O   UNL     1       0.858   4.413   0.018  0.00  0.00    -0.274 OA
ATOM      9  H   UNL     1       3.871   3.747  -0.015  0.00  0.00    +0.159 HD
ENDROOT
BRANCH   1  17
ATOM     10  C   UNL     1       8.109  10.447  -0.020  0.00  0.00    +0.163 A 
ATOM     11  C   UNL     1       8.366  11.807  -0.015  0.00  0.00    +0.049 A 
ATOM     12  C   UNL     1       7.325  12.724  -0.000  0.00  0.00    +0.004 A 
ATOM     13  C   UNL     1       6.026  12.297   0.010  0.00  0.00    +0.012 A 
ATOM     14  C   UNL     1       5.744  10.929   0.005  0.00  0.00    +0.025 A 
ATOM     15  C   UNL     1       6.792   9.992  -0.009  0.00  0.00    +0.177 A 
ATOM     16  O   UNL     1       6.240   8.761  -0.005  0.00  0.00    -0.446 OA
ATOM     17  C   UNL     1       4.894   8.839   0.002  0.00  0.00    +0.192 A 
ATOM     18  C   UNL     1       4.510  10.142   0.013  0.00  0.00    +0.063 A 
BRANCH  10  19
ATOM     19  O   UNL     1       9.138   9.559  -0.035  0.00  0.00    -0.489 OA
BRANCH  19  21
ATOM     20  C   UNL     1      11.478   8.955  -0.061  0.00  0.00    +0.048 C 
ATOM     21  C   UNL     1      10.461  10.098  -0.044  0.00  0.00    +0.226 C 
ENDBRANCH  19  21
ENDBRANCH  10  19
ENDBRANCH   1  17
BRANCH   7  22
ATOM     22  C   UNL     1       1.732   2.220  -0.003  0.00  0.00    +0.170 C 
BRANCH  22  23
ATOM     23  S   UNL     1      -0.022   1.758   0.012  0.00  0.00    -0.116 S 
BRANCH  23  24
ATOM     24  C   UNL     1       0.002  -0.004   0.002  0.00  0.00    +0.008 A 
ATOM     25  C   UNL     1       1.214  -0.684  -0.019  0.00  0.00    +0.016 A 
ATOM     26  C   UNL     1       1.229  -2.065  -0.021  0.00  0.00    +0.021 A 
ATOM     27  C   UNL     1       0.040  -2.771  -0.014  0.00  0.00    +0.041 A 
ATOM     28  C   UNL     1      -1.169  -2.097   0.002  0.00  0.00    +0.021 A 
ATOM     29  C   UNL     1      -1.191  -0.717   0.010  0.00  0.00    +0.016 A 
ATOM     30 CL   UNL     1       0.063  -4.507  -0.023  0.00  0.00    -0.084 Cl
ENDBRANCH  23  24
ENDBRANCH  22  23
ENDBRANCH   7  22
TORSDOF 6
