REMARK  Name = ZINC25955249
REMARK  8 active torsions:
REMARK  status: ('A' for Active; 'I' for Inactive)
REMARK    1  A    between atoms: C_5  and  N_7
REMARK    2  A    between atoms: C_8  and  C_10
REMARK    3  A    between atoms: C_10  and  S_11
REMARK    4  A    between atoms: S_11  and  C_12
REMARK    5  A    between atoms: C_15  and  C_22
REMARK    6  A    between atoms: N_16  and  C_17
REMARK    7  A    between atoms: C_17  and  C_18
REMARK    8  A    between atoms: C_18  and  C_19
REMARK                            x       y       z     vdW  Elec       q    Type
REMARK                         _______ _______ _______ _____ _____    ______ ____
ROOT
ATOM      1  C   UNL     1       1.707   2.136  -0.037  0.00  0.00    +0.192 A 
ATOM      2  N   UNL     1       2.670   1.243  -0.049  0.00  0.00    -0.122 NA
ATOM      3  N   UNL     1       3.815   1.827  -0.072  0.00  0.00    -0.125 NA
ATOM      4  C   UNL     1       3.653   3.132  -0.067  0.00  0.00    +0.200 A 
ATOM      5  N   UNL     1       2.296   3.370  -0.044  0.00  0.00    -0.299 N 
ENDROOT
BRANCH   4   6
ATOM      6  C   UNL     1       4.719   4.146  -0.081  0.00  0.00    +0.172 A 
ATOM      7  C   UNL     1       6.037   3.925   0.188  0.00  0.00    +0.053 A 
ATOM      8  C   UNL     1       6.690   5.166   0.056  0.00  0.00    +0.042 A 
ATOM      9  C   UNL     1       5.751   6.075  -0.275  0.00  0.00    +0.196 A 
ATOM     10  O   UNL     1       4.562   5.455  -0.357  0.00  0.00    -0.460 OA
ENDBRANCH   4   6
BRANCH   1  11
ATOM     11  S   UNL     1      -0.024   1.806  -0.010  0.00  0.00    -0.077 S 
BRANCH  11  12
ATOM     12  C   UNL     1       0.001  -0.004  -0.015  0.00  0.00    +0.173 C 
BRANCH  12  14
ATOM     13  N   UNL     1      -1.640  -1.854   0.008  0.00  0.00    -0.284 N 
ATOM     14  C   UNL     1      -1.412  -0.526   0.007  0.00  0.00    +0.228 C 
ATOM     15  O   UNL     1      -2.345   0.250   0.025  0.00  0.00    -0.275 OA
ATOM     16  H   UNL     1      -0.798  -2.556  -0.083  0.00  0.00    +0.155 HD
BRANCH  13  21
ATOM     17  C   UNL     1      -5.290  -2.129  -0.343  0.00  0.00    +0.002 A 
ATOM     18  C   UNL     1      -5.533  -3.300   0.352  0.00  0.00    +0.001 A 
ATOM     19  C   UNL     1      -4.486  -3.992   0.933  0.00  0.00    +0.016 A 
ATOM     20  C   UNL     1      -3.194  -3.515   0.821  0.00  0.00    +0.035 A 
ATOM     21  C   UNL     1      -2.947  -2.340   0.123  0.00  0.00    +0.047 A 
ATOM     22  C   UNL     1      -4.002  -1.644  -0.454  0.00  0.00    +0.024 A 
ATOM     23  I   UNL     1      -1.609  -4.564   1.702  0.00  0.00    -0.042 I 
ENDBRANCH  13  21
ENDBRANCH  12  14
ENDBRANCH  11  12
ENDBRANCH   1  11
BRANCH   5  24
ATOM     24  C   UNL     1       1.626   4.672  -0.030  0.00  0.00    +0.135 C 
BRANCH  24  25
ATOM     25  C   UNL     1       1.416   5.122   1.418  0.00  0.00    +0.117 C 
BRANCH  25  26
ATOM     26  C   UNL     1       0.726   6.462   1.432  0.00  0.00    +0.212 C 
ATOM     27  O   UNL     1       0.431   7.003   0.388  0.00  0.00    -0.276 OA
ATOM     28  N   UNL     1       0.438   7.058   2.606  0.00  0.00    -0.329 N 
ATOM     29  H   UNL     1      -0.066   8.036   2.616  0.00  0.00    +0.145 HD
ATOM     30  H   UNL     1       0.705   6.567   3.553  0.00  0.00    +0.145 HD
ENDBRANCH  25  26
ENDBRANCH  24  25
ENDBRANCH   5  24
TORSDOF 8
