REMARK  Name = ZINC61189127
REMARK  12 active torsions:
REMARK  status: ('A' for Active; 'I' for Inactive)
REMARK    1  A    between atoms: C_1  and  C_2
REMARK    2  A    between atoms: C_4  and  C_28
REMARK    3  A    between atoms: C_9  and  C_10
REMARK    4  A    between atoms: C_10  and  N_11
REMARK    5  A    between atoms: N_14  and  C_15
REMARK    6  A    between atoms: C_15  and  C_16
REMARK    7  A    between atoms: C_16  and  C_17
REMARK    8  A    between atoms: C_16  and  N_25
REMARK    9  A    between atoms: C_22  and  O_23
REMARK   10  A    between atoms: O_23  and  C_24
REMARK   11  A    between atoms: N_25  and  C_26
REMARK   12  A    between atoms: N_25  and  C_27
REMARK                            x       y       z     vdW  Elec       q    Type
REMARK                         _______ _______ _______ _____ _____    ______ ____
ROOT
ATOM      1  N   UNL     1      -0.871  -0.207   3.854  0.00  0.00    -0.295 N 
ATOM      2  C   UNL     1      -1.312   0.573   4.861  0.00  0.00    +0.300 C 
ATOM      3  O   UNL     1      -0.515   1.154   5.572  0.00  0.00    -0.253 OA
ATOM      4  N   UNL     1      -2.635   0.708   5.080  0.00  0.00    -0.301 N 
ATOM      5  H   UNL     1      -1.507  -0.671   3.286  0.00  0.00    +0.151 HD
ATOM      6  H   UNL     1      -3.270   0.243   4.512  0.00  0.00    +0.150 HD
ENDROOT
BRANCH   1   7
ATOM      7  C   UNL     1       0.567  -0.354   3.616  0.00  0.00    +0.146 C 
BRANCH   7  16
ATOM      8  C   UNL     1       0.944   0.732   0.967  0.00  0.00    +0.044 C 
ATOM      9  C   UNL     1       0.969  -0.758   1.190  0.00  0.00    -0.039 A 
ATOM     10  C   UNL     1       1.180  -1.632   0.115  0.00  0.00    +0.024 A 
ATOM     11  C   UNL     1       1.201  -2.969   0.325  0.00  0.00    +0.016 A 
ATOM     12  N   UNL     1       1.019  -3.478   1.570  0.00  0.00    -0.326 N 
ATOM     13  H   UNL     1       1.037  -4.439   1.702  0.00  0.00    +0.169 HD
ATOM     14  C   UNL     1       0.814  -2.665   2.623  0.00  0.00    +0.254 A 
ATOM     15  O   UNL     1       0.651  -3.138   3.737  0.00  0.00    -0.268 OA
ATOM     16  C   UNL     1       0.791  -1.272   2.441  0.00  0.00    +0.037 A 
ATOM     17  C   UNL     1       1.429  -3.903  -0.836  0.00  0.00    +0.063 C 
ENDBRANCH   7  16
ENDBRANCH   1   7
BRANCH   4  18
ATOM     18  C   UNL     1      -3.113   1.555   6.175  0.00  0.00    +0.095 C 
BRANCH  18  19
ATOM     19  C   UNL     1      -4.641   1.633   6.129  0.00  0.00    -0.017 C 
BRANCH  19  20
ATOM     20  C   UNL     1      -5.071   2.329   4.864  0.00  0.00    -0.018 A 
ATOM     21  C   UNL     1      -5.509   1.590   3.783  0.00  0.00    +0.005 A 
ATOM     22  C   UNL     1      -5.904   2.228   2.622  0.00  0.00    +0.000 A 
ATOM     23  C   UNL     1      -5.862   3.608   2.540  0.00  0.00    +0.004 A 
ATOM     24  C   UNL     1      -5.425   4.352   3.619  0.00  0.00    +0.046 A 
ATOM     25  C   UNL     1      -5.034   3.714   4.787  0.00  0.00    +0.122 A 
BRANCH  25  26
ATOM     26  O   UNL     1      -4.609   4.444   5.852  0.00  0.00    -0.495 OA
ATOM     27  C   UNL     1      -4.597   5.864   5.702  0.00  0.00    +0.277 C 
ENDBRANCH  25  26
ENDBRANCH  19  20
BRANCH  19  28
ATOM     28  N   UNL     1      -5.201   0.275   6.155  0.00  0.00    +0.382 N 
ATOM     29  C   UNL     1      -4.676  -0.449   7.321  0.00  0.00    -0.096 C 
ATOM     30  C   UNL     1      -6.665   0.351   6.245  0.00  0.00    -0.096 C 
ATOM     31  H   UNL     1      -4.940  -0.213   5.311  0.00  0.00    -0.082 HD
ENDBRANCH  19  28
ENDBRANCH  18  19
ENDBRANCH   4  18
TORSDOF 7
