REMARK  Name = ZINC06981531
REMARK  5 active torsions:
REMARK  status: ('A' for Active; 'I' for Inactive)
REMARK    1  A    between atoms: C_1  and  C_2
REMARK    2  A    between atoms: C_2  and  C_4
REMARK    3  A    between atoms: C_7  and  N_10
REMARK    4  A    between atoms: C_16  and  C_18
REMARK    5  A    between atoms: C_19  and  C_20
REMARK                            x       y       z     vdW  Elec       q    Type
REMARK                         _______ _______ _______ _____ _____    ______ ____
ROOT
ATOM      1  N   UNL     1      -4.919   3.949   0.044  0.00  0.00    -0.327 N 
ATOM      2  C   UNL     1      -5.765   3.538  -1.084  0.00  0.00    +0.124 C 
ATOM      3  C   UNL     1      -7.153   4.171  -0.935  0.00  0.00    +0.127 C 
ATOM      4  N   UNL     1      -6.989   5.624  -0.778  0.00  0.00    -0.295 N 
ATOM      5  C   UNL     1      -6.050   6.112   0.243  0.00  0.00    +0.127 C 
ATOM      6  C   UNL     1      -4.706   5.402   0.048  0.00  0.00    +0.124 C 
ATOM      7  C   UNL     1      -7.681   6.486  -1.550  0.00  0.00    +0.240 C 
ATOM      8  O   UNL     1      -8.380   6.066  -2.453  0.00  0.00    -0.271 OA
ENDROOT
BRANCH   1  12
ATOM      9  C   UNL     1      -1.301   1.914   0.008  0.00  0.00    +0.017 A 
ATOM     10  C   UNL     1      -1.319   3.315   0.019  0.00  0.00    +0.013 A 
ATOM     11  C   UNL     1      -2.511   3.980   0.025  0.00  0.00    +0.024 A 
ATOM     12  C   UNL     1      -3.708   3.268   0.032  0.00  0.00    +0.030 A 
ATOM     13  C   UNL     1      -3.695   1.875   0.027  0.00  0.00    +0.024 A 
ATOM     14  C   UNL     1      -2.507   1.202   0.015  0.00  0.00    +0.013 A 
BRANCH   9  16
ATOM     15  C   UNL     1       1.275   1.963  -0.018  0.00  0.00    +0.091 C 
ATOM     16  C   UNL     1      -0.022   1.195  -0.004  0.00  0.00    +0.160 C 
ATOM     17  O   UNL     1      -0.008  -0.018  -0.008  0.00  0.00    -0.292 OA
ENDBRANCH   9  16
ENDBRANCH   1  12
BRANCH   7  18
ATOM     18  C   UNL     1      -7.590   7.926  -1.302  0.00  0.00    +0.068 C 
ATOM     19  C   UNL     1      -8.358   8.781  -2.007  0.00  0.00    +0.013 C 
BRANCH  19  20
ATOM     20  C   UNL     1      -8.268  10.228  -1.757  0.00  0.00    -0.025 A 
ATOM     21  C   UNL     1      -7.390  10.720  -0.786  0.00  0.00    +0.009 A 
ATOM     22  C   UNL     1      -7.307  12.078  -0.560  0.00  0.00    +0.016 A 
ATOM     23  C   UNL     1      -8.098  12.953  -1.287  0.00  0.00    +0.018 A 
ATOM     24  C   UNL     1      -8.973  12.473  -2.247  0.00  0.00    +0.016 A 
ATOM     25  C   UNL     1      -9.063  11.118  -2.487  0.00  0.00    +0.009 A 
ATOM     26 BR   UNL     1      -7.981  14.813  -0.966  0.00  0.00    -0.050 Br
ENDBRANCH  19  20
ENDBRANCH   7  18
TORSDOF 4
