REMARK  Name = ZINC10615655
REMARK  7 active torsions:
REMARK  status: ('A' for Active; 'I' for Inactive)
REMARK    1  A    between atoms: C_1  and  C_2
REMARK    2  A    between atoms: C_8  and  C_10
REMARK    3  A    between atoms: C_10  and  C_12
REMARK    4  A    between atoms: C_10  and  O_13
REMARK    5  A    between atoms: O_13  and  C_14
REMARK    6  A    between atoms: C_14  and  C_16
REMARK    7  A    between atoms: C_21  and  N_22
REMARK                            x       y       z     vdW  Elec       q    Type
REMARK                         _______ _______ _______ _____ _____    ______ ____
ROOT
ATOM      1  O   UNL     1       4.076   4.220  -2.300  0.00  0.00    -0.449 OA
ENDROOT
BRANCH   1   2
ATOM      2  C   UNL     1       4.190   3.032  -1.473  0.00  0.00    +0.259 C 
ATOM      3  C   UNL     1       5.531   2.347  -1.745  0.00  0.00    +0.062 C 
BRANCH   2  11
ATOM      4  C   UNL     1       3.306  -3.042   0.042  0.00  0.00    +0.007 C 
ATOM      5  C   UNL     1       2.859  -1.579   0.050  0.00  0.00    -0.011 C 
ATOM      6  C   UNL     1       2.106  -1.269  -1.246  0.00  0.00    +0.022 C 
ATOM      7  C   UNL     1       1.630   0.187  -1.220  0.00  0.00    +0.108 C 
ATOM      8  N   UNL     1       2.786   1.058  -0.970  0.00  0.00    -0.298 N 
ATOM      9  C   UNL     1       3.632   0.791   0.201  0.00  0.00    +0.108 C 
ATOM     10  C   UNL     1       4.086  -0.671   0.159  0.00  0.00    +0.022 C 
ATOM     11  C   UNL     1       3.066   2.083  -1.800  0.00  0.00    +0.256 C 
ATOM     12  O   UNL     1       2.413   2.241  -2.810  0.00  0.00    -0.272 OA
ENDBRANCH   2  11
ENDBRANCH   1   2
BRANCH   1  13
ATOM     13  C   UNL     1       4.538   5.374  -1.780  0.00  0.00    +0.342 C 
ATOM     14  O   UNL     1       5.023   5.388  -0.666  0.00  0.00    -0.245 OA
BRANCH  13  15
ATOM     15  C   UNL     1       4.456   6.619  -2.563  0.00  0.00    +0.081 A 
ATOM     16  C   UNL     1       3.788   6.636  -3.791  0.00  0.00    +0.032 A 
ATOM     17  C   UNL     1       3.710   7.805  -4.515  0.00  0.00    +0.019 A 
ATOM     18  C   UNL     1       4.301   8.966  -4.038  0.00  0.00    +0.017 A 
ATOM     19  C   UNL     1       4.969   8.964  -2.830  0.00  0.00    +0.024 A 
ATOM     20  C   UNL     1       5.053   7.796  -2.083  0.00  0.00    +0.039 A 
ATOM     21 BR   UNL     1       2.800   7.827  -6.172  0.00  0.00    -0.050 Br
BRANCH  20  22
ATOM     22  N   UNL     1       5.726   7.792  -0.868  0.00  0.00    -0.357 N 
ATOM     23  H   UNL     1       6.070   6.960  -0.507  0.00  0.00    +0.142 HD
ATOM     24  H   UNL     1       5.851   8.621  -0.380  0.00  0.00    +0.142 HD
ENDBRANCH  20  22
ENDBRANCH  13  15
ENDBRANCH   1  13
TORSDOF 5
