REMARK  Name = ZINC28057258
REMARK  6 active torsions:
REMARK  status: ('A' for Active; 'I' for Inactive)
REMARK    1  A    between atoms: C_1  and  O_2
REMARK    2  A    between atoms: O_2  and  C_3
REMARK    3  A    between atoms: C_6  and  C_11
REMARK    4  A    between atoms: C_7  and  O_9
REMARK    5  A    between atoms: O_9  and  C_10
REMARK    6  A    between atoms: C_28  and  C_30
REMARK                            x       y       z     vdW  Elec       q    Type
REMARK                         _______ _______ _______ _____ _____    ______ ____
ROOT
ATOM      1  C   UNL     1      -1.534   2.496  -2.552  0.00  0.00    +0.238 C 
ATOM      2  C   UNL     1      -1.855   2.006  -1.158  0.00  0.00    +0.026 C 
ATOM      3  C   UNL     1      -2.859   1.144  -0.986  0.00  0.00    +0.050 C 
ATOM      4  C   UNL     1      -3.640   0.726  -2.174  0.00  0.00    +0.038 A 
ATOM      5  C   UNL     1      -4.459  -0.396  -2.147  0.00  0.00    +0.013 A 
ATOM      6  C   UNL     1      -5.172  -0.746  -3.279  0.00  0.00    +0.001 A 
ATOM      7  C   UNL     1      -5.071   0.014  -4.431  0.00  0.00    +0.004 A 
ATOM      8  C   UNL     1      -4.256   1.131  -4.467  0.00  0.00    +0.046 A 
ATOM      9  C   UNL     1      -3.537   1.493  -3.343  0.00  0.00    +0.131 A 
ATOM     10  O   UNL     1      -2.722   2.578  -3.339  0.00  0.00    -0.479 OA
ATOM     11  N   UNL     1      -3.202   0.637   0.273  0.00  0.00    -0.282 N 
ATOM     12  C   UNL     1      -2.660   1.268   1.381  0.00  0.00    +0.240 A 
ATOM     13  N   UNL     1      -2.958   1.190   2.645  0.00  0.00    -0.092 NA
ATOM     14  N   UNL     1      -2.197   1.972   3.333  0.00  0.00    -0.021 NA
ATOM     15  N   UNL     1      -1.370   2.593   2.556  0.00  0.00    -0.042 NA
ATOM     16  N   UNL     1      -1.638   2.155   1.259  0.00  0.00    -0.201 N 
ATOM     17  C   UNL     1      -1.015   2.507  -0.009  0.00  0.00    +0.177 C 
ATOM     18  H   UNL     1      -3.877  -0.228   0.352  0.00  0.00    +0.155 HD
ENDROOT
BRANCH  17  19
ATOM     19  C   UNL     1       0.355   1.883  -0.082  0.00  0.00    +0.017 A 
ATOM     20  C   UNL     1       0.486   0.509  -0.152  0.00  0.00    +0.009 A 
ATOM     21  C   UNL     1       1.742  -0.063  -0.226  0.00  0.00    +0.001 A 
ATOM     22  C   UNL     1       2.869   0.738  -0.230  0.00  0.00    +0.003 A 
ATOM     23  C   UNL     1       2.740   2.112  -0.160  0.00  0.00    +0.039 A 
ATOM     24  C   UNL     1       1.483   2.687  -0.086  0.00  0.00    +0.129 A 
ATOM     25  F   UNL     1       1.356   4.030  -0.018  0.00  0.00    -0.205 F 
ENDBRANCH  17  19
BRANCH   1  29
ATOM     26  C   UNL     1       1.199  -0.220  -4.408  0.00  0.00    +0.124 A 
ATOM     27  C   UNL     1      -0.147  -0.542  -4.312  0.00  0.00    +0.046 A 
ATOM     28  C   UNL     1      -1.028   0.337  -3.712  0.00  0.00    +0.015 A 
ATOM     29  C   UNL     1      -0.571   1.539  -3.205  0.00  0.00    +0.039 A 
ATOM     30  C   UNL     1       0.773   1.868  -3.304  0.00  0.00    +0.131 A 
ATOM     31  C   UNL     1       1.660   0.985  -3.901  0.00  0.00    +0.091 A 
BRANCH  26  33
ATOM     32  C   UNL     1       1.521  -2.308  -5.497  0.00  0.00    +0.277 C 
ATOM     33  O   UNL     1       2.065  -1.085  -4.998  0.00  0.00    -0.495 OA
ENDBRANCH  26  33
BRANCH  30  34
ATOM     34  O   UNL     1       1.221   3.052  -2.810  0.00  0.00    -0.495 OA
ATOM     35  C   UNL     1       2.593   3.377  -3.048  0.00  0.00    +0.277 C 
ENDBRANCH  30  34
ENDBRANCH   1  29
TORSDOF 4
