REMARK  Name = ZINC20536342
REMARK  10 active torsions:
REMARK  status: ('A' for Active; 'I' for Inactive)
REMARK    1  A    between atoms: C_1  and  C_2
REMARK    2  A    between atoms: C_5  and  C_9
REMARK    3  A    between atoms: C_7  and  C_8
REMARK    4  A    between atoms: C_10  and  C_15
REMARK    5  A    between atoms: C_15  and  N_16
REMARK    6  A    between atoms: N_16  and  C_17
REMARK    7  A    between atoms: C_17  and  C_18
REMARK    8  A    between atoms: C_18  and  C_19
REMARK    9  A    between atoms: C_22  and  S_25
REMARK   10  A    between atoms: S_25  and  N_28
REMARK                            x       y       z     vdW  Elec       q    Type
REMARK                         _______ _______ _______ _____ _____    ______ ____
ROOT
ATOM      1  N   UNL     1       4.059   0.549  -1.397  0.00  0.00    -0.312 NA
ATOM      2  H   UNL     1       3.703  -0.429  -1.753  0.00  0.00    +0.122 HD
ENDROOT
BRANCH   1   3
ATOM      3  C   UNL     1       3.578   0.776  -0.027  0.00  0.00    +0.120 C 
BRANCH   3   5
ATOM      4  C   UNL     1       1.258  -0.396  -0.012  0.00  0.00    +0.097 A 
ATOM      5  C   UNL     1       2.071   0.754  -0.014  0.00  0.00    +0.011 A 
ATOM      6  C   UNL     1       1.260   1.834  -0.000  0.00  0.00    +0.110 A 
ATOM      7  N   UNL     1      -0.017   1.397   0.010  0.00  0.00    -0.284 N 
ATOM      8  H   UNL     1      -0.846   2.119   0.021  0.00  0.00    +0.188 HD
ATOM      9  N   UNL     1       0.002  -0.004   0.002  0.00  0.00    -0.174 NA
BRANCH   4  14
ATOM     10  C   UNL     1       3.105  -5.851  -0.057  0.00  0.00    +0.044 C 
ATOM     11  C   UNL     1       2.622  -4.424  -0.045  0.00  0.00    -0.047 A 
ATOM     12  C   UNL     1       3.325  -3.453  -0.735  0.00  0.00    +0.004 A 
ATOM     13  C   UNL     1       2.887  -2.144  -0.727  0.00  0.00    +0.010 A 
ATOM     14  C   UNL     1       1.734  -1.802  -0.023  0.00  0.00    +0.003 A 
ATOM     15  C   UNL     1       1.033  -2.783   0.674  0.00  0.00    +0.013 A 
ATOM     16  C   UNL     1       1.477  -4.090   0.655  0.00  0.00    -0.047 A 
ATOM     17  C   UNL     1       0.717  -5.153   1.405  0.00  0.00    +0.044 C 
ENDBRANCH   4  14
ENDBRANCH   3   5
ENDBRANCH   1   3
BRANCH   1  18
ATOM     18  C   UNL     1       5.527   0.564  -1.448  0.00  0.00    +0.086 C 
BRANCH  18  19
ATOM     19  C   UNL     1       5.989   0.325  -2.887  0.00  0.00    +0.050 C 
BRANCH  19  20
ATOM     20  C   UNL     1       7.495   0.340  -2.941  0.00  0.00    -0.046 A 
ATOM     21  C   UNL     1       8.167   1.525  -3.172  0.00  0.00    +0.005 A 
ATOM     22  C   UNL     1       9.548   1.540  -3.217  0.00  0.00    +0.029 A 
ATOM     23  C   UNL     1      10.258   0.367  -3.038  0.00  0.00    +0.105 A 
ATOM     24  C   UNL     1       9.586  -0.820  -2.812  0.00  0.00    +0.029 A 
ATOM     25  C   UNL     1       8.204  -0.833  -2.763  0.00  0.00    +0.005 A 
BRANCH  23  26
ATOM     26  S   UNL     1      12.018   0.384  -3.099  0.00  0.00    +0.056 S 
ATOM     27  O   UNL     1      12.423   1.709  -2.782  0.00  0.00    -0.153 OA
ATOM     28  O   UNL     1      12.462  -0.745  -2.360  0.00  0.00    -0.153 OA
BRANCH  26  29
ATOM     29  N   UNL     1      12.457   0.121  -4.674  0.00  0.00    -0.204 NA
ATOM     30  H   UNL     1      13.554   0.124  -4.755  0.00  0.00    +0.144 HD
ATOM     31  H   UNL     1      12.040   0.916  -5.309  0.00  0.00    +0.144 HD
ENDBRANCH  26  29
ENDBRANCH  23  26
ENDBRANCH  19  20
ENDBRANCH  18  19
ENDBRANCH   1  18
TORSDOF 8
