REMARK  Name = ZINC36705358
REMARK  6 active torsions:
REMARK  status: ('A' for Active; 'I' for Inactive)
REMARK    1  A    between atoms: C_1  and  N_2
REMARK    2  A    between atoms: C_10  and  C_12
REMARK    3  A    between atoms: C_12  and  C_14
REMARK    4  A    between atoms: C_12  and  N_24
REMARK    5  A    between atoms: C_14  and  N_15
REMARK    6  A    between atoms: N_18  and  C_19
REMARK                            x       y       z     vdW  Elec       q    Type
REMARK                         _______ _______ _______ _____ _____    ______ ____
ROOT
ATOM      1  C   UNL     1       4.927  -2.746  -0.486  0.00  0.00    -0.020 C 
ENDROOT
BRANCH   1  11
ATOM      2  C   UNL     1       0.100   1.469   0.744  0.00  0.00    +0.129 C 
ATOM      3  N   UNL     1       0.079   0.022   0.519  0.00  0.00    -0.333 N 
ATOM      4  C   UNL     1      -1.189  -0.719   0.543  0.00  0.00    +0.105 C 
ATOM      5  C   UNL     1      -0.970  -1.997   1.364  0.00  0.00    +0.024 C 
ATOM      6  C   UNL     1       0.068  -2.867   0.654  0.00  0.00    +0.038 C 
ATOM      7  C   UNL     1       1.301  -2.062   0.335  0.00  0.00    -0.026 A 
ATOM      8  C   UNL     1       1.266  -0.676   0.271  0.00  0.00    +0.033 A 
ATOM      9  C   UNL     1       2.419   0.037  -0.037  0.00  0.00    +0.023 A 
ATOM     10  C   UNL     1       3.601  -0.634  -0.282  0.00  0.00    +0.004 A 
ATOM     11  C   UNL     1       3.636  -2.014  -0.220  0.00  0.00    -0.059 A 
ATOM     12  C   UNL     1       2.491  -2.727   0.096  0.00  0.00    +0.007 A 
ENDBRANCH   1  11
BRANCH   1  13
ATOM     13  N   UNL     1       6.041  -2.014   0.132  0.00  0.00    +0.385 N 
ATOM     14  C   UNL     1       5.839  -1.918   1.600  0.00  0.00    -0.078 C 
ATOM     15  C   UNL     1       7.269  -1.665   2.139  0.00  0.00    -0.020 C 
ATOM     16  C   UNL     1       8.146  -2.544   1.218  0.00  0.00    -0.020 C 
ATOM     17  C   UNL     1       7.305  -2.759  -0.054  0.00  0.00    -0.078 C 
ATOM     18  H   UNL     1       6.118  -1.092  -0.271  0.00  0.00    -0.081 HD
ENDBRANCH   1  13
BRANCH   1  19
ATOM     19  C   UNL     1       5.156  -2.845  -1.995  0.00  0.00    +0.095 C 
BRANCH  19  20
ATOM     20  N   UNL     1       4.116  -3.685  -2.594  0.00  0.00    -0.300 N 
ATOM     21  C   UNL     1       4.051  -3.827  -3.932  0.00  0.00    +0.304 C 
ATOM     22  O   UNL     1       4.856  -3.257  -4.644  0.00  0.00    -0.252 OA
ATOM     23  N   UNL     1       3.094  -4.600  -4.482  0.00  0.00    -0.264 N 
ATOM     24  H   UNL     1       3.474  -4.139  -2.026  0.00  0.00    +0.150 HD
ATOM     25  H   UNL     1       2.451  -5.054  -3.915  0.00  0.00    +0.157 HD
BRANCH  23  26
ATOM     26  C   UNL     1       3.026  -4.747  -5.871  0.00  0.00    +0.073 A 
ATOM     27  C   UNL     1       2.143  -5.469  -6.616  0.00  0.00    +0.031 A 
ATOM     28  C   UNL     1       2.273  -5.465  -7.993  0.00  0.00    +0.009 A 
ATOM     29  C   UNL     1       3.272  -4.745  -8.558  0.00  0.00    +0.047 A 
ATOM     30  S   UNL     1       4.070  -4.030  -7.130  0.00  0.00    -0.082 S 
ENDBRANCH  23  26
ENDBRANCH  19  20
ENDBRANCH   1  19
TORSDOF 5
