REMARK  Name = ZINC05486802
REMARK  12 active torsions:
REMARK  status: ('A' for Active; 'I' for Inactive)
REMARK    1  A    between atoms: C_1  and  C_2
REMARK    2  A    between atoms: C_2  and  N_62
REMARK    3  A    between atoms: C_3  and  C_4
REMARK    4  A    between atoms: C_3  and  N_62
REMARK    5  A    between atoms: C_5  and  C_6
REMARK    6  A    between atoms: C_5  and  N_62
REMARK    7  A    between atoms: C_6  and  N_7
REMARK    8  A    between atoms: N_7  and  C_8
REMARK    9  A    between atoms: C_18  and  O_23
REMARK   10  A    between atoms: O_23  and  S_24
REMARK   11  A    between atoms: S_24  and  C_27
REMARK   12  A    between atoms: C_30  and  C_33
REMARK                            x       y       z     vdW  Elec       q    Type
REMARK                         _______ _______ _______ _____ _____    ______ ____
ROOT
ATOM      1  C   UNL     1      -4.701   3.263   5.858  0.00  0.00    +0.042 A 
ATOM      2  C   UNL     1      -6.017   3.311   6.297  0.00  0.00    +0.024 A 
ATOM      3  C   UNL     1      -6.821   2.190   6.197  0.00  0.00    +0.005 A 
ATOM      4  C   UNL     1      -6.334   1.014   5.663  0.00  0.00    +0.047 A 
ATOM      5  C   UNL     1      -5.021   0.937   5.216  0.00  0.00    +0.141 A 
ATOM      6  C   UNL     1      -4.199   2.072   5.315  0.00  0.00    +0.085 A 
ATOM      7  C   UNL     1      -2.808   1.987   4.839  0.00  0.00    +0.202 A 
ATOM      8  O   UNL     1      -2.052   2.939   4.902  0.00  0.00    -0.286 OA
ATOM      9  C   UNL     1      -2.373   0.688   4.283  0.00  0.00    +0.068 A 
ATOM     10  C   UNL     1      -1.072   0.513   3.813  0.00  0.00    +0.064 A 
ATOM     11  C   UNL     1      -0.692  -0.710   3.293  0.00  0.00    +0.158 A 
ATOM     12  C   UNL     1      -1.603  -1.761   3.250  0.00  0.00    +0.052 A 
ATOM     13  C   UNL     1      -2.889  -1.595   3.717  0.00  0.00    +0.050 A 
ATOM     14  C   UNL     1      -3.292  -0.370   4.239  0.00  0.00    +0.139 A 
ATOM     15  O   UNL     1      -4.553  -0.216   4.695  0.00  0.00    -0.455 OA
ENDROOT
BRANCH   1  16
ATOM     16  N   UNL     1      -3.889   4.386   5.956  0.00  0.00    -0.345 N 
ATOM     17  H   UNL     1      -2.949   4.326   5.725  0.00  0.00    +0.146 HD
BRANCH  16  18
ATOM     18  C   UNL     1      -4.452   5.660   6.409  0.00  0.00    +0.083 C 
BRANCH  18  19
ATOM     19  C   UNL     1      -3.354   6.726   6.426  0.00  0.00    -0.060 C 
BRANCH  19  20
ATOM     20  N   UNL     1      -3.921   7.981   6.963  0.00  0.00    +0.380 N 
ATOM     21  H   UNL     1      -4.855   8.124   6.561  0.00  0.00    -0.082 HD
BRANCH  20  23
ATOM     22  C   UNL     1      -4.829   9.103   8.939  0.00  0.00    -0.017 C 
ATOM     23  C   UNL     1      -4.040   7.893   8.434  0.00  0.00    -0.082 C 
ENDBRANCH  20  23
BRANCH  20  24
ATOM     24  C   UNL     1      -3.059   9.123   6.593  0.00  0.00    -0.082 C 
ATOM     25  C   UNL     1      -3.317   9.477   5.128  0.00  0.00    -0.017 C 
ENDBRANCH  20  24
ENDBRANCH  19  20
ENDBRANCH  18  19
ENDBRANCH  16  18
ENDBRANCH   1  16
BRANCH  11  26
ATOM     26  O   UNL     1       0.573  -0.888   2.828  0.00  0.00    -0.342 OA
BRANCH  26  27
ATOM     27  S   UNL     1       0.741  -0.564   1.351  0.00  0.00    +0.151 S 
ATOM     28  O   UNL     1      -0.429  -1.034   0.696  0.00  0.00    -0.131 OA
ATOM     29  O   UNL     1       2.045  -0.996   0.986  0.00  0.00    -0.131 OA
BRANCH  27  30
ATOM     30  C   UNL     1       0.732   1.192   1.198  0.00  0.00    +0.128 A 
ATOM     31  C   UNL     1      -0.459   1.862   0.994  0.00  0.00    +0.031 A 
ATOM     32  C   UNL     1      -0.467   3.239   0.879  0.00  0.00    +0.005 A 
ATOM     33  C   UNL     1       0.719   3.946   0.959  0.00  0.00    -0.050 A 
ATOM     34  C   UNL     1       1.911   3.276   1.159  0.00  0.00    +0.005 A 
ATOM     35  C   UNL     1       1.918   1.898   1.278  0.00  0.00    +0.031 A 
ATOM     36  C   UNL     1       0.711   5.447   0.829  0.00  0.00    +0.044 C 
ENDBRANCH  27  30
ENDBRANCH  26  27
ENDBRANCH  11  26
TORSDOF 9
