REMARK  Name = ZINC39527747
REMARK  10 active torsions:
REMARK  status: ('A' for Active; 'I' for Inactive)
REMARK    1  A    between atoms: C_1  and  C_2
REMARK    2  A    between atoms: C_2  and  C_3
REMARK    3  A    between atoms: C_2  and  S_4
REMARK    4  A    between atoms: S_4  and  C_7
REMARK    5  A    between atoms: C_17  and  C_26
REMARK    6  A    between atoms: N_19  and  S_20
REMARK    7  A    between atoms: S_20  and  C_23
REMARK    8  A    between atoms: C_23  and  C_24
REMARK    9  A    between atoms: C_23  and  C_25
REMARK   10  A    between atoms: C_31  and  O_32
REMARK                            x       y       z     vdW  Elec       q    Type
REMARK                         _______ _______ _______ _____ _____    ______ ____
ROOT
ATOM      1  C   UNL     1      -0.446  -0.202   2.809  0.00  0.00    +0.133 C 
ATOM      2  C   UNL     1      -0.884   1.224   2.470  0.00  0.00    +0.026 C 
ATOM      3  C   UNL     1      -1.583   1.845   3.680  0.00  0.00    +0.004 C 
ATOM      4  C   UNL     1      -0.616   1.878   4.866  0.00  0.00    +0.024 C 
ATOM      5  C   UNL     1      -0.174   0.455   5.204  0.00  0.00    +0.045 C 
ATOM      6  C   UNL     1       0.522  -0.169   3.994  0.00  0.00    +0.050 C 
ATOM      7  C   UNL     1      -1.396  -0.387   5.583  0.00  0.00    +0.024 C 
ATOM      8  C   UNL     1      -0.933  -1.768   6.053  0.00  0.00    +0.004 C 
ATOM      9  C   UNL     1      -0.046  -1.615   7.291  0.00  0.00    +0.025 C 
ATOM     10  C   UNL     1       1.192  -0.788   6.930  0.00  0.00    +0.113 C 
ATOM     11  N   UNL     1       0.754   0.485   6.341  0.00  0.00    -0.167 NA
ENDROOT
BRANCH  10  12
ATOM     12  C   UNL     1       2.002  -0.521   8.172  0.00  0.00    +0.013 A 
ATOM     13  C   UNL     1       1.401  -0.575   9.415  0.00  0.00    +0.009 A 
ATOM     14  C   UNL     1       2.143  -0.330  10.555  0.00  0.00    +0.001 A 
ATOM     15  C   UNL     1       3.490  -0.031  10.455  0.00  0.00    +0.004 A 
ATOM     16  C   UNL     1       4.096   0.024   9.215  0.00  0.00    +0.046 A 
ATOM     17  C   UNL     1       3.354  -0.227   8.069  0.00  0.00    +0.122 A 
BRANCH  17  18
ATOM     18  O   UNL     1       3.949  -0.179   6.849  0.00  0.00    -0.506 OA
ATOM     19  H   UNL     1       4.001   0.709   6.471  0.00  0.00    +0.292 HD
ENDBRANCH  17  18
ENDBRANCH  10  12
BRANCH   1  20
ATOM     20  S   UNL     1       0.382  -0.939   1.373  0.00  0.00    -0.026 S 
ATOM     21  O   UNL     1       1.634  -0.292   1.195  0.00  0.00    -0.174 OA
ATOM     22  O   UNL     1      -0.539  -0.972   0.291  0.00  0.00    -0.174 OA
BRANCH  20  24
ATOM     23  C   UNL     1      -0.647  -3.357   2.131  0.00  0.00    +0.031 C 
ATOM     24  C   UNL     1       0.688  -2.642   1.917  0.00  0.00    +0.125 C 
ATOM     25  C   UNL     1       1.497  -3.381   0.849  0.00  0.00    +0.031 C 
ENDBRANCH  20  24
ENDBRANCH   1  20
BRANCH  11  26
ATOM     26  S   UNL     1       1.297   1.927   6.948  0.00  0.00    +0.035 S 
ATOM     27  O   UNL     1       2.514   1.607   7.608  0.00  0.00    -0.158 OA
ATOM     28  O   UNL     1       1.287   2.815   5.839  0.00  0.00    -0.158 OA
BRANCH  26  29
ATOM     29  C   UNL     1       0.042   2.425   8.159  0.00  0.00    +0.142 C 
ATOM     30  C   UNL     1      -1.278   2.707   7.439  0.00  0.00    +0.033 C 
ATOM     31  C   UNL     1      -0.162   1.300   9.175  0.00  0.00    +0.033 C 
ENDBRANCH  26  29
ENDBRANCH  11  26
TORSDOF 6
