REMARK  Name = ZINC04678044
REMARK  6 active torsions:
REMARK  status: ('A' for Active; 'I' for Inactive)
REMARK    1  A    between atoms: C_4  and  C_7
REMARK    2  A    between atoms: C_7  and  N_8
REMARK    3  A    between atoms: C_11  and  N_15
REMARK    4  A    between atoms: C_17  and  S_18
REMARK    5  A    between atoms: S_18  and  C_19
REMARK    6  A    between atoms: C_19  and  C_20
REMARK                            x       y       z     vdW  Elec       q    Type
REMARK                         _______ _______ _______ _____ _____    ______ ____
ROOT
ATOM      1  N   UNL     1      -2.927   0.722   1.401  0.00  0.00    -0.299 N 
ATOM      2  C   UNL     1      -3.724   1.532   2.177  0.00  0.00    +0.166 A 
ATOM      3  C   UNL     1      -3.849   0.884   3.417  0.00  0.00    +0.148 A 
ATOM      4  C   UNL     1      -4.623   1.502   4.413  0.00  0.00    +0.147 A 
ATOM      5  N   UNL     1      -5.200   2.667   4.136  0.00  0.00    -0.219 NA
ATOM      6  C   UNL     1      -5.053   3.238   2.954  0.00  0.00    +0.225 A 
ATOM      7  N   UNL     1      -4.337   2.696   1.992  0.00  0.00    -0.216 NA
ATOM      8  N   UNL     1      -3.137  -0.268   3.345  0.00  0.00    -0.217 NA
ATOM      9  C   UNL     1      -2.596  -0.371   2.155  0.00  0.00    +0.172 A 
ENDROOT
BRANCH   4  10
ATOM     10  N   UNL     1      -4.783   0.910   5.656  0.00  0.00    -0.341 N 
ATOM     11  H   UNL     1      -5.214   0.015   5.545  0.00  0.00    +0.144 HD
ATOM     12  H   UNL     1      -5.320   1.347   6.335  0.00  0.00    +0.144 HD
ENDBRANCH   4  10
BRANCH   1  13
ATOM     13  C   UNL     1      -2.514   0.980   0.019  0.00  0.00    +0.161 C 
BRANCH  13  17
ATOM     14  C   UNL     1       1.156   3.165   0.008  0.00  0.00    +0.000 A 
ATOM     15  C   UNL     1       1.175   1.783   0.000  0.00  0.00    +0.000 A 
ATOM     16  C   UNL     1      -0.013   1.076   0.008  0.00  0.00    +0.005 A 
ATOM     17  C   UNL     1      -1.219   1.751   0.017  0.00  0.00    -0.028 A 
ATOM     18  C   UNL     1      -1.238   3.133   0.030  0.00  0.00    +0.005 A 
ATOM     19  C   UNL     1      -0.050   3.840   0.022  0.00  0.00    +0.000 A 
ENDBRANCH  13  17
ENDBRANCH   1  13
BRANCH   9  20
ATOM     20  S   UNL     1      -1.589  -1.711   1.612  0.00  0.00    -0.083 S 
BRANCH  20  21
ATOM     21  C   UNL     1      -1.599  -2.736   3.103  0.00  0.00    +0.112 C 
BRANCH  21  22
ATOM     22  C   UNL     1      -0.776  -3.977   2.865  0.00  0.00    -0.037 A 
ATOM     23  C   UNL     1      -1.375  -5.117   2.364  0.00  0.00    +0.004 A 
ATOM     24  C   UNL     1      -0.619  -6.253   2.140  0.00  0.00    +0.000 A 
ATOM     25  C   UNL     1       0.733  -6.252   2.429  0.00  0.00    +0.000 A 
ATOM     26  C   UNL     1       1.330  -5.113   2.937  0.00  0.00    +0.000 A 
ATOM     27  C   UNL     1       0.576  -3.975   3.154  0.00  0.00    +0.004 A 
ENDBRANCH  21  22
ENDBRANCH  20  21
ENDBRANCH   9  20
TORSDOF 6
