REMARK  Name = ZINC21462851
REMARK  6 active torsions:
REMARK  status: ('A' for Active; 'I' for Inactive)
REMARK    1  A    between atoms: C_1  and  C_2
REMARK    2  A    between atoms: C_5  and  C_31
REMARK    3  A    between atoms: C_6  and  N_8
REMARK    4  A    between atoms: C_18  and  S_19
REMARK    5  A    between atoms: S_19  and  C_20
REMARK    6  A    between atoms: C_20  and  C_21
REMARK                            x       y       z     vdW  Elec       q    Type
REMARK                         _______ _______ _______ _____ _____    ______ ____
ROOT
ATOM      1  N   UNL     1      -1.114  -2.145   0.002  0.00  0.00    -0.255 N 
ATOM      2  C   UNL     1      -1.234  -0.797   0.010  0.00  0.00    +0.267 A 
ATOM      3  O   UNL     1      -2.327  -0.261   0.024  0.00  0.00    -0.267 OA
ATOM      4  C   UNL     1       0.002  -0.004   0.002  0.00  0.00    +0.065 A 
ATOM      5  C   UNL     1      -0.017   1.390   0.010  0.00  0.00    +0.015 A 
ATOM      6  C   UNL     1       1.164   2.080   0.002  0.00  0.00    +0.001 A 
ATOM      7  C   UNL     1       2.379   1.407  -0.013  0.00  0.00    +0.002 A 
ATOM      8  C   UNL     1       2.427   0.042  -0.021  0.00  0.00    +0.028 A 
ATOM      9  C   UNL     1       1.237  -0.692  -0.013  0.00  0.00    +0.079 A 
ATOM     10  N   UNL     1       1.238  -2.046  -0.020  0.00  0.00    -0.223 NA
ATOM     11  C   UNL     1       0.122  -2.732  -0.013  0.00  0.00    +0.177 A 
ENDROOT
BRANCH   1  17
ATOM     12  C   UNL     1      -4.564  -4.577   2.525  0.00  0.00    +0.044 C 
ATOM     13  C   UNL     1      -3.956  -4.138   1.217  0.00  0.00    -0.048 A 
ATOM     14  C   UNL     1      -4.534  -4.526   0.022  0.00  0.00    +0.004 A 
ATOM     15  C   UNL     1      -3.980  -4.125  -1.179  0.00  0.00    +0.005 A 
ATOM     16  C   UNL     1      -2.849  -3.332  -1.189  0.00  0.00    -0.026 A 
ATOM     17  C   UNL     1      -2.263  -2.945   0.009  0.00  0.00    +0.055 A 
ATOM     18  C   UNL     1      -2.823  -3.349   1.214  0.00  0.00    +0.030 A 
ATOM     19  C   UNL     1      -2.248  -2.891  -2.499  0.00  0.00    +0.046 C 
ENDBRANCH   1  17
BRANCH  11  20
ATOM     20  S   UNL     1       0.216  -4.491  -0.023  0.00  0.00    -0.079 S 
BRANCH  20  21
ATOM     21  C   UNL     1       2.013  -4.709  -0.042  0.00  0.00    +0.151 C 
BRANCH  21  22
ATOM     22  C   UNL     1       2.341  -6.180  -0.053  0.00  0.00    +0.122 A 
ATOM     23  N   UNL     1       3.648  -6.551  -0.068  0.00  0.00    -0.194 NA
ATOM     24  C   UNL     1       3.965  -7.868  -0.078  0.00  0.00    +0.288 A 
ATOM     25  O   UNL     1       5.128  -8.233  -0.092  0.00  0.00    -0.265 OA
ATOM     26  C   UNL     1       2.922  -8.795  -0.072  0.00  0.00    +0.102 A 
ATOM     27  C   UNL     1       1.577  -8.385  -0.057  0.00  0.00    +0.060 A 
ATOM     28  N   UNL     1       1.363  -7.028  -0.043  0.00  0.00    -0.342 N 
ATOM     29  C   UNL     1       0.631  -9.418  -0.052  0.00  0.00    +0.034 A 
ATOM     30  C   UNL     1       1.033 -10.708  -0.063  0.00  0.00    +0.048 A 
ATOM     31  S   UNL     1       2.813 -10.565  -0.080  0.00  0.00    -0.090 S 
ATOM     32  H   UNL     1       0.323  -6.669  -0.022  0.00  0.00    +0.167 HD
ENDBRANCH  21  22
ENDBRANCH  20  21
ENDBRANCH  11  20
TORSDOF 4
