REMARK  Name = ZINC12250717
REMARK  11 active torsions:
REMARK  status: ('A' for Active; 'I' for Inactive)
REMARK    1  A    between atoms: C_1  and  C_2
REMARK    2  A    between atoms: C_7  and  N_8
REMARK    3  A    between atoms: C_9  and  C_11
REMARK    4  A    between atoms: C_12  and  C_37
REMARK    5  A    between atoms: C_14  and  S_25
REMARK    6  A    between atoms: C_15  and  C_23
REMARK    7  A    between atoms: C_16  and  C_18
REMARK    8  A    between atoms: S_25  and  C_26
REMARK    9  A    between atoms: C_26  and  C_27
REMARK   10  A    between atoms: N_29  and  C_30
REMARK   11  A    between atoms: C_30  and  C_31
REMARK                            x       y       z     vdW  Elec       q    Type
REMARK                         _______ _______ _______ _____ _____    ______ ____
ROOT
ATOM      1  C   UNL     1       1.184  -2.072  -0.234  0.00  0.00    +0.044 C 
ATOM      2  C   UNL     1       2.361  -2.717  -0.247  0.00  0.00    +0.014 C 
ATOM      3  N   UNL     1       2.417  -4.080  -0.355  0.00  0.00    -0.312 N 
ATOM      4  C   UNL     1       1.327  -4.782  -0.819  0.00  0.00    +0.080 C 
ATOM      5  C   UNL     1       0.093  -4.210  -0.833  0.00  0.00    +0.069 C 
ATOM      6  C   UNL     1      -0.121  -2.807  -0.338  0.00  0.00    +0.105 C 
ATOM      7  C   UNL     1       3.641  -1.929  -0.137  0.00  0.00    +0.061 C 
ATOM      8  H   UNL     1       3.334  -4.617  -0.070  0.00  0.00    +0.152 HD
ENDROOT
BRANCH   6   9
ATOM      9  C   UNL     1      -0.772  -2.855   1.020  0.00  0.00    +0.002 A 
ATOM     10  C   UNL     1      -1.972  -2.359   1.409  0.00  0.00    +0.012 A 
ATOM     11  C   UNL     1      -2.373  -2.525   2.722  0.00  0.00    +0.008 A 
ATOM     12  C   UNL     1      -1.548  -3.169   3.584  0.00  0.00    +0.045 A 
ATOM     13  S   UNL     1      -0.160  -3.572   2.536  0.00  0.00    -0.101 S 
ENDBRANCH   6   9
BRANCH   1  15
ATOM     14  N   UNL     1       0.003  -0.003  -0.007  0.00  0.00    -0.281 N 
ATOM     15  C   UNL     1       1.173  -0.661  -0.126  0.00  0.00    +0.247 C 
ATOM     16  O   UNL     1       2.221  -0.041  -0.139  0.00  0.00    -0.270 OA
ATOM     17  H   UNL     1      -0.939  -0.566   0.076  0.00  0.00    +0.155 HD
BRANCH  14  24
ATOM     18  C   UNL     1      -2.197   1.327  -1.227  0.00  0.00    +0.045 C 
ATOM     19  C   UNL     1      -1.070   2.085  -0.575  0.00  0.00    -0.029 A 
ATOM     20  C   UNL     1      -1.087   3.466  -0.553  0.00  0.00    +0.005 A 
ATOM     21  C   UNL     1      -0.049   4.162   0.040  0.00  0.00    +0.000 A 
ATOM     22  C   UNL     1       1.005   3.478   0.618  0.00  0.00    +0.002 A 
ATOM     23  C   UNL     1       1.025   2.098   0.604  0.00  0.00    +0.023 A 
ATOM     24  C   UNL     1      -0.015   1.395   0.009  0.00  0.00    +0.037 A 
ENDBRANCH  14  24
ENDBRANCH   1  15
BRANCH   5  25
ATOM     25  C   UNL     1      -1.022  -4.958  -1.329  0.00  0.00    +0.098 C 
ATOM     26  N   UNL     1      -1.907  -5.551  -1.723  0.00  0.00    -0.191 NA
ENDBRANCH   5  25
BRANCH   4  27
ATOM     27  S   UNL     1       1.532  -6.433  -1.398  0.00  0.00    -0.100 S 
BRANCH  27  28
ATOM     28  C   UNL     1       3.312  -6.637  -1.145  0.00  0.00    +0.171 C 
BRANCH  28  29
ATOM     29  C   UNL     1       3.728  -8.017  -1.584  0.00  0.00    +0.224 C 
ATOM     30  O   UNL     1       2.901  -8.788  -2.025  0.00  0.00    -0.275 OA
ATOM     31  N   UNL     1       5.017  -8.396  -1.488  0.00  0.00    -0.311 N 
ATOM     32  H   UNL     1       5.767  -7.697  -1.088  0.00  0.00    +0.149 HD
BRANCH  31  33
ATOM     33  C   UNL     1       5.421  -9.738  -1.914  0.00  0.00    +0.139 C 
BRANCH  33  34
ATOM     34  C   UNL     1       6.904  -9.907  -1.704  0.00  0.00    -0.030 A 
ATOM     35  C   UNL     1       7.787  -9.577  -2.714  0.00  0.00    +0.005 A 
ATOM     36  C   UNL     1       9.148  -9.728  -2.519  0.00  0.00    +0.000 A 
ATOM     37  C   UNL     1       9.623 -10.218  -1.318  0.00  0.00    +0.000 A 
ATOM     38  C   UNL     1       8.739 -10.553  -0.309  0.00  0.00    +0.000 A 
ATOM     39  C   UNL     1       7.380 -10.398  -0.502  0.00  0.00    +0.005 A 
ENDBRANCH  33  34
ENDBRANCH  31  33
ENDBRANCH  28  29
ENDBRANCH  27  28
ENDBRANCH   4  27
TORSDOF 9
