REMARK  Name = ZINC09987377
REMARK  10 active torsions:
REMARK  status: ('A' for Active; 'I' for Inactive)
REMARK    1  A    between atoms: C_1  and  C_2
REMARK    2  A    between atoms: C_2  and  C_35
REMARK    3  A    between atoms: C_3  and  C_4
REMARK    4  A    between atoms: N_6  and  C_7
REMARK    5  A    between atoms: C_8  and  C_18
REMARK    6  A    between atoms: C_9  and  C_12
REMARK    7  A    between atoms: C_18  and  O_20
REMARK    8  A    between atoms: O_20  and  C_21
REMARK    9  A    between atoms: C_21  and  C_22
REMARK   10  A    between atoms: C_22  and  C_24
REMARK                            x       y       z     vdW  Elec       q    Type
REMARK                         _______ _______ _______ _____ _____    ______ ____
ROOT
ATOM      1  C   UNL     1       2.605   1.150  -1.385  0.00  0.00    +0.087 A 
ATOM      2  C   UNL     1       1.489   1.939  -1.633  0.00  0.00    +0.095 A 
ATOM      3  C   UNL     1       0.301   1.257  -2.110  0.00  0.00    +0.005 A 
ATOM      4  C   UNL     1       0.391  -0.088  -2.268  0.00  0.00    +0.056 A 
ATOM      5  S   UNL     1       2.066  -0.447  -1.780  0.00  0.00    -0.080 S 
ENDROOT
BRANCH   3   6
ATOM      6  C   UNL     1      -0.949   1.993  -2.415  0.00  0.00    -0.017 A 
ATOM      7  C   UNL     1      -1.484   2.881  -1.482  0.00  0.00    +0.008 A 
ATOM      8  C   UNL     1      -2.644   3.568  -1.775  0.00  0.00    +0.001 A 
ATOM      9  C   UNL     1      -3.283   3.369  -2.986  0.00  0.00    +0.000 A 
ATOM     10  C   UNL     1      -2.760   2.485  -3.913  0.00  0.00    +0.001 A 
ATOM     11  C   UNL     1      -1.597   1.797  -3.634  0.00  0.00    +0.008 A 
ENDBRANCH   3   6
BRANCH   1  14
ATOM     12  C   UNL     1       4.822   0.630  -0.743  0.00  0.00    +0.241 C 
ATOM     13  O   UNL     1       4.605  -0.543  -0.977  0.00  0.00    -0.270 OA
ATOM     14  N   UNL     1       3.851   1.546  -0.928  0.00  0.00    -0.276 N 
ATOM     15  H   UNL     1       4.024   2.482  -0.742  0.00  0.00    +0.156 HD
BRANCH  12  18
ATOM     16  C   UNL     1       6.705  -1.326   0.033  0.00  0.00    +0.039 C 
ATOM     17  C   UNL     1       7.066   0.138   0.038  0.00  0.00    -0.071 C 
ATOM     18  C   UNL     1       6.146   1.051  -0.259  0.00  0.00    +0.066 C 
ATOM     19  C   UNL     1       8.470   0.566   0.378  0.00  0.00    +0.039 C 
ENDBRANCH  12  18
ENDBRANCH   1  14
BRANCH   2  20
ATOM     20  C   UNL     1       1.512   3.387  -1.425  0.00  0.00    +0.343 C 
ATOM     21  O   UNL     1       1.201   3.851  -0.344  0.00  0.00    -0.245 OA
BRANCH  20  22
ATOM     22  O   UNL     1       1.876   4.207  -2.432  0.00  0.00    -0.453 OA
BRANCH  22  23
ATOM     23  C   UNL     1       1.875   5.632  -2.154  0.00  0.00    +0.311 C 
BRANCH  23  24
ATOM     24  C   UNL     1       2.307   6.385  -3.387  0.00  0.00    +0.200 C 
ATOM     25  O   UNL     1       2.587   5.779  -4.400  0.00  0.00    -0.288 OA
BRANCH  24  26
ATOM     26  C   UNL     1       2.387   7.851  -3.361  0.00  0.00    +0.023 A 
ATOM     27  C   UNL     1       2.058   8.552  -2.195  0.00  0.00    +0.015 A 
ATOM     28  C   UNL     1       2.140   9.926  -2.169  0.00  0.00    +0.048 A 
ATOM     29  C   UNL     1       2.537  10.622  -3.303  0.00  0.00    +0.142 A 
ATOM     30  C   UNL     1       2.861   9.930  -4.473  0.00  0.00    +0.076 A 
ATOM     31  C   UNL     1       2.788   8.552  -4.506  0.00  0.00    +0.038 A 
ATOM     32  N   UNL     1       3.259  10.652  -5.608  0.00  0.00    -0.280 N 
ATOM     33  C   UNL     1       3.625  11.944  -5.466  0.00  0.00    +0.255 C 
ATOM     34  O   UNL     1       3.944  12.597  -6.437  0.00  0.00    -0.272 OA
ATOM     35  C   UNL     1       3.634  12.572  -4.095  0.00  0.00    +0.325 C 
ATOM     36  O   UNL     1       2.615  11.977  -3.287  0.00  0.00    -0.481 OA
ATOM     37  H   UNL     1       3.271  10.229  -6.481  0.00  0.00    +0.155 HD
ENDBRANCH  24  26
ENDBRANCH  23  24
ENDBRANCH  22  23
ENDBRANCH  20  22
ENDBRANCH   2  20
TORSDOF 8
