REMARK  Name = ZINC20674634
REMARK  9 active torsions:
REMARK  status: ('A' for Active; 'I' for Inactive)
REMARK    1  A    between atoms: C_1  and  C_2
REMARK    2  A    between atoms: C_2  and  O_3
REMARK    3  A    between atoms: O_3  and  C_4
REMARK    4  A    between atoms: C_4  and  C_6
REMARK    5  A    between atoms: C_8  and  C_34
REMARK    6  A    between atoms: N_18  and  C_21
REMARK    7  A    between atoms: C_21  and  C_22
REMARK    8  A    between atoms: C_21  and  C_28
REMARK    9  A    between atoms: C_37  and  C_40
REMARK                            x       y       z     vdW  Elec       q    Type
REMARK                         _______ _______ _______ _____ _____    ______ ____
ROOT
ATOM      1  C   UNL     1      -2.289  -2.208  -2.722  0.00  0.00    +0.210 C 
ATOM      2  C   UNL     1      -0.981  -2.779  -2.157  0.00  0.00    +0.126 C 
ATOM      3  N   UNL     1      -0.693  -2.074  -0.899  0.00  0.00    -0.311 N 
ATOM      4  C   UNL     1      -0.730  -0.708  -0.905  0.00  0.00    +0.175 C 
ATOM      5  N   UNL     1      -1.472  -0.068  -1.795  0.00  0.00    -0.151 NA
ATOM      6  C   UNL     1      -2.218  -0.703  -2.688  0.00  0.00    +0.255 C 
ATOM      7  O   UNL     1      -2.858  -0.058  -3.495  0.00  0.00    -0.273 OA
ATOM      8  N   UNL     1       0.002  -0.004   0.002  0.00  0.00    -0.303 N 
ATOM      9  C   UNL     1      -0.018   1.467   0.010  0.00  0.00    +0.123 C 
ATOM     10  C   UNL     1       1.428   1.973  -0.001  0.00  0.00    +0.104 C 
ATOM     11  N   UNL     1       2.168   1.356   1.108  0.00  0.00    -0.289 NA
ATOM     12  C   UNL     1       2.246  -0.103   0.950  0.00  0.00    +0.104 C 
ATOM     13  C   UNL     1       0.833  -0.694   1.000  0.00  0.00    +0.123 C 
ATOM     14  H   UNL     1      -0.456  -2.646   0.010  0.00  0.00    +0.149 HD
ENDROOT
BRANCH   2  15
ATOM     15  C   UNL     1       0.142  -2.550  -3.135  0.00  0.00    -0.026 A 
ATOM     16  C   UNL     1       0.754  -1.312  -3.208  0.00  0.00    +0.006 A 
ATOM     17  C   UNL     1       1.787  -1.103  -4.102  0.00  0.00    +0.004 A 
ATOM     18  C   UNL     1       2.202  -2.130  -4.930  0.00  0.00    -0.050 A 
ATOM     19  C   UNL     1       1.587  -3.366  -4.861  0.00  0.00    +0.004 A 
ATOM     20  C   UNL     1       0.557  -3.576  -3.964  0.00  0.00    +0.006 A 
ATOM     21  C   UNL     1       3.326  -1.901  -5.908  0.00  0.00    +0.044 C 
ENDBRANCH   2  15
BRANCH   1  22
ATOM     22  C   UNL     1      -3.449  -2.678  -1.883  0.00  0.00    +0.321 C 
ATOM     23  O   UNL     1      -3.256  -3.405  -0.938  0.00  0.00    -0.250 OA
BRANCH  22  24
ATOM     24  O   UNL     1      -4.698  -2.289  -2.186  0.00  0.00    -0.464 OA
BRANCH  24  26
ATOM     25  C   UNL     1      -7.106  -2.235  -1.833  0.00  0.00    +0.048 C 
ATOM     26  C   UNL     1      -5.766  -2.780  -1.335  0.00  0.00    +0.229 C 
ENDBRANCH  24  26
ENDBRANCH  22  24
ENDBRANCH   1  22
BRANCH  11  27
ATOM     27  C   UNL     1       3.509   1.943   1.238  0.00  0.00    +0.117 C 
BRANCH  27  28
ATOM     28  C   UNL     1       3.397   3.446   1.274  0.00  0.00    -0.026 A 
ATOM     29  C   UNL     1       2.368   4.046   1.974  0.00  0.00    +0.005 A 
ATOM     30  C   UNL     1       2.268   5.424   2.011  0.00  0.00    +0.000 A 
ATOM     31  C   UNL     1       3.193   6.202   1.340  0.00  0.00    +0.000 A 
ATOM     32  C   UNL     1       4.220   5.602   0.635  0.00  0.00    +0.000 A 
ATOM     33  C   UNL     1       4.322   4.224   0.602  0.00  0.00    +0.005 A 
ENDBRANCH  27  28
BRANCH  27  34
ATOM     34  C   UNL     1       4.149   1.456   2.512  0.00  0.00    -0.026 A 
ATOM     35  C   UNL     1       3.396   1.343   3.665  0.00  0.00    +0.005 A 
ATOM     36  C   UNL     1       3.982   0.892   4.833  0.00  0.00    +0.000 A 
ATOM     37  C   UNL     1       5.325   0.563   4.849  0.00  0.00    +0.000 A 
ATOM     38  C   UNL     1       6.080   0.681   3.697  0.00  0.00    +0.000 A 
ATOM     39  C   UNL     1       5.492   1.128   2.529  0.00  0.00    +0.005 A 
ENDBRANCH  27  34
ENDBRANCH  11  27
TORSDOF 7
