REMARK  Name = ZINC32825486
REMARK  6 active torsions:
REMARK  status: ('A' for Active; 'I' for Inactive)
REMARK    1  A    between atoms: C_2  and  N_9
REMARK    2  A    between atoms: C_10  and  C_12
REMARK    3  A    between atoms: N_17  and  C_18
REMARK    4  A    between atoms: C_18  and  C_19
REMARK    5  A    between atoms: N_21  and  C_22
REMARK    6  A    between atoms: C_22  and  C_27
REMARK                            x       y       z     vdW  Elec       q    Type
REMARK                         _______ _______ _______ _____ _____    ______ ____
ROOT
ATOM      1  C   UNL     1       1.600   2.007  -0.079  0.00  0.00    +0.020 C 
ATOM      2  C   UNL     1       0.168   1.459   0.099  0.00  0.00    -0.008 C 
ATOM      3  C   UNL     1       0.320  -0.076   0.067  0.00  0.00    -0.020 C 
ATOM      4  C   UNL     1       1.831  -0.326  -0.127  0.00  0.00    -0.077 C 
ATOM      5  N   UNL     1       2.483   0.907   0.386  0.00  0.00    +0.393 N 
ATOM      6  H   UNL     1       2.612   0.897   1.478  0.00  0.00    -0.080 HD
ENDROOT
BRANCH   1   8
ATOM      7  N   UNL     1       1.045   4.332   0.559  0.00  0.00    -0.287 N 
ATOM      8  C   UNL     1       1.801   3.236   0.770  0.00  0.00    +0.204 C 
ATOM      9  O   UNL     1       2.643   3.240   1.643  0.00  0.00    -0.277 OA
ATOM     10  H   UNL     1       0.342   4.361  -0.287  0.00  0.00    +0.155 HD
BRANCH   7  12
ATOM     11  C   UNL     1       0.983   6.719   0.921  0.00  0.00    +0.043 A 
ATOM     12  C   UNL     1       1.154   5.433   1.416  0.00  0.00    +0.036 A 
ATOM     13  C   UNL     1       1.428   5.240   2.764  0.00  0.00    +0.043 A 
ATOM     14  C   UNL     1       1.540   6.330   3.607  0.00  0.00    +0.044 A 
ATOM     15  C   UNL     1       1.369   7.611   3.112  0.00  0.00    +0.040 A 
ATOM     16  C   UNL     1       1.091   7.804   1.770  0.00  0.00    +0.044 A 
ATOM     17 CL   UNL     1       0.877   9.413   1.152  0.00  0.00    -0.083 Cl
ATOM     18 CL   UNL     1       1.889   6.091   5.291  0.00  0.00    -0.083 Cl
ENDBRANCH   7  12
ENDBRANCH   1   8
BRANCH   5  19
ATOM     19  C   UNL     1       3.838   1.052  -0.162  0.00  0.00    +0.020 C 
BRANCH  19  20
ATOM     20  C   UNL     1       4.736  -0.003   0.432  0.00  0.00    +0.198 C 
ATOM     21  O   UNL     1       4.291  -0.798   1.232  0.00  0.00    -0.278 OA
ATOM     22  N   UNL     1       6.034  -0.063   0.073  0.00  0.00    -0.299 N 
ATOM     23  H   UNL     1       6.438   0.658  -0.653  0.00  0.00    +0.150 HD
BRANCH  22  24
ATOM     24  C   UNL     1       6.906  -1.089   0.650  0.00  0.00    +0.121 C 
ATOM     25  C   UNL     1       7.016  -0.891   2.176  0.00  0.00    +0.041 C 
ATOM     26  C   UNL     1       8.488  -1.250   2.500  0.00  0.00    +0.003 C 
ATOM     27  C   UNL     1       9.257  -0.670   1.287  0.00  0.00    +0.003 C 
ATOM     28  C   UNL     1       8.331  -0.948   0.085  0.00  0.00    +0.041 C 
BRANCH  24  29
ATOM     29  C   UNL     1       6.375  -2.428   0.351  0.00  0.00    +0.088 C 
ATOM     30  N   UNL     1       5.965  -3.462   0.120  0.00  0.00    -0.194 NA
ENDBRANCH  24  29
ENDBRANCH  22  24
ENDBRANCH  19  20
ENDBRANCH   5  19
TORSDOF 6
