REMARK  Name = ZINC39612228
REMARK  10 active torsions:
REMARK  status: ('A' for Active; 'I' for Inactive)
REMARK    1  A    between atoms: C_7  and  C_11
REMARK    2  A    between atoms: C_11  and  C_12
REMARK    3  A    between atoms: C_12  and  C_14
REMARK    4  A    between atoms: C_12  and  N_28
REMARK    5  A    between atoms: C_14  and  O_16
REMARK    6  A    between atoms: O_16  and  C_17
REMARK    7  A    between atoms: C_17  and  C_18
REMARK    8  A    between atoms: N_20  and  C_21
REMARK    9  A    between atoms: C_21  and  C_26
REMARK   10  A    between atoms: C_29  and  C_31
REMARK                            x       y       z     vdW  Elec       q    Type
REMARK                         _______ _______ _______ _____ _____    ______ ____
ROOT
ATOM      1  C   UNL     1       0.236  -3.589  -1.455  0.00  0.00    +0.186 C 
ENDROOT
BRANCH   1   2
ATOM      2  N   UNL     1       1.401  -4.022  -2.231  0.00  0.00    -0.298 N 
ATOM      3  C   UNL     1       2.095  -5.114  -1.853  0.00  0.00    +0.246 C 
ATOM      4  O   UNL     1       1.754  -5.739  -0.869  0.00  0.00    -0.270 OA
ATOM      5  H   UNL     1       1.673  -3.522  -3.017  0.00  0.00    +0.150 HD
BRANCH   3   6
ATOM      6  C   UNL     1       3.270  -5.550  -2.636  0.00  0.00    +0.055 A 
ATOM      7  C   UNL     1       3.668  -4.830  -3.764  0.00  0.00    +0.014 A 
ATOM      8  C   UNL     1       4.766  -5.242  -4.490  0.00  0.00    +0.001 A 
ATOM      9  C   UNL     1       5.473  -6.367  -4.103  0.00  0.00    +0.001 A 
ATOM     10  C   UNL     1       5.085  -7.086  -2.987  0.00  0.00    +0.021 A 
ATOM     11  C   UNL     1       3.991  -6.681  -2.247  0.00  0.00    +0.053 A 
ATOM     12 CL   UNL     1       3.510  -7.580  -0.842  0.00  0.00    -0.083 Cl
ENDBRANCH   3   6
ENDBRANCH   1   2
BRANCH   1  13
ATOM     13  C   UNL     1      -0.795  -4.689  -1.442  0.00  0.00    +0.328 C 
ATOM     14  O   UNL     1      -0.468  -5.825  -1.688  0.00  0.00    -0.249 OA
BRANCH  13  15
ATOM     15  O   UNL     1      -2.075  -4.405  -1.155  0.00  0.00    -0.454 OA
BRANCH  15  16
ATOM     16  C   UNL     1      -2.998  -5.495  -1.160  0.00  0.00    +0.327 C 
BRANCH  16  17
ATOM     17  C   UNL     1      -4.376  -4.989  -0.819  0.00  0.00    +0.252 C 
ATOM     18  O   UNL     1      -4.550  -3.810  -0.594  0.00  0.00    -0.272 OA
ATOM     19  N   UNL     1      -5.414  -5.846  -0.764  0.00  0.00    -0.295 N 
ATOM     20  H   UNL     1      -5.275  -6.789  -0.944  0.00  0.00    +0.150 HD
BRANCH  19  21
ATOM     21  C   UNL     1      -6.754  -5.354  -0.433  0.00  0.00    +0.121 C 
ATOM     22  C   UNL     1      -6.763  -4.766   0.994  0.00  0.00    +0.041 C 
ATOM     23  C   UNL     1      -8.144  -5.174   1.563  0.00  0.00    +0.003 C 
ATOM     24  C   UNL     1      -8.344  -6.599   0.991  0.00  0.00    +0.003 C 
ATOM     25  C   UNL     1      -7.759  -6.519  -0.434  0.00  0.00    +0.041 C 
BRANCH  21  26
ATOM     26  C   UNL     1      -7.168  -4.329  -1.404  0.00  0.00    +0.088 C 
ATOM     27  N   UNL     1      -7.489  -3.538  -2.154  0.00  0.00    -0.194 NA
ENDBRANCH  21  26
ENDBRANCH  19  21
ENDBRANCH  16  17
ENDBRANCH  15  16
ENDBRANCH  13  15
ENDBRANCH   1  13
BRANCH   1  28
ATOM     28  C   UNL     1       0.666  -3.275  -0.021  0.00  0.00    +0.071 C 
BRANCH  28  35
ATOM     29  C   UNL     1      -0.017   1.362   0.009  0.00  0.00    +0.001 A 
ATOM     30  C   UNL     1       1.170   2.083   0.002  0.00  0.00    +0.002 A 
ATOM     31  C   UNL     1       2.386   1.436  -0.013  0.00  0.00    +0.026 A 
ATOM     32  C   UNL     1       2.428   0.046  -0.021  0.00  0.00    +0.047 A 
ATOM     33  C   UNL     1       1.223  -0.681  -0.013  0.00  0.00    +0.003 A 
ATOM     34  C   UNL     1       0.002  -0.004   0.002  0.00  0.00    +0.010 A 
ATOM     35  C   UNL     1       1.604  -2.095  -0.025  0.00  0.00    -0.020 A 
ATOM     36  C   UNL     1       2.945  -2.141  -0.038  0.00  0.00    +0.087 A 
ATOM     37  N   UNL     1       3.455  -0.871  -0.036  0.00  0.00    -0.360 N 
ATOM     38  H   UNL     1       4.399  -0.650  -0.044  0.00  0.00    +0.165 HD
ENDBRANCH  28  35
ENDBRANCH   1  28
TORSDOF 10
