REMARK  Name = ZINC02915177
REMARK  5 active torsions:
REMARK  status: ('A' for Active; 'I' for Inactive)
REMARK    1  A    between atoms: C_1  and  N_2
REMARK    2  A    between atoms: N_2  and  C_3
REMARK    3  A    between atoms: N_2  and  C_4
REMARK    4  A    between atoms: C_7  and  C_10
REMARK    5  A    between atoms: C_21  and  C_23
REMARK                            x       y       z     vdW  Elec       q    Type
REMARK                         _______ _______ _______ _____ _____    ______ ____
ROOT
ATOM      1  C   UNL     1      -0.006  -2.813  -4.924  0.00  0.00    +0.159 C 
ATOM      2  C   UNL     1      -1.436  -2.910  -5.410  0.00  0.00    +0.027 C 
ATOM      3  C   UNL     1      -1.732  -2.386  -6.617  0.00  0.00    +0.083 C 
ATOM      4  C   UNL     1      -3.141  -2.481  -7.077  0.00  0.00    +0.042 A 
ATOM      5  C   UNL     1      -3.486  -2.270  -8.405  0.00  0.00    +0.013 A 
ATOM      6  C   UNL     1      -4.810  -2.370  -8.790  0.00  0.00    +0.001 A 
ATOM      7  C   UNL     1      -5.785  -2.678  -7.858  0.00  0.00    +0.004 A 
ATOM      8  C   UNL     1      -5.450  -2.889  -6.533  0.00  0.00    +0.046 A 
ATOM      9  C   UNL     1      -4.129  -2.791  -6.133  0.00  0.00    +0.131 A 
ATOM     10  O   UNL     1      -3.772  -2.985  -4.838  0.00  0.00    -0.479 OA
ATOM     11  C   UNL     1      -2.496  -3.577  -4.584  0.00  0.00    +0.234 C 
ATOM     12  N   UNL     1      -0.785  -1.794  -7.385  0.00  0.00    -0.213 NA
ATOM     13  C   UNL     1       0.475  -1.668  -7.041  0.00  0.00    +0.237 C 
ATOM     14  N   UNL     1       0.934  -2.146  -5.833  0.00  0.00    -0.208 N 
ATOM     15  N   UNL     1       2.297  -1.848  -5.780  0.00  0.00    -0.251 N 
ATOM     16  C   UNL     1       2.598  -1.210  -6.945  0.00  0.00    +0.203 C 
ATOM     17  N   UNL     1       1.532  -1.113  -7.674  0.00  0.00    -0.205 NA
ATOM     18  H   UNL     1       2.909  -2.054  -5.056  0.00  0.00    +0.171 HD
ENDROOT
BRANCH  11  19
ATOM     19  C   UNL     1      -2.550  -5.043  -4.931  0.00  0.00    -0.003 A 
ATOM     20  C   UNL     1      -3.213  -5.460  -6.070  0.00  0.00    +0.008 A 
ATOM     21  C   UNL     1      -3.261  -6.804  -6.388  0.00  0.00    +0.015 A 
ATOM     22  C   UNL     1      -2.647  -7.732  -5.567  0.00  0.00    +0.018 A 
ATOM     23  C   UNL     1      -1.983  -7.314  -4.427  0.00  0.00    +0.015 A 
ATOM     24  C   UNL     1      -1.931  -5.969  -4.112  0.00  0.00    +0.008 A 
ATOM     25 BR   UNL     1      -2.713  -9.571  -6.002  0.00  0.00    -0.050 Br
ENDBRANCH  11  19
BRANCH   1  29
ATOM     26  C   UNL     1       0.000  -0.696  -1.211  0.00  0.00    +0.029 A 
ATOM     27  C   UNL     1       0.013  -2.085  -1.221  0.00  0.00    +0.023 A 
ATOM     28  C   UNL     1       0.010  -2.766  -2.422  0.00  0.00    +0.007 A 
ATOM     29  C   UNL     1      -0.005  -2.066  -3.615  0.00  0.00    -0.021 A 
ATOM     30  C   UNL     1      -0.018  -0.684  -3.609  0.00  0.00    +0.007 A 
ATOM     31  C   UNL     1      -0.021   0.004  -2.411  0.00  0.00    +0.023 A 
BRANCH  26  33
ATOM     32  C   UNL     1      -0.018   1.461   0.010  0.00  0.00    +0.129 C 
ATOM     33  N   UNL     1       0.002  -0.004   0.002  0.00  0.00    -0.336 N 
ATOM     34  C   UNL     1       0.024  -0.743   1.267  0.00  0.00    +0.129 C 
ENDBRANCH  26  33
ENDBRANCH   1  29
TORSDOF 3
