REMARK  Name = ZINC41607718
REMARK  8 active torsions:
REMARK  status: ('A' for Active; 'I' for Inactive)
REMARK    1  A    between atoms: C_1  and  C_2
REMARK    2  A    between atoms: C_2  and  C_4
REMARK    3  A    between atoms: C_2  and  S_18
REMARK    4  A    between atoms: N_6  and  C_7
REMARK    5  A    between atoms: C_9  and  N_15
REMARK    6  A    between atoms: C_12  and  O_13
REMARK    7  A    between atoms: O_13  and  C_14
REMARK    8  A    between atoms: S_18  and  C_19
REMARK                            x       y       z     vdW  Elec       q    Type
REMARK                         _______ _______ _______ _____ _____    ______ ____
ROOT
ATOM      1  C   UNL     1       0.731  -0.510   1.221  0.00  0.00    +0.230 C 
ATOM      2  O   UNL     1       0.105  -0.895   2.186  0.00  0.00    -0.274 OA
ATOM      3  N   UNL     1       2.079  -0.519   1.244  0.00  0.00    -0.282 N 
ATOM      4  H   UNL     1       2.579  -0.272   0.450  0.00  0.00    +0.155 HD
ENDROOT
BRANCH   3   5
ATOM      5  C   UNL     1       2.757  -0.883   2.415  0.00  0.00    +0.078 A 
ATOM      6  C   UNL     1       2.229  -1.857   3.250  0.00  0.00    +0.059 A 
ATOM      7  C   UNL     1       2.900  -2.215   4.404  0.00  0.00    +0.128 A 
ATOM      8  C   UNL     1       4.097  -1.604   4.729  0.00  0.00    +0.036 A 
ATOM      9  C   UNL     1       4.629  -0.633   3.902  0.00  0.00    +0.050 A 
ATOM     10  C   UNL     1       3.966  -0.273   2.740  0.00  0.00    +0.141 A 
BRANCH   7  11
ATOM     11  N   UNL     1       2.334  -3.253   5.295  0.00  0.00    +0.056 N 
ATOM     12  O   UNL     1       1.288  -3.788   5.012  0.00  0.00    -0.126 OA
ATOM     13  O   UNL     1       2.920  -3.567   6.304  0.00  0.00    -0.126 OA
ENDBRANCH   7  11
BRANCH  10  14
ATOM     14  O   UNL     1       4.491   0.678   1.922  0.00  0.00    -0.493 OA
ATOM     15  C   UNL     1       5.734   1.261   2.319  0.00  0.00    +0.277 C 
ENDBRANCH  10  14
ENDBRANCH   3   5
BRANCH   1  17
ATOM     16  C   UNL     1      -0.027   1.507  -0.006  0.00  0.00    +0.029 C 
ATOM     17  C   UNL     1       0.001  -0.023  -0.004  0.00  0.00    +0.137 C 
BRANCH  17  18
ATOM     18  S   UNL     1      -1.697  -0.659   0.010  0.00  0.00    -0.075 S 
BRANCH  18  19
ATOM     19  C   UNL     1      -2.362  -0.134  -1.535  0.00  0.00    +0.170 A 
ATOM     20  N   UNL     1      -3.650  -0.447  -1.850  0.00  0.00    -0.302 N 
ATOM     21  H   UNL     1      -4.194  -0.955  -1.229  0.00  0.00    +0.171 HD
ATOM     22  C   UNL     1      -4.163  -0.046  -3.033  0.00  0.00    +0.255 A 
ATOM     23  O   UNL     1      -5.314  -0.317  -3.333  0.00  0.00    -0.267 OA
ATOM     24  C   UNL     1      -3.348   0.689  -3.912  0.00  0.00    +0.038 A 
ATOM     25  C   UNL     1      -2.065   0.974  -3.545  0.00  0.00    +0.052 A 
ATOM     26  N   UNL     1      -1.607   0.559  -2.363  0.00  0.00    -0.228 NA
ATOM     27  C   UNL     1      -1.380   1.768  -4.637  0.00  0.00    +0.056 C 
ATOM     28  C   UNL     1      -2.253   1.561  -5.894  0.00  0.00    +0.011 C 
ATOM     29  C   UNL     1      -3.639   1.263  -5.281  0.00  0.00    +0.043 C 
ENDBRANCH  18  19
ENDBRANCH  17  18
ENDBRANCH   1  17
TORSDOF 6
