REMARK  Name = ZINC40566675
REMARK  5 active torsions:
REMARK  status: ('A' for Active; 'I' for Inactive)
REMARK    1  A    between atoms: C_1  and  C_2
REMARK    2  A    between atoms: C_2  and  C_3
REMARK    3  A    between atoms: C_2  and  O_4
REMARK    4  A    between atoms: O_4  and  C_5
REMARK    5  A    between atoms: N_7  and  C_8
REMARK                            x       y       z     vdW  Elec       q    Type
REMARK                         _______ _______ _______ _____ _____    ______ ____
ROOT
ATOM      1  C   UNL     1      -3.039  -3.492  -1.276  0.00  0.00    +0.086 C 
ATOM      2  C   UNL     1      -4.329  -4.153  -0.743  0.00  0.00    +0.060 C 
ATOM      3  C   UNL     1      -5.420  -3.695  -1.686  0.00  0.00    -0.017 A 
ATOM      4  C   UNL     1      -6.878  -3.586  -1.804  0.00  0.00    +0.004 A 
ATOM      5  C   UNL     1      -7.944  -3.914  -0.965  0.00  0.00    +0.025 A 
ATOM      6  C   UNL     1      -9.227  -3.684  -1.378  0.00  0.00    +0.019 A 
ATOM      7  C   UNL     1      -9.476  -3.127  -2.626  0.00  0.00    +0.017 A 
ATOM      8  C   UNL     1      -8.438  -2.795  -3.468  0.00  0.00    +0.027 A 
ATOM      9  C   UNL     1      -7.124  -3.021  -3.067  0.00  0.00    +0.047 A 
ATOM     10  N   UNL     1      -5.902  -2.804  -3.660  0.00  0.00    -0.358 N 
ATOM     11  H   UNL     1      -5.771  -2.419  -4.540  0.00  0.00    +0.166 HD
ATOM     12  C   UNL     1      -4.892  -3.213  -2.821  0.00  0.00    +0.022 A 
ATOM     13  C   UNL     1      -3.377  -3.295  -2.769  0.00  0.00    +0.076 C 
ATOM     14 BR   UNL     1     -10.673  -4.128  -0.243  0.00  0.00    -0.050 Br
ENDROOT
BRANCH   1  17
ATOM     15  C   UNL     1      -1.558  -1.682  -0.592  0.00  0.00    +0.401 C 
ATOM     16  O   UNL     1      -0.637  -2.278  -1.113  0.00  0.00    -0.226 OA
ATOM     17  N   UNL     1      -2.800  -2.205  -0.618  0.00  0.00    -0.278 N 
ATOM     18  H   UNL     1      -3.536  -1.729  -0.202  0.00  0.00    +0.152 HD
BRANCH  15  19
ATOM     19  O   UNL     1      -1.339  -0.499   0.012  0.00  0.00    -0.448 OA
BRANCH  19  21
ATOM     20  C   UNL     1      -0.019   1.526   0.010  0.00  0.00    +0.052 C 
ATOM     21  C   UNL     1       0.002  -0.004   0.002  0.00  0.00    +0.172 C 
ATOM     22  C   UNL     1       0.742  -0.511   1.242  0.00  0.00    +0.052 C 
ENDBRANCH  19  21
ENDBRANCH  15  19
ENDBRANCH   1  17
TORSDOF 3
