REMARK  Name = ZINC30982802
REMARK  5 active torsions:
REMARK  status: ('A' for Active; 'I' for Inactive)
REMARK    1  A    between atoms: C_6  and  S_7
REMARK    2  A    between atoms: S_7  and  C_8
REMARK    3  A    between atoms: C_8  and  C_9
REMARK    4  A    between atoms: C_14  and  C_17
REMARK    5  A    between atoms: C_19  and  C_23
REMARK                            x       y       z     vdW  Elec       q    Type
REMARK                         _______ _______ _______ _____ _____    ______ ____
ROOT
ATOM      1  C   UNL     1      -0.014   1.209   0.009  0.00  0.00    +0.229 C 
ATOM      2  O   UNL     1       0.002  -0.004   0.002  0.00  0.00    -0.275 OA
ATOM      3  N   UNL     1       1.143   1.898   0.001  0.00  0.00    -0.264 N 
ATOM      4  C   UNL     1       2.356   1.220  -0.014  0.00  0.00    +0.165 A 
ATOM      5  N   UNL     1       3.578   1.713  -0.023  0.00  0.00    -0.225 NA
ATOM      6  C   UNL     1       4.639   0.919  -0.037  0.00  0.00    +0.082 A 
ATOM      7  C   UNL     1       4.430  -0.431  -0.043  0.00  0.00    +0.077 A 
ATOM      8  S   UNL     1       2.645  -0.492  -0.018  0.00  0.00    -0.060 S 
ATOM      9  H   UNL     1       1.129   2.998   0.007  0.00  0.00    +0.157 HD
ENDROOT
BRANCH   6  10
ATOM     10  C   UNL     1       6.014   1.481  -0.048  0.00  0.00    +0.019 A 
ATOM     11  C   UNL     1       6.358   2.842   0.049  0.00  0.00    +0.042 A 
ATOM     12  C   UNL     1       7.722   2.919   0.003  0.00  0.00    +0.102 A 
ATOM     13  N   UNL     1       8.215   1.640  -0.129  0.00  0.00    -0.356 N 
ATOM     14  H   UNL     1       9.300   1.473  -0.190  0.00  0.00    +0.165 HD
ATOM     15  C   UNL     1       7.175   0.771  -0.160  0.00  0.00    +0.093 A 
BRANCH  12  16
ATOM     16  C   UNL     1       8.520   4.148   0.076  0.00  0.00    +0.258 C 
ATOM     17  O   UNL     1       7.967   5.226   0.194  0.00  0.00    -0.269 OA
ATOM     18  N   UNL     1       9.864   4.083   0.011  0.00  0.00    -0.324 N 
ATOM     19  H   UNL     1      10.463   5.004   0.066  0.00  0.00    +0.145 HD
ATOM     20  H   UNL     1      10.364   3.108  -0.095  0.00  0.00    +0.145 HD
ENDBRANCH  12  16
ENDBRANCH   6  10
BRANCH   1  21
ATOM     21  C   UNL     1      -1.330   1.944   0.019  0.00  0.00    +0.170 C 
BRANCH  21  22
ATOM     22  S   UNL     1      -2.692   0.747   0.019  0.00  0.00    -0.116 S 
BRANCH  22  28
ATOM     23  C   UNL     1      -4.030   3.135   0.038  0.00  0.00    +0.015 A 
ATOM     24  C   UNL     1      -5.168   3.915   0.048  0.00  0.00    +0.005 A 
ATOM     25  C   UNL     1      -6.421   3.324   0.051  0.00  0.00    -0.044 A 
ATOM     26  C   UNL     1      -6.535   1.945   0.044  0.00  0.00    -0.043 A 
ATOM     27  C   UNL     1      -5.398   1.159   0.028  0.00  0.00    +0.018 A 
ATOM     28  C   UNL     1      -4.141   1.750   0.031  0.00  0.00    +0.009 A 
ATOM     29  C   UNL     1      -7.997   1.553   0.050  0.00  0.00    +0.036 C 
ATOM     30  C   UNL     1      -8.759   2.825  -0.380  0.00  0.00    +0.009 C 
ATOM     31  C   UNL     1      -7.799   3.950   0.062  0.00  0.00    +0.036 C 
ENDBRANCH  22  28
ENDBRANCH  21  22
ENDBRANCH   1  21
TORSDOF 5
