REMARK  Name = ZINC39454968
REMARK  7 active torsions:
REMARK  status: ('A' for Active; 'I' for Inactive)
REMARK    1  A    between atoms: C_4  and  C_7
REMARK    2  A    between atoms: C_10  and  C_13
REMARK    3  A    between atoms: C_13  and  N_14
REMARK    4  A    between atoms: C_20  and  C_22
REMARK    5  A    between atoms: C_22  and  C_23
REMARK    6  A    between atoms: N_25  and  C_26
REMARK    7  A    between atoms: C_26  and  C_27
REMARK                            x       y       z     vdW  Elec       q    Type
REMARK                         _______ _______ _______ _____ _____    ______ ____
ROOT
ATOM      1  N   UNL     1       7.910  -2.938   1.456  0.00  0.00    +0.391 N 
ATOM      2  C   UNL     1       6.911  -3.776   2.139  0.00  0.00    -0.058 C 
ATOM      3  C   UNL     1       7.355  -3.992   3.587  0.00  0.00    +0.085 C 
ATOM      4  N   UNL     1       8.739  -4.457   3.618  0.00  0.00    -0.318 N 
ATOM      5  C   UNL     1       9.567  -4.328   2.575  0.00  0.00    +0.200 C 
ATOM      6  O   UNL     1      10.710  -4.719   2.687  0.00  0.00    -0.278 OA
ATOM      7  C   UNL     1       9.139  -3.719   1.270  0.00  0.00    +0.028 C 
ATOM      8  H   UNL     1       9.072  -4.876   4.427  0.00  0.00    +0.149 HD
ATOM      9  H   UNL     1       8.109  -2.123   2.017  0.00  0.00    -0.080 HD
ENDROOT
BRANCH   1  10
ATOM     10  C   UNL     1       7.389  -2.519   0.148  0.00  0.00    -0.042 C 
BRANCH  10  14
ATOM     11  C   UNL     1       4.058   0.101   0.710  0.00  0.00    -0.018 A 
ATOM     12  C   UNL     1       5.349   0.619   0.624  0.00  0.00    +0.009 A 
ATOM     13  C   UNL     1       6.420  -0.231   0.443  0.00  0.00    +0.002 A 
ATOM     14  C   UNL     1       6.215  -1.596   0.346  0.00  0.00    -0.064 A 
ATOM     15  C   UNL     1       4.936  -2.116   0.430  0.00  0.00    +0.002 A 
ATOM     16  C   UNL     1       3.858  -1.275   0.617  0.00  0.00    +0.009 A 
BRANCH  11  20
ATOM     17  C   UNL     1       0.745   2.707   1.268  0.00  0.00    +0.000 A 
ATOM     18  C   UNL     1       2.023   3.228   1.179  0.00  0.00    +0.001 A 
ATOM     19  C   UNL     1       3.102   2.386   0.998  0.00  0.00    +0.008 A 
ATOM     20  C   UNL     1       2.902   1.010   0.905  0.00  0.00    -0.018 A 
ATOM     21  C   UNL     1       1.612   0.492   0.996  0.00  0.00    +0.008 A 
ATOM     22  C   UNL     1       0.540   1.342   1.177  0.00  0.00    +0.001 A 
ENDBRANCH  11  20
ENDBRANCH  10  14
ENDBRANCH   1  10
BRANCH   7  23
ATOM     23  C   UNL     1      10.248  -2.803   0.749  0.00  0.00    +0.089 C 
BRANCH  23  24
ATOM     24  C   UNL     1      10.525  -1.724   1.764  0.00  0.00    +0.212 C 
ATOM     25  O   UNL     1       9.977  -1.752   2.845  0.00  0.00    -0.276 OA
ATOM     26  N   UNL     1      11.383  -0.727   1.469  0.00  0.00    -0.313 N 
ATOM     27  H   UNL     1      11.822  -0.704   0.605  0.00  0.00    +0.149 HD
BRANCH  26  28
ATOM     28  C   UNL     1      11.653   0.322   2.455  0.00  0.00    +0.137 C 
BRANCH  28  29
ATOM     29  C   UNL     1      12.654   1.323   1.874  0.00  0.00    +0.173 C 
ATOM     30  C   UNL     1      12.815   2.516   2.793  0.00  0.00    -0.019 C 
ATOM     31  C   UNL     1      12.411   3.559   2.070  0.00  0.00    +0.065 C 
ATOM     32  C   UNL     1      12.527   4.831   2.890  0.00  0.00    +0.057 C 
ATOM     33  C   UNL     1      12.653   4.356   4.354  0.00  0.00    +0.011 C 
ATOM     34  C   UNL     1      13.247   2.940   4.174  0.00  0.00    +0.035 C 
ATOM     35  N   UNL     1      12.027   3.143   0.833  0.00  0.00    -0.158 NA
ATOM     36  N   UNL     1      12.130   1.927   0.637  0.00  0.00    -0.178 NA
ENDBRANCH  28  29
ENDBRANCH  26  28
ENDBRANCH  23  24
ENDBRANCH   7  23
TORSDOF 7
