REMARK  Name = ZINC03408426
REMARK  9 active torsions:
REMARK  status: ('A' for Active; 'I' for Inactive)
REMARK    1  A    between atoms: C_1  and  C_2
REMARK    2  A    between atoms: C_2  and  C_4
REMARK    3  A    between atoms: C_2  and  S_23
REMARK    4  A    between atoms: N_6  and  C_7
REMARK    5  A    between atoms: C_10  and  C_13
REMARK    6  A    between atoms: C_13  and  C_14
REMARK    7  A    between atoms: S_23  and  C_24
REMARK    8  A    between atoms: C_27  and  C_30
REMARK    9  A    between atoms: N_28  and  N_29
REMARK                            x       y       z     vdW  Elec       q    Type
REMARK                         _______ _______ _______ _____ _____    ______ ____
ROOT
ATOM      1  C   UNL     1       0.929   9.650   5.996  0.00  0.00    +0.230 C 
ATOM      2  O   UNL     1      -0.147   9.678   5.437  0.00  0.00    -0.274 OA
ATOM      3  N   UNL     1       1.993   9.096   5.382  0.00  0.00    -0.285 N 
ATOM      4  H   UNL     1       2.834   9.005   5.857  0.00  0.00    +0.155 HD
ENDROOT
BRANCH   3   5
ATOM      5  C   UNL     1       1.885   8.653   4.059  0.00  0.00    +0.033 A 
ATOM      6  C   UNL     1       1.057   9.321   3.167  0.00  0.00    +0.023 A 
ATOM      7  C   UNL     1       0.952   8.881   1.862  0.00  0.00    +0.006 A 
ATOM      8  C   UNL     1       1.672   7.777   1.443  0.00  0.00    -0.041 A 
ATOM      9  C   UNL     1       2.494   7.107   2.331  0.00  0.00    +0.006 A 
ATOM     10  C   UNL     1       2.606   7.544   3.636  0.00  0.00    +0.023 A 
BRANCH   8  11
ATOM     11  C   UNL     1       1.556   7.300   0.018  0.00  0.00    +0.098 C 
BRANCH  11  12
ATOM     12  C   UNL     1       2.598   7.986  -0.828  0.00  0.00    +0.084 A 
ATOM     13  N   UNL     1       3.816   7.598  -1.082  0.00  0.00    -0.244 NA
ATOM     14  C   UNL     1       4.654   8.311  -1.863  0.00  0.00    +0.078 A 
ATOM     15  C   UNL     1       5.989   8.025  -2.228  0.00  0.00    +0.029 A 
ATOM     16  C   UNL     1       6.683   8.870  -3.038  0.00  0.00    +0.002 A 
ATOM     17  C   UNL     1       6.118  10.040  -3.525  0.00  0.00    +0.001 A 
ATOM     18  C   UNL     1       4.814  10.355  -3.191  0.00  0.00    +0.017 A 
ATOM     19  C   UNL     1       4.103   9.506  -2.378  0.00  0.00    +0.039 A 
ATOM     20  S   UNL     1       2.463   9.482  -1.698  0.00  0.00    -0.072 S 
ENDBRANCH  11  12
ENDBRANCH   8  11
ENDBRANCH   3   5
BRANCH   1  22
ATOM     21  C   UNL     1       1.580  11.676   7.269  0.00  0.00    +0.029 C 
ATOM     22  C   UNL     1       1.077  10.236   7.377  0.00  0.00    +0.137 C 
BRANCH  22  23
ATOM     23  S   UNL     1      -0.528  10.218   8.214  0.00  0.00    -0.072 S 
BRANCH  23  24
ATOM     24  C   UNL     1      -0.048  10.795   9.808  0.00  0.00    +0.209 A 
ATOM     25  N   UNL     1       1.167  11.117  10.189  0.00  0.00    -0.121 NA
ATOM     26  N   UNL     1       1.153  11.499  11.416  0.00  0.00    -0.132 NA
ATOM     27  C   UNL     1      -0.059  11.438  11.890  0.00  0.00    +0.154 A 
ATOM     28  N   UNL     1      -0.868  10.987  10.883  0.00  0.00    -0.228 N 
BRANCH  27  29
ATOM     29  C   UNL     1      -0.490  11.796  13.289  0.00  0.00    +0.059 C 
ATOM     30  C   UNL     1      -0.158  13.264  13.564  0.00  0.00    +0.011 C 
ATOM     31  C   UNL     1      -0.596  13.629  14.984  0.00  0.00    +0.001 C 
ATOM     32  C   UNL     1       0.142  12.741  15.989  0.00  0.00    +0.000 C 
ATOM     33  C   UNL     1      -0.190  11.274  15.713  0.00  0.00    +0.001 C 
ATOM     34  C   UNL     1       0.247  10.909  14.293  0.00  0.00    +0.011 C 
ENDBRANCH  27  29
BRANCH  28  35
ATOM     35  N   UNL     1      -2.216  10.773  10.941  0.00  0.00    -0.295 N 
ATOM     36  H   UNL     1      -2.420   9.828  11.231  0.00  0.00    +0.163 HD
ATOM     37  H   UNL     1      -2.662  11.442  11.550  0.00  0.00    +0.163 HD
ENDBRANCH  28  35
ENDBRANCH  23  24
ENDBRANCH  22  23
ENDBRANCH   1  22
TORSDOF 8
