REMARK  Name = ZINC64117388
REMARK  9 active torsions:
REMARK  status: ('A' for Active; 'I' for Inactive)
REMARK    1  A    between atoms: C_1  and  C_2
REMARK    2  A    between atoms: C_17  and  C_19
REMARK    3  A    between atoms: C_19  and  C_20
REMARK    4  A    between atoms: C_20  and  C_21
REMARK    5  A    between atoms: C_25  and  S_31
REMARK    6  A    between atoms: N_29  and  C_30
REMARK    7  A    between atoms: S_31  and  N_34
REMARK    8  A    between atoms: N_34  and  C_35
REMARK    9  A    between atoms: N_34  and  C_36
REMARK                            x       y       z     vdW  Elec       q    Type
REMARK                         _______ _______ _______ _____ _____    ______ ____
ROOT
ATOM      1  C   UNL     1       1.882  -0.119   3.337  0.00  0.00    +0.103 C 
ENDROOT
BRANCH   1  16
ATOM      2  C   UNL     1      -0.031   1.525   0.018  0.00  0.00    +0.030 C 
ATOM      3  C   UNL     1      -0.004  -0.004   0.006  0.00  0.00    +0.099 C 
ATOM      4  C   UNL     1       0.726  -0.501  -1.247  0.00  0.00    +0.126 C 
ATOM      5  C   UNL     1       0.966  -1.992  -1.048  0.00  0.00    -0.035 C 
ATOM      6  C   UNL     1       0.417  -2.602  -2.092  0.00  0.00    -0.001 A 
ATOM      7  C   UNL     1       0.385  -4.018  -2.493  0.00  0.00    +0.010 A 
ATOM      8  C   UNL     1      -0.289  -4.301  -3.639  0.00  0.00    +0.001 A 
ATOM      9  C   UNL     1      -0.925  -3.329  -4.417  0.00  0.00    +0.002 A 
ATOM     10  C   UNL     1      -0.943  -2.004  -4.127  0.00  0.00    +0.026 A 
ATOM     11  C   UNL     1      -0.263  -1.582  -2.947  0.00  0.00    +0.043 A 
ATOM     12  N   UNL     1      -0.102  -0.370  -2.447  0.00  0.00    -0.376 N 
ATOM     13  C   UNL     1       1.638  -2.548   0.183  0.00  0.00    +0.052 C 
ATOM     14  C   UNL     1       0.913  -1.938   1.397  0.00  0.00    +0.112 C 
ATOM     15  N   UNL     1       0.728  -0.499   1.182  0.00  0.00    -0.296 N 
ATOM     16  C   UNL     1       1.236   0.379   2.070  0.00  0.00    +0.216 C 
ATOM     17  O   UNL     1       1.173   1.570   1.849  0.00  0.00    -0.276 OA
ATOM     18  H   UNL     1      -0.465   0.459  -2.799  0.00  0.00    +0.160 HD
ENDBRANCH   1  16
BRANCH   1  19
ATOM     19  C   UNL     1       2.371   1.073   4.162  0.00  0.00    +0.083 C 
BRANCH  19  20
ATOM     20  C   UNL     1       3.017   0.575   5.429  0.00  0.00    +0.111 A 
ATOM     21  N   UNL     1       2.393   0.366   6.552  0.00  0.00    -0.232 NA
ATOM     22  C   UNL     1       3.272  -0.080   7.487  0.00  0.00    +0.091 A 
ATOM     23  C   UNL     1       3.147  -0.449   8.828  0.00  0.00    +0.058 A 
ATOM     24  C   UNL     1       4.245  -0.867   9.525  0.00  0.00    +0.108 A 
ATOM     25  C   UNL     1       5.489  -0.928   8.914  0.00  0.00    +0.030 A 
ATOM     26  C   UNL     1       5.637  -0.568   7.591  0.00  0.00    +0.030 A 
ATOM     27  C   UNL     1       4.532  -0.142   6.867  0.00  0.00    +0.069 A 
ATOM     28  N   UNL     1       4.337   0.273   5.565  0.00  0.00    -0.331 N 
ATOM     29  C   UNL     1       5.362   0.372   4.523  0.00  0.00    +0.150 C 
BRANCH  24  30
ATOM     30  S   UNL     1       4.080  -1.332  11.216  0.00  0.00    +0.060 S 
ATOM     31  O   UNL     1       5.362  -1.170  11.809  0.00  0.00    -0.153 OA
ATOM     32  O   UNL     1       2.924  -0.669  11.709  0.00  0.00    -0.153 OA
BRANCH  30  33
ATOM     33  N   UNL     1       3.745  -2.953  11.248  0.00  0.00    -0.183 NA
ATOM     34  C   UNL     1       4.839  -3.926  11.313  0.00  0.00    +0.131 C 
ATOM     35  C   UNL     1       2.355  -3.415  11.211  0.00  0.00    +0.131 C 
ENDBRANCH  30  33
ENDBRANCH  24  30
ENDBRANCH  19  20
ENDBRANCH   1  19
TORSDOF 5
