REMARK  Name = ZINC08753893
REMARK  8 active torsions:
REMARK  status: ('A' for Active; 'I' for Inactive)
REMARK    1  A    between atoms: C_1  and  O_2
REMARK    2  A    between atoms: O_2  and  C_3
REMARK    3  A    between atoms: C_6  and  C_11
REMARK    4  A    between atoms: C_7  and  O_9
REMARK    5  A    between atoms: O_9  and  C_10
REMARK    6  A    between atoms: C_14  and  C_16
REMARK    7  A    between atoms: C_14  and  O_20
REMARK    8  A    between atoms: C_23  and  C_26
REMARK                            x       y       z     vdW  Elec       q    Type
REMARK                         _______ _______ _______ _____ _____    ______ ____
ROOT
ATOM      1  C   UNL     1      -4.360  -3.507  -0.359  0.00  0.00    +0.075 C 
ATOM      2  N   UNL     1      -3.544  -2.512  -0.284  0.00  0.00    -0.179 NA
ATOM      3  N   UNL     1      -2.204  -2.881  -0.188  0.00  0.00    -0.160 N 
ATOM      4  C   UNL     1      -2.113  -4.350  -0.190  0.00  0.00    +0.256 C 
ATOM      5  C   UNL     1      -3.582  -4.803  -0.307  0.00  0.00    +0.124 C 
ATOM      6  C   UNL     1      -1.133  -2.009  -0.099  0.00  0.00    +0.184 A 
ATOM      7  N   UNL     1      -1.129  -0.687  -0.086  0.00  0.00    -0.223 NA
ATOM      8  C   UNL     1       0.002  -0.004   0.002  0.00  0.00    +0.080 A 
ATOM      9  C   UNL     1       1.188  -0.678   0.090  0.00  0.00    +0.077 A 
ATOM     10  S   UNL     1       0.613  -2.370   0.035  0.00  0.00    -0.058 S 
ENDROOT
BRANCH   8  11
ATOM     11  C   UNL     1      -0.018   1.479   0.010  0.00  0.00    +0.001 A 
ATOM     12  C   UNL     1      -1.233   2.162   0.020  0.00  0.00    +0.011 A 
ATOM     13  C   UNL     1      -1.246   3.542   0.033  0.00  0.00    +0.016 A 
ATOM     14  C   UNL     1      -0.056   4.248   0.025  0.00  0.00    +0.018 A 
ATOM     15  C   UNL     1       1.154   3.574   0.010  0.00  0.00    +0.016 A 
ATOM     16  C   UNL     1       1.178   2.195   0.003  0.00  0.00    +0.011 A 
ATOM     17 BR   UNL     1      -0.081   6.138   0.035  0.00  0.00    -0.050 Br
ENDBRANCH   8  11
BRANCH   1  21
ATOM     18  C   UNL     1      -8.584  -3.196  -0.685  0.00  0.00    +0.124 A 
ATOM     19  C   UNL     1      -7.980  -4.447  -0.647  0.00  0.00    +0.046 A 
ATOM     20  C   UNL     1      -6.610  -4.553  -0.546  0.00  0.00    +0.017 A 
ATOM     21  C   UNL     1      -5.825  -3.399  -0.472  0.00  0.00    +0.040 A 
ATOM     22  C   UNL     1      -6.436  -2.138  -0.512  0.00  0.00    +0.132 A 
ATOM     23  C   UNL     1      -7.813  -2.045  -0.618  0.00  0.00    +0.091 A 
BRANCH  18  25
ATOM     24  C   UNL     1     -10.669  -4.325  -0.855  0.00  0.00    +0.277 C 
ATOM     25  O   UNL     1      -9.935  -3.100  -0.790  0.00  0.00    -0.495 OA
ENDBRANCH  18  25
BRANCH  22  26
ATOM     26  O   UNL     1      -5.680  -1.012  -0.447  0.00  0.00    -0.494 OA
ATOM     27  C   UNL     1      -6.372   0.238  -0.493  0.00  0.00    +0.277 C 
ENDBRANCH  22  26
ENDBRANCH   1  21
BRANCH   4  28
ATOM     28  C   UNL     1      -1.497  -4.853   1.117  0.00  0.00    +0.438 C 
ATOM     29  F   UNL     1      -2.276  -4.422   2.196  0.00  0.00    -0.166 F 
ATOM     30  F   UNL     1      -1.453  -6.251   1.104  0.00  0.00    -0.166 F 
ATOM     31  F   UNL     1      -0.199  -4.347   1.246  0.00  0.00    -0.166 F 
ENDBRANCH   4  28
BRANCH   4  32
ATOM     32  O   UNL     1      -1.353  -4.805  -1.311  0.00  0.00    -0.363 OA
ATOM     33  H   UNL     1      -0.438  -4.492  -1.319  0.00  0.00    +0.212 HD
ENDBRANCH   4  32
TORSDOF 6
