REMARK  Name = ZINC21257205
REMARK  10 active torsions:
REMARK  status: ('A' for Active; 'I' for Inactive)
REMARK    1  A    between atoms: C_1  and  C_2
REMARK    2  A    between atoms: C_5  and  C_11
REMARK    3  A    between atoms: C_7  and  N_8
REMARK    4  A    between atoms: C_16  and  C_21
REMARK    5  A    between atoms: C_23  and  O_31
REMARK    6  A    between atoms: C_24  and  O_29
REMARK    7  A    between atoms: C_25  and  O_27
REMARK    8  A    between atoms: O_27  and  C_28
REMARK    9  A    between atoms: O_29  and  C_30
REMARK   10  A    between atoms: O_31  and  C_32
REMARK                            x       y       z     vdW  Elec       q    Type
REMARK                         _______ _______ _______ _____ _____    ______ ____
ROOT
ATOM      1  C   UNL     1       1.063   3.565   0.147  0.00  0.00    +0.136 C 
ATOM      2  C   UNL     1       0.856   2.076   0.280  0.00  0.00    +0.036 C 
ATOM      3  C   UNL     1      -0.328   1.452   0.408  0.00  0.00    +0.017 C 
ATOM      4  C   UNL     1      -0.393  -0.060   0.532  0.00  0.00    +0.059 C 
ATOM      5  C   UNL     1       0.849  -0.579   1.254  0.00  0.00    +0.032 C 
ATOM      6  C   UNL     1       2.075  -0.163   0.432  0.00  0.00    +0.088 C 
ATOM      7  C   UNL     1       2.057   1.328   0.271  0.00  0.00    +0.163 C 
ATOM      8  O   UNL     1       3.112   1.914   0.128  0.00  0.00    -0.292 OA
ATOM      9  N   UNL     1      -1.532   2.078   0.427  0.00  0.00    -0.316 N 
ATOM     10  C   UNL     1      -1.830   3.209   1.177  0.00  0.00    +0.052 A 
ATOM     11  C   UNL     1      -2.799   3.206   2.165  0.00  0.00    +0.025 A 
ATOM     12  C   UNL     1      -3.128   4.394   2.795  0.00  0.00    +0.002 A 
ATOM     13  C   UNL     1      -2.493   5.571   2.442  0.00  0.00    +0.002 A 
ATOM     14  C   UNL     1      -1.508   5.570   1.470  0.00  0.00    +0.025 A 
ATOM     15  C   UNL     1      -1.163   4.380   0.850  0.00  0.00    +0.049 A 
ATOM     16  N   UNL     1      -0.146   4.321  -0.101  0.00  0.00    -0.331 N 
ATOM     17  H   UNL     1      -2.362   1.691  -0.183  0.00  0.00    +0.152 HD
ATOM     18  H   UNL     1      -0.273   4.859  -1.052  0.00  0.00    +0.147 HD
ENDROOT
BRANCH   1  23
ATOM     19  C   UNL     1       3.464   5.522   5.025  0.00  0.00    +0.046 C 
ATOM     20  C   UNL     1       2.837   5.013   3.753  0.00  0.00    -0.020 A 
ATOM     21  C   UNL     1       1.573   4.455   3.780  0.00  0.00    +0.006 A 
ATOM     22  C   UNL     1       0.999   3.987   2.613  0.00  0.00    +0.006 A 
ATOM     23  C   UNL     1       1.689   4.076   1.419  0.00  0.00    -0.021 A 
ATOM     24  C   UNL     1       2.956   4.629   1.393  0.00  0.00    +0.038 A 
ATOM     25  C   UNL     1       3.528   5.102   2.559  0.00  0.00    +0.129 A 
BRANCH  25  26
ATOM     26  N   UNL     1       4.882   5.698   2.530  0.00  0.00    +0.057 N 
ATOM     27  O   UNL     1       5.445   5.879   1.465  0.00  0.00    -0.126 OA
ATOM     28  O   UNL     1       5.433   6.009   3.571  0.00  0.00    -0.126 OA
ENDBRANCH  25  26
ENDBRANCH   1  23
BRANCH   5  29
ATOM     29  C   UNL     1       0.790  -2.081   1.358  0.00  0.00    -0.036 A 
ATOM     30  C   UNL     1       0.725  -2.849   0.211  0.00  0.00    +0.053 A 
ATOM     31  C   UNL     1       0.675  -4.232   0.302  0.00  0.00    +0.165 A 
ATOM     32  C   UNL     1       0.680  -4.845   1.550  0.00  0.00    +0.204 A 
ATOM     33  C   UNL     1       0.740  -4.069   2.701  0.00  0.00    +0.165 A 
ATOM     34  C   UNL     1       0.795  -2.687   2.601  0.00  0.00    +0.053 A 
BRANCH  33  35
ATOM     35  O   UNL     1       0.746  -4.664   3.924  0.00  0.00    -0.491 OA
ATOM     36  C   UNL     1       0.809  -3.804   5.063  0.00  0.00    +0.277 C 
ENDBRANCH  33  35
BRANCH  32  37
ATOM     37  O   UNL     1       0.627  -6.202   1.643  0.00  0.00    -0.488 OA
ATOM     38  C   UNL     1      -0.671  -6.796   1.719  0.00  0.00    +0.277 C 
ENDBRANCH  32  37
BRANCH  31  39
ATOM     39  O   UNL     1       0.616  -4.987  -0.827  0.00  0.00    -0.491 OA
ATOM     40  C   UNL     1       0.615  -4.290  -2.075  0.00  0.00    +0.277 C 
ENDBRANCH  31  39
ENDBRANCH   5  29
TORSDOF 6
