REMARK  Name = ZINC04668358
REMARK  8 active torsions:
REMARK  status: ('A' for Active; 'I' for Inactive)
REMARK    1  A    between atoms: C_1  and  C_2
REMARK    2  A    between atoms: C_7  and  N_12
REMARK    3  A    between atoms: C_9  and  C_11
REMARK    4  A    between atoms: C_13  and  C_15
REMARK    5  A    between atoms: C_18  and  C_20
REMARK    6  A    between atoms: C_20  and  S_21
REMARK    7  A    between atoms: S_21  and  C_22
REMARK    8  A    between atoms: C_22  and  C_23
REMARK                            x       y       z     vdW  Elec       q    Type
REMARK                         _______ _______ _______ _____ _____    ______ ____
ROOT
ATOM      1  C   UNL     1       0.002  -0.004   0.002  0.00  0.00    +0.189 A 
ATOM      2  C   UNL     1       1.306  -0.409  -0.013  0.00  0.00    +0.055 A 
ATOM      3  C   UNL     1       2.090   0.755  -0.014  0.00  0.00    +0.046 A 
ATOM      4  C   UNL     1       1.241   1.807  -0.000  0.00  0.00    +0.116 A 
ATOM      5  O   UNL     1      -0.016   1.345   0.009  0.00  0.00    -0.454 OA
ENDROOT
BRANCH   1   7
ATOM      6  N   UNL     1      -2.411  -0.350   0.022  0.00  0.00    -0.306 N 
ATOM      7  C   UNL     1      -1.173  -0.882   0.008  0.00  0.00    +0.280 C 
ATOM      8  O   UNL     1      -1.029  -2.090  -0.000  0.00  0.00    -0.267 OA
ATOM      9  H   UNL     1      -2.525   0.613   0.029  0.00  0.00    +0.149 HD
BRANCH   6  15
ATOM     10  C   UNL     1      -7.204  -0.652  -1.155  0.00  0.00    +0.008 C 
ATOM     11  C   UNL     1      -6.007  -1.397  -0.560  0.00  0.00    -0.009 C 
ATOM     12  C   UNL     1      -6.327  -1.812   0.877  0.00  0.00    +0.003 C 
ATOM     13  C   UNL     1      -5.130  -2.557   1.472  0.00  0.00    +0.002 C 
ATOM     14  C   UNL     1      -3.905  -1.641   1.466  0.00  0.00    +0.022 C 
ATOM     15  C   UNL     1      -3.585  -1.227   0.028  0.00  0.00    +0.076 C 
ATOM     16  C   UNL     1      -4.781  -0.482  -0.566  0.00  0.00    +0.009 C 
ATOM     17  C   UNL     1      -5.072   0.765   0.271  0.00  0.00    +0.009 C 
ENDBRANCH   6  15
ENDBRANCH   1   7
BRANCH   4  18
ATOM     18  C   UNL     1       1.643   3.259   0.004  0.00  0.00    +0.143 C 
BRANCH  18  19
ATOM     19  S   UNL     1       1.786   3.852  -1.704  0.00  0.00    -0.148 S 
BRANCH  19  20
ATOM     20  C   UNL     1       2.269   5.591  -1.526  0.00  0.00    +0.104 C 
BRANCH  20  21
ATOM     21  C   UNL     1       2.425   6.212  -2.890  0.00  0.00    -0.035 A 
ATOM     22  C   UNL     1       3.652   6.182  -3.527  0.00  0.00    +0.004 A 
ATOM     23  C   UNL     1       3.795   6.747  -4.781  0.00  0.00    +0.003 A 
ATOM     24  C   UNL     1       2.714   7.351  -5.395  0.00  0.00    +0.038 A 
ATOM     25  C   UNL     1       1.486   7.386  -4.756  0.00  0.00    +0.124 A 
ATOM     26  C   UNL     1       1.343   6.815  -3.502  0.00  0.00    +0.042 A 
ATOM     27  F   UNL     1       0.429   7.976  -5.355  0.00  0.00    -0.205 F 
ENDBRANCH  20  21
ENDBRANCH  19  20
ENDBRANCH  18  19
ENDBRANCH   4  18
TORSDOF 6
