REMARK  Name = ZINC33529488
REMARK  14 active torsions:
REMARK  status: ('A' for Active; 'I' for Inactive)
REMARK    1  A    between atoms: C_1  and  O_2
REMARK    2  A    between atoms: O_2  and  C_3
REMARK    3  A    between atoms: C_3  and  C_4
REMARK    4  A    between atoms: C_4  and  C_5
REMARK    5  A    between atoms: C_5  and  N_6
REMARK    6  A    between atoms: N_6  and  C_7
REMARK    7  A    between atoms: C_7  and  C_8
REMARK    8  A    between atoms: N_10  and  C_11
REMARK    9  A    between atoms: N_10  and  C_21
REMARK   10  A    between atoms: C_11  and  C_12
REMARK   11  A    between atoms: C_21  and  C_22
REMARK   12  A    between atoms: N_29  and  C_30
REMARK   13  A    between atoms: C_34  and  O_36
REMARK   14  A    between atoms: O_36  and  C_37
REMARK                            x       y       z     vdW  Elec       q    Type
REMARK                         _______ _______ _______ _____ _____    ______ ____
ROOT
ATOM      1  C   UNL     1       7.465  -2.803  -0.327  0.00  0.00    +0.205 C 
ENDROOT
BRANCH   1   2
ATOM      2  N   UNL     1       7.428  -4.264  -0.217  0.00  0.00    -0.277 N 
ATOM      3  C   UNL     1       6.604  -4.978  -1.009  0.00  0.00    +0.307 C 
ATOM      4  O   UNL     1       5.891  -4.411  -1.815  0.00  0.00    -0.252 OA
ATOM      5  N   UNL     1       6.570  -6.322  -0.908  0.00  0.00    -0.269 N 
ATOM      6  H   UNL     1       7.275  -6.842  -0.243  0.00  0.00    +0.156 HD
BRANCH   5   7
ATOM      7  C   UNL     1       5.637  -7.056  -1.650  0.00  0.00    +0.038 A 
ATOM      8  C   UNL     1       4.382  -6.521  -1.913  0.00  0.00    +0.023 A 
ATOM      9  C   UNL     1       3.463  -7.244  -2.649  0.00  0.00    +0.005 A 
ATOM     10  C   UNL     1       3.785  -8.504  -3.116  0.00  0.00    +0.046 A 
ATOM     11  C   UNL     1       5.035  -9.045  -2.852  0.00  0.00    +0.122 A 
ATOM     12  C   UNL     1       5.962  -8.321  -2.118  0.00  0.00    +0.069 A 
BRANCH  11  13
ATOM     13  O   UNL     1       5.351 -10.284  -3.312  0.00  0.00    -0.495 OA
ATOM     14  C   UNL     1       4.348 -10.973  -4.061  0.00  0.00    +0.277 C 
ENDBRANCH  11  13
ENDBRANCH   5   7
BRANCH   2  15
ATOM     15  C   UNL     1       8.286  -4.948   0.753  0.00  0.00    +0.112 C 
BRANCH  15  16
ATOM     16  C   UNL     1       7.543  -5.085   2.084  0.00  0.00    +0.047 C 
BRANCH  16  17
ATOM     17  C   UNL     1       8.440  -5.799   3.097  0.00  0.00    +0.161 C 
BRANCH  17  19
ATOM     18  C   UNL     1       8.499  -6.584   5.361  0.00  0.00    +0.193 C 
ATOM     19  O   UNL     1       7.746  -5.927   4.340  0.00  0.00    -0.383 OA
ENDBRANCH  17  19
ENDBRANCH  16  17
ENDBRANCH  15  16
ENDBRANCH   2  15
ENDBRANCH   1   2
BRANCH   1  20
ATOM     20  C   UNL     1       6.451  -2.203   0.613  0.00  0.00    +0.234 C 
ATOM     21  O   UNL     1       5.766  -2.924   1.307  0.00  0.00    -0.274 OA
ATOM     22  N   UNL     1       6.307  -0.865   0.684  0.00  0.00    -0.291 N 
BRANCH  22  23
ATOM     23  C   UNL     1       5.322  -0.282   1.598  0.00  0.00    +0.143 C 
BRANCH  23  24
ATOM     24  C   UNL     1       4.002  -0.134   0.886  0.00  0.00    -0.026 A 
ATOM     25  C   UNL     1       3.081  -1.164   0.919  0.00  0.00    +0.009 A 
ATOM     26  C   UNL     1       1.869  -1.033   0.267  0.00  0.00    +0.050 A 
ATOM     27  C   UNL     1       1.575   0.132  -0.421  0.00  0.00    +0.166 A 
ATOM     28  C   UNL     1       2.502   1.171  -0.455  0.00  0.00    +0.167 A 
ATOM     29  C   UNL     1       3.715   1.032   0.201  0.00  0.00    +0.054 A 
ATOM     30  O   UNL     1       1.982   2.197  -1.188  0.00  0.00    -0.453 OA
ATOM     31  C   UNL     1       0.567   1.940  -1.260  0.00  0.00    +0.466 C 
ATOM     32  O   UNL     1       0.473   0.509  -1.134  0.00  0.00    -0.453 OA
ENDBRANCH  23  24
ENDBRANCH  22  23
BRANCH  22  33
ATOM     33  C   UNL     1       7.135   0.006  -0.154  0.00  0.00    +0.150 C 
BRANCH  33  34
ATOM     34  C   UNL     1       8.402   0.357   0.584  0.00  0.00    +0.007 A 
ATOM     35  C   UNL     1       9.591  -0.293   0.596  0.00  0.00    +0.013 A 
ATOM     36  C   UNL     1      10.628   0.219   1.352  0.00  0.00    +0.008 A 
ATOM     37  C   UNL     1      10.421   1.351   2.069  0.00  0.00    +0.045 A 
ATOM     38  S   UNL     1       8.722   1.732   1.677  0.00  0.00    -0.100 S 
ENDBRANCH  33  34
ENDBRANCH  22  33
ENDBRANCH   1  20
TORSDOF 12
