REMARK  Name = ZINC43664063
REMARK  6 active torsions:
REMARK  status: ('A' for Active; 'I' for Inactive)
REMARK    1  A    between atoms: C_1  and  C_2
REMARK    2  A    between atoms: C_2  and  S_3
REMARK    3  A    between atoms: S_3  and  C_6
REMARK    4  A    between atoms: C_6  and  C_7
REMARK    5  A    between atoms: C_7  and  C_8
REMARK    6  A    between atoms: C_11  and  C_18
REMARK                            x       y       z     vdW  Elec       q    Type
REMARK                         _______ _______ _______ _____ _____    ______ ____
ROOT
ATOM      1  C   UNL     1      -2.510  -4.621   0.043  0.00  0.00    +0.005 C 
ATOM      2  C   UNL     1      -3.815  -5.417   0.108  0.00  0.00    +0.013 C 
ATOM      3  C   UNL     1      -3.498  -6.913   0.138  0.00  0.00    +0.019 C 
ATOM      4  C   UNL     1      -2.729  -7.298  -1.127  0.00  0.00    +0.009 C 
ATOM      5  C   UNL     1      -1.425  -6.501  -1.193  0.00  0.00    +0.015 C 
ATOM      6  C   UNL     1      -1.741  -5.005  -1.223  0.00  0.00    +0.060 C 
ATOM      7 BR   UNL     1      -0.065  -3.982  -1.307  0.00  0.00    -0.088 Br
ENDROOT
BRANCH   3   8
ATOM      8  C   UNL     1      -4.784  -7.698   0.203  0.00  0.00    -0.044 A 
ATOM      9  C   UNL     1      -5.717  -7.579  -0.810  0.00  0.00    +0.004 A 
ATOM     10  C   UNL     1      -6.896  -8.299  -0.751  0.00  0.00    +0.000 A 
ATOM     11  C   UNL     1      -7.141  -9.137   0.321  0.00  0.00    +0.000 A 
ATOM     12  C   UNL     1      -6.207  -9.256   1.333  0.00  0.00    +0.000 A 
ATOM     13  C   UNL     1      -5.026  -8.540   1.271  0.00  0.00    +0.004 A 
ENDBRANCH   3   8
BRANCH   1  14
ATOM     14  C   UNL     1      -2.827  -3.124   0.012  0.00  0.00    +0.027 C 
BRANCH  14  15
ATOM     15  C   UNL     1      -3.471  -2.712   1.338  0.00  0.00    +0.166 C 
BRANCH  15  16
ATOM     16  S   UNL     1      -3.705  -0.914   1.363  0.00  0.00    -0.031 S 
ATOM     17  O   UNL     1      -4.648  -0.569   0.358  0.00  0.00    -0.174 OA
ATOM     18  O   UNL     1      -2.426  -0.294   1.352  0.00  0.00    -0.174 OA
BRANCH  16  20
ATOM     19  C   UNL     1      -4.733   0.864   3.170  0.00  0.00    +0.028 C 
ATOM     20  C   UNL     1      -4.466  -0.631   2.986  0.00  0.00    +0.162 C 
ENDBRANCH  16  20
ENDBRANCH  15  16
ENDBRANCH  14  15
ENDBRANCH   1  14
TORSDOF 5
