REMARK  Name = ZINC63521466
REMARK  8 active torsions:
REMARK  status: ('A' for Active; 'I' for Inactive)
REMARK    1  A    between atoms: C_1  and  C_2
REMARK    2  A    between atoms: C_4  and  C_14
REMARK    3  A    between atoms: C_14  and  C_15
REMARK    4  A    between atoms: C_15  and  N_16
REMARK    5  A    between atoms: C_20  and  C_24
REMARK    6  A    between atoms: C_20  and  C_25
REMARK    7  A    between atoms: C_21  and  C_22
REMARK    8  A    between atoms: C_21  and  O_23
REMARK                            x       y       z     vdW  Elec       q    Type
REMARK                         _______ _______ _______ _____ _____    ______ ____
ROOT
ATOM      1  C   UNL     1      -0.019   1.526   0.010  0.00  0.00    +0.035 C 
ATOM      2  C   UNL     1       0.002  -0.004   0.002  0.00  0.00    +0.103 C 
ATOM      3  C   UNL     1      -1.410  -0.545   0.038  0.00  0.00    -0.037 C 
ATOM      4  C   UNL     1      -1.503  -1.275   1.172  0.00  0.00    +0.001 A 
ATOM      5  C   UNL     1      -2.600  -2.045   1.771  0.00  0.00    +0.011 A 
ATOM      6  C   UNL     1      -2.389  -2.686   2.942  0.00  0.00    +0.022 A 
ATOM      7  C   UNL     1      -1.151  -2.634   3.599  0.00  0.00    +0.061 A 
ATOM      8  C   UNL     1      -0.094  -1.946   3.110  0.00  0.00    +0.083 A 
ATOM      9  C   UNL     1      -0.206  -1.235   1.884  0.00  0.00    +0.063 A 
ATOM     10  N   UNL     1       0.658  -0.508   1.214  0.00  0.00    -0.377 N 
ATOM     11 CL   UNL     1       1.406  -1.932   3.983  0.00  0.00    -0.080 Cl
ATOM     12 CL   UNL     1      -0.967  -3.487   5.099  0.00  0.00    -0.082 Cl
ATOM     13  H   UNL     1       1.576  -0.332   1.475  0.00  0.00    +0.160 HD
ENDROOT
BRANCH   3  14
ATOM     14  C   UNL     1      -2.494  -0.316  -0.984  0.00  0.00    +0.052 C 
BRANCH  14  15
ATOM     15  C   UNL     1      -3.765  -1.048  -0.551  0.00  0.00    +0.118 C 
BRANCH  15  16
ATOM     16  N   UNL     1      -4.819  -0.826  -1.544  0.00  0.00    -0.235 N 
ATOM     17  C   UNL     1      -5.711   0.183  -1.543  0.00  0.00    +0.406 C 
ATOM     18  O   UNL     1      -5.728   1.064  -0.707  0.00  0.00    -0.226 OA
ATOM     19  O   UNL     1      -6.581   0.111  -2.564  0.00  0.00    -0.440 OA
ATOM     20  C   UNL     1      -6.018  -0.756  -3.569  0.00  0.00    +0.155 C 
ATOM     21  C   UNL     1      -5.089  -1.663  -2.730  0.00  0.00    +0.174 C 
ATOM     22  C   UNL     1      -5.807  -2.954  -2.333  0.00  0.00    +0.068 C 
ATOM     23  C   UNL     1      -5.211   0.045  -4.592  0.00  0.00    +0.060 C 
ATOM     24  C   UNL     1      -7.111  -1.575  -4.258  0.00  0.00    +0.060 C 
BRANCH  21  25
ATOM     25  O   UNL     1      -3.880  -1.948  -3.437  0.00  0.00    -0.368 OA
ATOM     26  H   UNL     1      -3.229  -2.442  -2.920  0.00  0.00    +0.212 HD
ENDBRANCH  21  25
ENDBRANCH  15  16
ENDBRANCH  14  15
ENDBRANCH   3  14
TORSDOF 4
