REMARK  Name = ZINC64600526
REMARK  6 active torsions:
REMARK  status: ('A' for Active; 'I' for Inactive)
REMARK    1  A    between atoms: C_6  and  O_7
REMARK    2  A    between atoms: O_7  and  C_8
REMARK    3  A    between atoms: C_8  and  C_9
REMARK    4  A    between atoms: N_11  and  C_12
REMARK    5  A    between atoms: C_12  and  C_13
REMARK    6  A    between atoms: C_13  and  C_14
REMARK                            x       y       z     vdW  Elec       q    Type
REMARK                         _______ _______ _______ _____ _____    ______ ____
ROOT
ATOM      1  C   UNL     1      -3.557  -0.870   0.055  0.00  0.00    +0.251 C 
ATOM      2  O   UNL     1      -3.382  -2.070   0.046  0.00  0.00    -0.272 OA
ATOM      3  N   UNL     1      -4.809  -0.371   0.078  0.00  0.00    -0.312 N 
ATOM      4  H   UNL     1      -4.948   0.589   0.086  0.00  0.00    +0.149 HD
ENDROOT
BRANCH   1   5
ATOM      5  C   UNL     1      -2.374   0.064   0.041  0.00  0.00    +0.324 C 
BRANCH   5   6
ATOM      6  O   UNL     1      -1.166  -0.699   0.017  0.00  0.00    -0.483 OA
BRANCH   6  12
ATOM      7  C   UNL     1      -0.017   1.383   0.010  0.00  0.00    +0.046 A 
ATOM      8  C   UNL     1       1.173   2.086   0.002  0.00  0.00    +0.011 A 
ATOM      9  C   UNL     1       2.378   1.416  -0.017  0.00  0.00    -0.001 A 
ATOM     10  C   UNL     1       2.409   0.019  -0.037  0.00  0.00    +0.139 A 
ATOM     11  C   UNL     1       1.210  -0.681  -0.021  0.00  0.00    +0.092 A 
ATOM     12  C   UNL     1       0.002  -0.004   0.002  0.00  0.00    +0.125 A 
ATOM     13  O   UNL     1       3.572  -0.688  -0.094  0.00  0.00    -0.425 OA
ATOM     14  C   UNL     1       4.759  -0.027  -0.199  0.00  0.00    +0.316 C 
ATOM     15  O   UNL     1       5.801  -0.471   0.223  0.00  0.00    -0.250 OA
ATOM     16  C   UNL     1       4.654   1.298  -0.881  0.00  0.00    +0.106 C 
ATOM     17  C   UNL     1       3.676   2.137  -0.006  0.00  0.00    +0.036 C 
ATOM     18  C   UNL     1       3.784   3.506  -0.668  0.00  0.00    +0.009 C 
ATOM     19  C   UNL     1       5.317   3.640  -0.910  0.00  0.00    +0.001 C 
ATOM     20  C   UNL     1       5.875   2.196  -0.960  0.00  0.00    +0.015 C 
ENDBRANCH   6  12
ENDBRANCH   5   6
ENDBRANCH   1   5
BRANCH   3  21
ATOM     21  C   UNL     1      -5.959  -1.279   0.092  0.00  0.00    +0.108 C 
BRANCH  21  22
ATOM     22  C   UNL     1      -7.253  -0.463   0.117  0.00  0.00    +0.052 C 
BRANCH  22  23
ATOM     23  C   UNL     1      -8.435  -1.396   0.132  0.00  0.00    -0.040 C 
ATOM     24  C   UNL     1      -9.118  -1.827   1.217  0.00  0.00    +0.002 A 
ATOM     25  C   UNL     1      -8.968  -1.566   2.653  0.00  0.00    +0.048 A 
ATOM     26  C   UNL     1      -9.824  -2.157   3.521  0.00  0.00    +0.124 A 
ATOM     27  C   UNL     1     -10.848  -3.010   3.080  0.00  0.00    +0.040 A 
ATOM     28  C   UNL     1     -11.047  -3.297   1.776  0.00  0.00    +0.029 A 
ATOM     29  C   UNL     1     -10.206  -2.731   0.779  0.00  0.00    +0.043 A 
ATOM     30  N   UNL     1     -10.196  -2.853  -0.526  0.00  0.00    -0.380 N 
ATOM     31  C   UNL     1      -9.104  -2.035  -1.065  0.00  0.00    +0.144 C 
ATOM     32  F   UNL     1      -9.689  -1.919   4.844  0.00  0.00    -0.205 F 
ATOM     33  H   UNL     1     -10.811  -3.392  -1.049  0.00  0.00    +0.160 HD
ENDBRANCH  22  23
ENDBRANCH  21  22
ENDBRANCH   3  21
TORSDOF 6
