REMARK  Name = ZINC20472545
REMARK  3 active torsions:
REMARK  status: ('A' for Active; 'I' for Inactive)
REMARK    1  A    between atoms: C_7  and  N_11
REMARK    2  A    between atoms: C_12  and  C_14
REMARK    3  A    between atoms: C_16  and  C_20
REMARK                            x       y       z     vdW  Elec       q    Type
REMARK                         _______ _______ _______ _____ _____    ______ ____
ROOT
ATOM      1  N   UNL     1      -4.854   7.920   0.002  0.00  0.00    -0.279 N 
ATOM      2  C   UNL     1      -3.556   7.563  -0.060  0.00  0.00    +0.266 C 
ATOM      3  O   UNL     1      -2.695   8.416  -0.169  0.00  0.00    -0.268 OA
ATOM      4  H   UNL     1      -5.633   7.150   0.101  0.00  0.00    +0.155 HD
ENDROOT
BRANCH   1  11
ATOM      5  C   UNL     1      -8.949  10.059   0.119  0.00  0.00    +0.001 A 
ATOM      6  C   UNL     1      -8.819  11.438   0.028  0.00  0.00    +0.002 A 
ATOM      7  C   UNL     1      -7.576  12.022  -0.075  0.00  0.00    +0.026 A 
ATOM      8  C   UNL     1      -6.437  11.222  -0.100  0.00  0.00    +0.048 A 
ATOM      9  C   UNL     1      -6.574   9.825  -0.010  0.00  0.00    +0.021 A 
ATOM     10  C   UNL     1      -7.844   9.255   0.102  0.00  0.00    +0.012 A 
ATOM     11  C   UNL     1      -5.213   9.278  -0.058  0.00  0.00    +0.059 A 
ATOM     12  C   UNL     1      -4.374  10.325  -0.178  0.00  0.00    +0.107 A 
ATOM     13  N   UNL     1      -5.092  11.495  -0.204  0.00  0.00    -0.359 N 
ATOM     14  H   UNL     1      -4.747  12.537  -0.291  0.00  0.00    +0.165 HD
ENDBRANCH   1  11
BRANCH   2  15
ATOM     15  C   UNL     1      -3.180   6.142   0.003  0.00  0.00    +0.121 A 
ATOM     16  C   UNL     1      -1.901   5.631  -0.048  0.00  0.00    +0.062 A 
ATOM     17  C   UNL     1      -1.997   4.235   0.044  0.00  0.00    +0.094 A 
ATOM     18  N   UNL     1      -3.270   3.909   0.141  0.00  0.00    -0.173 NA
ATOM     19  N   UNL     1      -4.035   5.082   0.124  0.00  0.00    -0.272 N 
ATOM     20  H   UNL     1      -5.120   5.254   0.188  0.00  0.00    +0.189 HD
BRANCH  17  21
ATOM     21  C   UNL     1      -0.857   3.284   0.028  0.00  0.00    +0.009 A 
ATOM     22  C   UNL     1      -1.077   1.911   0.017  0.00  0.00    +0.017 A 
ATOM     23  C   UNL     1      -0.013   1.076   0.008  0.00  0.00    +0.046 A 
ATOM     24  S   UNL     1       1.361   2.215   0.001  0.00  0.00    -0.104 S 
ATOM     25  C   UNL     1       0.431   3.739   0.018  0.00  0.00    +0.055 A 
ENDBRANCH  17  21
ENDBRANCH   2  15
TORSDOF 3
