REMARK  Name = ZINC64423276
REMARK  6 active torsions:
REMARK  status: ('A' for Active; 'I' for Inactive)
REMARK    1  A    between atoms: C_6  and  N_7
REMARK    2  A    between atoms: N_7  and  C_8
REMARK    3  A    between atoms: C_16  and  N_18
REMARK    4  A    between atoms: N_18  and  C_19
REMARK    5  A    between atoms: C_19  and  C_20
REMARK    6  A    between atoms: C_20  and  C_21
REMARK                            x       y       z     vdW  Elec       q    Type
REMARK                         _______ _______ _______ _____ _____    ______ ____
ROOT
ATOM      1  C   UNL     1      -1.180  -2.181  -0.108  0.00  0.00    +0.245 C 
ATOM      2  C   UNL     1      -2.168  -2.747   0.882  0.00  0.00    +0.127 C 
ATOM      3  N   UNL     1      -2.353  -2.710   2.162  0.00  0.00    -0.233 NA
ATOM      4  C   UNL     1      -3.443  -3.436   2.476  0.00  0.00    +0.224 C 
ATOM      5  N   UNL     1      -3.994  -3.963   1.411  0.00  0.00    -0.217 NA
ATOM      6  C   UNL     1      -3.263  -3.590   0.327  0.00  0.00    +0.160 C 
ATOM      7  N   UNL     1      -3.316  -3.796  -0.958  0.00  0.00    -0.310 N 
ATOM      8  C   UNL     1      -2.427  -3.286  -1.837  0.00  0.00    +0.212 C 
ATOM      9  N   UNL     1      -1.421  -2.532  -1.522  0.00  0.00    -0.223 NA
ATOM     10  H   UNL     1      -4.035  -4.348  -1.303  0.00  0.00    +0.170 HD
ENDROOT
BRANCH   1  11
ATOM     11  N   UNL     1      -1.198  -0.721   0.010  0.00  0.00    -0.318 N 
ATOM     12  H   UNL     1      -2.042  -0.243   0.002  0.00  0.00    +0.148 HD
BRANCH  11  18
ATOM     13  C   UNL     1       1.215  -0.672  -0.023  0.00  0.00    +0.024 A 
ATOM     14  C   UNL     1       2.400   0.028   0.100  0.00  0.00    +0.022 A 
ATOM     15  C   UNL     1       2.378   1.383   0.381  0.00  0.00    +0.041 A 
ATOM     16  C   UNL     1       1.171   2.040   0.538  0.00  0.00    +0.022 A 
ATOM     17  C   UNL     1      -0.017   1.345   0.416  0.00  0.00    +0.024 A 
ATOM     18  C   UNL     1       0.002  -0.015   0.135  0.00  0.00    +0.029 A 
ATOM     19 CL   UNL     1       3.868   2.259   0.535  0.00  0.00    -0.084 Cl
ENDBRANCH  11  18
ENDBRANCH   1  11
BRANCH   8  20
ATOM     20  N   UNL     1      -2.606  -3.588  -3.173  0.00  0.00    -0.217 NA
BRANCH  20  21
ATOM     21  C   UNL     1      -1.674  -3.063  -4.174  0.00  0.00    +0.135 C 
BRANCH  21  22
ATOM     22  C   UNL     1      -2.095  -3.542  -5.564  0.00  0.00    +0.051 C 
BRANCH  22  23
ATOM     23  C   UNL     1      -1.137  -3.003  -6.594  0.00  0.00    -0.072 C 
ATOM     24  C   UNL     1      -0.153  -3.759  -6.963  0.00  0.00    -0.028 C 
ATOM     25  C   UNL     1       0.886  -3.357  -7.968  0.00  0.00    +0.027 C 
ATOM     26  C   UNL     1       0.396  -2.157  -8.782  0.00  0.00    +0.004 C 
ATOM     27  C   UNL     1      -0.119  -1.089  -7.809  0.00  0.00    +0.005 C 
ATOM     28  C   UNL     1      -1.385  -1.624  -7.132  0.00  0.00    +0.030 C 
ENDBRANCH  22  23
ENDBRANCH  21  22
ENDBRANCH  20  21
ENDBRANCH   8  20
TORSDOF 6
