REMARK  Name = ZINC15957568
REMARK  5 active torsions:
REMARK  status: ('A' for Active; 'I' for Inactive)
REMARK    1  A    between atoms: C_1  and  C_2
REMARK    2  A    between atoms: C_2  and  C_3
REMARK    3  A    between atoms: C_17  and  C_20
REMARK    4  A    between atoms: C_20  and  C_21
REMARK    5  A    between atoms: N_29  and  C_32
REMARK                            x       y       z     vdW  Elec       q    Type
REMARK                         _______ _______ _______ _____ _____    ______ ____
ROOT
ATOM      1  C   UNL     1      -1.412  -0.526   0.013  0.00  0.00    -0.026 A 
ATOM      2  C   UNL     1      -2.011  -0.863   1.209  0.00  0.00    +0.005 A 
ATOM      3  C   UNL     1      -3.308  -1.341   1.229  0.00  0.00    +0.001 A 
ATOM      4  C   UNL     1      -4.008  -1.484   0.044  0.00  0.00    +0.008 A 
ATOM      5  C   UNL     1      -3.414  -1.149  -1.152  0.00  0.00    +0.004 A 
ATOM      6  C   UNL     1      -2.111  -0.661  -1.184  0.00  0.00    +0.042 A 
ATOM      7  N   UNL     1      -1.730  -0.386  -2.500  0.00  0.00    -0.283 N 
ATOM      8  C   UNL     1      -2.713  -0.660  -3.380  0.00  0.00    +0.243 C 
ATOM      9  O   UNL     1      -2.665  -0.522  -4.584  0.00  0.00    -0.273 OA
ATOM     10  C   UNL     1      -3.876  -1.181  -2.581  0.00  0.00    +0.136 C 
ATOM     11  C   UNL     1      -5.119  -0.308  -2.790  0.00  0.00    +0.122 C 
ATOM     12  C   UNL     1      -5.963  -1.074  -3.846  0.00  0.00    +0.107 C 
ATOM     13  C   UNL     1      -5.125  -2.323  -4.193  0.00  0.00    +0.072 C 
ATOM     14  N   UNL     1      -4.263  -2.543  -2.994  0.00  0.00    -0.295 NA
ATOM     15  C   UNL     1      -7.199  -1.480  -3.078  0.00  0.00    +0.227 C 
ATOM     16  O   UNL     1      -8.127  -2.117  -3.529  0.00  0.00    -0.275 OA
ATOM     17  N   UNL     1      -7.110  -1.029  -1.821  0.00  0.00    -0.238 N 
ATOM     18  C   UNL     1      -5.978  -0.342  -1.545  0.00  0.00    +0.228 C 
ATOM     19  O   UNL     1      -5.689   0.162  -0.481  0.00  0.00    -0.275 OA
ATOM     20  H   UNL     1      -0.860  -0.038  -2.750  0.00  0.00    +0.155 HD
ATOM     21  H   UNL     1      -3.451  -3.092  -3.234  0.00  0.00    +0.124 HD
ENDROOT
BRANCH  17  22
ATOM     22  C   UNL     1      -8.159  -1.253  -0.823  0.00  0.00    +0.084 C 
ATOM     23  C   UNL     1      -8.297  -2.769  -0.575  0.00  0.00    +0.023 C 
ATOM     24  C   UNL     1      -8.963  -2.977   0.758  0.00  0.00    +0.002 C 
ATOM     25  C   UNL     1     -10.489  -3.148   0.635  0.00  0.00    +0.000 C 
ATOM     26  C   UNL     1     -11.120  -2.171  -0.376  0.00  0.00    +0.000 C 
ATOM     27  C   UNL     1     -10.543  -0.784  -0.273  0.00  0.00    +0.002 C 
ATOM     28  C   UNL     1      -9.397  -0.653  -1.297  0.00  0.00    +0.023 C 
ENDBRANCH  17  22
BRANCH   1  30
ATOM     29  C   UNL     1      -0.019   1.526   0.010  0.00  0.00    +0.009 C 
ATOM     30  C   UNL     1       0.002  -0.004   0.002  0.00  0.00    +0.033 C 
ENDBRANCH   1  30
BRANCH  13  31
ATOM     31  C   UNL     1      -6.037  -3.533  -4.406  0.00  0.00    +0.054 C 
BRANCH  31  32
ATOM     32  C   UNL     1      -5.213  -4.709  -4.863  0.00  0.00    -0.046 A 
ATOM     33  C   UNL     1      -4.996  -4.919  -6.212  0.00  0.00    +0.004 A 
ATOM     34  C   UNL     1      -4.240  -5.997  -6.631  0.00  0.00    +0.000 A 
ATOM     35  C   UNL     1      -3.700  -6.866  -5.701  0.00  0.00    +0.000 A 
ATOM     36  C   UNL     1      -3.915  -6.655  -4.352  0.00  0.00    +0.000 A 
ATOM     37  C   UNL     1      -4.668  -5.574  -3.933  0.00  0.00    +0.004 A 
ENDBRANCH  31  32
ENDBRANCH  13  31
TORSDOF 4
