REMARK  Name = ZINC08846378
REMARK  10 active torsions:
REMARK  status: ('A' for Active; 'I' for Inactive)
REMARK    1  A    between atoms: C_1  and  C_2
REMARK    2  A    between atoms: C_2  and  O_3
REMARK    3  A    between atoms: O_3  and  C_4
REMARK    4  A    between atoms: C_7  and  C_10
REMARK    5  A    between atoms: C_17  and  N_39
REMARK    6  A    between atoms: C_18  and  C_37
REMARK    7  A    between atoms: C_19  and  C_21
REMARK    8  A    between atoms: C_24  and  O_27
REMARK    9  A    between atoms: O_27  and  C_28
REMARK   10  A    between atoms: C_28  and  C_29
REMARK                            x       y       z     vdW  Elec       q    Type
REMARK                         _______ _______ _______ _____ _____    ______ ____
ROOT
ATOM      1  C   UNL     1      -2.122  -6.440  -0.157  0.00  0.00    +0.100 A 
ATOM      2  C   UNL     1      -3.074  -6.986   0.710  0.00  0.00    +0.054 A 
ATOM      3  C   UNL     1      -3.033  -8.344   0.582  0.00  0.00    +0.223 A 
ATOM      4  N   UNL     1      -2.089  -8.642  -0.335  0.00  0.00    -0.246 N 
ATOM      5  H   UNL     1      -1.842  -9.532  -0.631  0.00  0.00    +0.192 HD
ATOM      6  N   UNL     1      -1.532  -7.436  -0.790  0.00  0.00    -0.171 NA
ATOM      7  O   UNL     1      -3.838  -9.171   1.295  0.00  0.00    -0.423 OA
ATOM      8  C   UNL     1      -4.501  -8.645   2.344  0.00  0.00    +0.200 C 
ATOM      9  C   UNL     1      -4.622  -7.318   2.570  0.00  0.00    +0.098 C 
ATOM     10  C   UNL     1      -4.019  -6.284   1.651  0.00  0.00    +0.102 C 
ENDROOT
BRANCH   1  14
ATOM     11  C   UNL     1      -1.286  -2.301  -0.674  0.00  0.00    +0.121 A 
ATOM     12  C   UNL     1      -1.492  -2.812   0.600  0.00  0.00    +0.046 A 
ATOM     13  C   UNL     1      -1.763  -4.154   0.770  0.00  0.00    +0.013 A 
ATOM     14  C   UNL     1      -1.831  -4.996  -0.338  0.00  0.00    +0.003 A 
ATOM     15  C   UNL     1      -1.625  -4.480  -1.615  0.00  0.00    +0.013 A 
ATOM     16  C   UNL     1      -1.359  -3.137  -1.781  0.00  0.00    +0.046 A 
BRANCH  11  17
ATOM     17  O   UNL     1      -1.020  -0.979  -0.840  0.00  0.00    -0.492 OA
BRANCH  17  19
ATOM     18  C   UNL     1      -0.651   1.272  -0.042  0.00  0.00    +0.048 C 
ATOM     19  C   UNL     1      -0.960  -0.177   0.341  0.00  0.00    +0.225 C 
ENDBRANCH  17  19
ENDBRANCH  11  17
ENDBRANCH   1  14
BRANCH  10  20
ATOM     20  C   UNL     1      -5.110  -5.606   0.864  0.00  0.00    -0.034 A 
ATOM     21  C   UNL     1      -5.891  -6.341  -0.008  0.00  0.00    +0.008 A 
ATOM     22  C   UNL     1      -6.892  -5.721  -0.731  0.00  0.00    +0.046 A 
ATOM     23  C   UNL     1      -7.113  -4.359  -0.581  0.00  0.00    +0.121 A 
ATOM     24  C   UNL     1      -6.328  -3.624   0.295  0.00  0.00    +0.046 A 
ATOM     25  C   UNL     1      -5.332  -4.250   1.020  0.00  0.00    +0.008 A 
BRANCH  23  26
ATOM     26  O   UNL     1      -8.096  -3.747  -1.292  0.00  0.00    -0.487 OA
BRANCH  26  27
ATOM     27  C   UNL     1      -8.267  -2.343  -1.087  0.00  0.00    +0.268 C 
BRANCH  27  28
ATOM     28  C   UNL     1      -9.394  -1.842  -1.952  0.00  0.00    +0.043 A 
ATOM     29  C   UNL     1      -9.135  -1.394  -3.236  0.00  0.00    +0.131 A 
ATOM     30  C   UNL     1     -10.172  -0.934  -4.030  0.00  0.00    +0.039 A 
ATOM     31  C   UNL     1     -11.465  -0.922  -3.541  0.00  0.00    +0.004 A 
ATOM     32  C   UNL     1     -11.723  -1.370  -2.259  0.00  0.00    +0.020 A 
ATOM     33  C   UNL     1     -10.689  -1.836  -1.466  0.00  0.00    +0.050 A 
ATOM     34 CL   UNL     1     -11.016  -2.404   0.141  0.00  0.00    -0.083 Cl
ATOM     35  F   UNL     1      -7.872  -1.404  -3.714  0.00  0.00    -0.205 F 
ENDBRANCH  27  28
ENDBRANCH  26  27
ENDBRANCH  23  26
ENDBRANCH  10  20
BRANCH   8  36
ATOM     36  N   UNL     1      -5.089  -9.508   3.236  0.00  0.00    -0.328 N 
ATOM     37  H   UNL     1      -5.020 -10.466   3.101  0.00  0.00    +0.145 HD
ATOM     38  H   UNL     1      -5.573  -9.160   4.001  0.00  0.00    +0.145 HD
ENDBRANCH   8  36
BRANCH   9  39
ATOM     39  C   UNL     1      -5.348  -6.877   3.722  0.00  0.00    +0.101 C 
ATOM     40  N   UNL     1      -5.925  -6.527   4.636  0.00  0.00    -0.191 NA
ENDBRANCH   9  39
TORSDOF 9
