REMARK  Name = ZINC33659710
REMARK  7 active torsions:
REMARK  status: ('A' for Active; 'I' for Inactive)
REMARK    1  A    between atoms: C_1  and  C_2
REMARK    2  A    between atoms: C_4  and  C_15
REMARK    3  A    between atoms: C_5  and  C_14
REMARK    4  A    between atoms: N_6  and  C_7
REMARK    5  A    between atoms: N_16  and  N_17
REMARK    6  A    between atoms: C_18  and  C_20
REMARK    7  A    between atoms: C_29  and  O_30
REMARK                            x       y       z     vdW  Elec       q    Type
REMARK                         _______ _______ _______ _____ _____    ______ ____
ROOT
ATOM      1  C   UNL     1       0.041  -3.384  -1.463  0.00  0.00    +0.140 C 
ATOM      2  N   UNL     1       0.059  -4.556  -0.904  0.00  0.00    -0.187 NA
ENDROOT
BRANCH   1   6
ATOM      3  C   UNL     1      -0.018   1.503   0.010  0.00  0.00    +0.064 C 
ATOM      4  C   UNL     1       0.002  -0.004   0.002  0.00  0.00    +0.022 A 
ATOM      5  C   UNL     1       0.008  -0.781  -1.097  0.00  0.00    +0.032 A 
ATOM      6  C   UNL     1       0.029  -2.170  -0.628  0.00  0.00    +0.016 A 
ATOM      7  C   UNL     1       0.034  -2.113   0.736  0.00  0.00    +0.030 A 
ATOM      8  N   UNL     1       0.024  -0.804   1.109  0.00  0.00    -0.316 N 
ATOM      9  C   UNL     1       0.054  -3.296   1.669  0.00  0.00    +0.064 C 
BRANCH   8  10
ATOM     10  C   UNL     1       0.030  -0.345   2.433  0.00  0.00    +0.065 A 
ATOM     11  C   UNL     1      -1.168  -0.139   3.104  0.00  0.00    +0.027 A 
ATOM     12  C   UNL     1      -1.159   0.313   4.409  0.00  0.00    +0.002 A 
ATOM     13  C   UNL     1       0.042   0.561   5.048  0.00  0.00    +0.002 A 
ATOM     14  C   UNL     1       1.237   0.358   4.383  0.00  0.00    +0.022 A 
ATOM     15  C   UNL     1       1.235  -0.100   3.079  0.00  0.00    +0.065 A 
ATOM     16 CL   UNL     1       2.736  -0.362   2.247  0.00  0.00    -0.081 Cl
ENDBRANCH   8  10
ENDBRANCH   1   6
BRANCH   2  17
ATOM     17  N   UNL     1       0.071  -5.711  -1.697  0.00  0.00    -0.203 N 
ATOM     18  C   UNL     1       0.089  -6.927  -1.117  0.00  0.00    +0.267 C 
ATOM     19  O   UNL     1       0.096  -7.022   0.096  0.00  0.00    -0.268 OA
ATOM     20  H   UNL     1       0.066  -5.635  -2.664  0.00  0.00    +0.178 HD
BRANCH  18  21
ATOM     21  C   UNL     1       0.102  -8.143  -1.952  0.00  0.00    +0.080 A 
ATOM     22  C   UNL     1       0.100  -8.029  -3.333  0.00  0.00    +0.025 A 
ATOM     23  C   UNL     1       0.112  -9.188  -4.122  0.00  0.00    -0.017 A 
ATOM     24  C   UNL     1       0.111  -9.110  -5.527  0.00  0.00    +0.008 A 
ATOM     25  C   UNL     1       0.123 -10.253  -6.265  0.00  0.00    +0.001 A 
ATOM     26  C   UNL     1       0.135 -11.504  -5.650  0.00  0.00    +0.001 A 
ATOM     27  C   UNL     1       0.136 -11.620  -4.294  0.00  0.00    +0.008 A 
ATOM     28  C   UNL     1       0.125 -10.462  -3.496  0.00  0.00    -0.014 A 
ATOM     29  C   UNL     1       0.127 -10.550  -2.094  0.00  0.00    +0.054 A 
ATOM     30  C   UNL     1       0.121  -9.414  -1.340  0.00  0.00    +0.130 A 
BRANCH  30  31
ATOM     31  O   UNL     1       0.129  -9.507   0.014  0.00  0.00    -0.506 OA
ATOM     32  H   UNL     1      -0.753  -9.545   0.411  0.00  0.00    +0.292 HD
ENDBRANCH  30  31
ENDBRANCH  18  21
ENDBRANCH   2  17
TORSDOF 5
