REMARK  Name = ZINC23273594
REMARK  8 active torsions:
REMARK  status: ('A' for Active; 'I' for Inactive)
REMARK    1  A    between atoms: C_1  and  C_2
REMARK    2  A    between atoms: C_2  and  C_28
REMARK    3  A    between atoms: N_5  and  C_9
REMARK    4  A    between atoms: C_9  and  C_10
REMARK    5  A    between atoms: N_12  and  C_13
REMARK    6  A    between atoms: C_13  and  C_15
REMARK    7  A    between atoms: C_13  and  C_22
REMARK    8  A    between atoms: C_15  and  C_16
REMARK                            x       y       z     vdW  Elec       q    Type
REMARK                         _______ _______ _______ _____ _____    ______ ____
ROOT
ATOM      1  C   UNL     1       1.617   3.261  -0.489  0.00  0.00    +0.231 C 
ATOM      2  O   UNL     1       0.715   3.947  -0.921  0.00  0.00    -0.274 OA
ATOM      3  N   UNL     1       1.356   2.033   0.000  0.00  0.00    -0.307 N 
ATOM      4  H   UNL     1       2.174   1.411   0.392  0.00  0.00    +0.149 HD
ENDROOT
BRANCH   1   5
ATOM      5  C   UNL     1       3.031   3.783  -0.500  0.00  0.00    +0.213 C 
BRANCH   5  10
ATOM      6  C   UNL     1       4.183   8.303  -1.049  0.00  0.00    +0.047 C 
ATOM      7  C   UNL     1       2.993   7.395  -1.363  0.00  0.00    +0.135 C 
ATOM      8  C   UNL     1       2.907   6.262  -0.360  0.00  0.00    +0.251 C 
ATOM      9  O   UNL     1       2.743   6.355   0.837  0.00  0.00    -0.272 OA
ATOM     10  N   UNL     1       3.050   5.129  -1.077  0.00  0.00    -0.215 N 
ATOM     11  C   UNL     1       3.218   5.387  -2.379  0.00  0.00    +0.310 C 
ATOM     12  O   UNL     1       3.372   4.527  -3.223  0.00  0.00    -0.252 OA
ATOM     13  N   UNL     1       3.194   6.705  -2.649  0.00  0.00    -0.281 N 
ATOM     14  H   UNL     1       3.289   7.287  -3.577  0.00  0.00    +0.152 HD
BRANCH   7  15
ATOM     15  C   UNL     1       1.710   8.186  -1.381  0.00  0.00    -0.015 A 
ATOM     16  C   UNL     1       0.942   8.281  -0.236  0.00  0.00    +0.007 A 
ATOM     17  C   UNL     1      -0.232   9.011  -0.250  0.00  0.00    +0.020 A 
ATOM     18  C   UNL     1      -0.643   9.638  -1.413  0.00  0.00    +0.041 A 
ATOM     19  C   UNL     1       0.124   9.537  -2.561  0.00  0.00    +0.020 A 
ATOM     20  C   UNL     1       1.300   8.812  -2.544  0.00  0.00    +0.007 A 
ATOM     21 CL   UNL     1      -2.120  10.550  -1.433  0.00  0.00    -0.084 Cl
ENDBRANCH   7  15
ENDBRANCH   5  10
ENDBRANCH   1   5
BRANCH   3  22
ATOM     22  C   UNL     1      -0.019   1.526   0.010  0.00  0.00    +0.107 C 
BRANCH  22  23
ATOM     23  C   UNL     1      -0.724   2.012   1.250  0.00  0.00    -0.027 A 
ATOM     24  C   UNL     1      -0.054   2.043   2.459  0.00  0.00    +0.005 A 
ATOM     25  C   UNL     1      -0.700   2.494   3.595  0.00  0.00    +0.000 A 
ATOM     26  C   UNL     1      -2.018   2.903   3.525  0.00  0.00    +0.000 A 
ATOM     27  C   UNL     1      -2.690   2.866   2.317  0.00  0.00    +0.000 A 
ATOM     28  C   UNL     1      -2.043   2.421   1.180  0.00  0.00    +0.005 A 
ENDBRANCH  22  23
BRANCH  22  29
ATOM     29  C   UNL     1       0.002  -0.004   0.002  0.00  0.00    +0.062 C 
BRANCH  29  30
ATOM     30  C   UNL     1       0.597  -0.491  -1.294  0.00  0.00    -0.045 A 
ATOM     31  C   UNL     1      -0.221  -0.732  -2.382  0.00  0.00    +0.004 A 
ATOM     32  C   UNL     1       0.326  -1.174  -3.573  0.00  0.00    +0.000 A 
ATOM     33  C   UNL     1       1.688  -1.385  -3.672  0.00  0.00    +0.000 A 
ATOM     34  C   UNL     1       2.505  -1.150  -2.582  0.00  0.00    +0.000 A 
ATOM     35  C   UNL     1       1.960  -0.703  -1.393  0.00  0.00    +0.004 A 
ENDBRANCH  29  30
ENDBRANCH  22  29
ENDBRANCH   3  22
TORSDOF 7
