REMARK  Name = ZINC04118919
REMARK  6 active torsions:
REMARK  status: ('A' for Active; 'I' for Inactive)
REMARK    1  A    between atoms: C_1  and  C_2
REMARK    2  A    between atoms: N_16  and  C_17
REMARK    3  A    between atoms: C_20  and  O_25
REMARK    4  A    between atoms: C_21  and  O_23
REMARK    5  A    between atoms: O_23  and  C_24
REMARK    6  A    between atoms: O_25  and  C_26
REMARK                            x       y       z     vdW  Elec       q    Type
REMARK                         _______ _______ _______ _____ _____    ______ ____
ROOT
ATOM      1  C   UNL     1      -0.766   1.622  -0.936  0.00  0.00    +0.079 C 
ATOM      2  C   UNL     1      -0.268   0.237  -0.517  0.00  0.00    +0.185 C 
ATOM      3  C   UNL     1       0.226  -0.523  -1.757  0.00  0.00    +0.096 C 
ATOM      4  C   UNL     1       0.585  -1.944  -1.294  0.00  0.00    +0.114 C 
ATOM      5  C   UNL     1       1.574  -1.835  -0.155  0.00  0.00    +0.015 A 
ATOM      6  C   UNL     1       2.414  -2.903   0.107  0.00  0.00    +0.009 A 
ATOM      7  C   UNL     1       3.322  -2.833   1.146  0.00  0.00    +0.001 A 
ATOM      8  C   UNL     1       3.392  -1.693   1.926  0.00  0.00    +0.004 A 
ATOM      9  C   UNL     1       2.558  -0.625   1.666  0.00  0.00    +0.046 A 
ATOM     10  C   UNL     1       1.643  -0.691   0.619  0.00  0.00    +0.128 A 
ATOM     11  O   UNL     1       0.818   0.381   0.394  0.00  0.00    -0.468 OA
ATOM     12  N   UNL     1      -0.644  -2.565  -0.773  0.00  0.00    -0.292 N 
ATOM     13  C   UNL     1      -1.526  -1.822  -0.084  0.00  0.00    +0.310 C 
ATOM     14  O   UNL     1      -2.504  -2.365   0.393  0.00  0.00    -0.252 OA
ATOM     15  N   UNL     1      -1.365  -0.508   0.093  0.00  0.00    -0.216 N 
ATOM     16  H   UNL     1      -0.816  -3.508  -0.926  0.00  0.00    +0.151 HD
ENDROOT
BRANCH  15  17
ATOM     17  C   UNL     1      -2.290   0.178   0.893  0.00  0.00    +0.045 A 
ATOM     18  C   UNL     1      -2.002   0.426   2.229  0.00  0.00    +0.027 A 
ATOM     19  C   UNL     1      -2.913   1.102   3.019  0.00  0.00    +0.051 A 
ATOM     20  C   UNL     1      -4.114   1.533   2.480  0.00  0.00    +0.162 A 
ATOM     21  C   UNL     1      -4.405   1.286   1.142  0.00  0.00    +0.163 A 
ATOM     22  C   UNL     1      -3.490   0.613   0.349  0.00  0.00    +0.073 A 
BRANCH  21  23
ATOM     23  O   UNL     1      -5.584   1.708   0.612  0.00  0.00    -0.491 OA
ATOM     24  C   UNL     1      -5.815   1.420  -0.768  0.00  0.00    +0.277 C 
ENDBRANCH  21  23
BRANCH  20  25
ATOM     25  O   UNL     1      -5.010   2.198   3.259  0.00  0.00    -0.491 OA
ATOM     26  C   UNL     1      -4.646   2.417   4.624  0.00  0.00    +0.277 C 
ENDBRANCH  20  25
ENDBRANCH  15  17
TORSDOF 3
