REMARK  Name = ZINC08997297
REMARK  7 active torsions:
REMARK  status: ('A' for Active; 'I' for Inactive)
REMARK    1  A    between atoms: C_1  and  C_2
REMARK    2  A    between atoms: C_4  and  C_31
REMARK    3  A    between atoms: C_5  and  N_9
REMARK    4  A    between atoms: C_6  and  C_8
REMARK    5  A    between atoms: C_10  and  C_12
REMARK    6  A    between atoms: C_13  and  N_30
REMARK    7  A    between atoms: C_15  and  C_25
REMARK                            x       y       z     vdW  Elec       q    Type
REMARK                         _______ _______ _______ _____ _____    ______ ____
ROOT
ATOM      1  C   UNL     1       2.681   4.257  -1.217  0.00  0.00    +0.097 A 
ATOM      2  C   UNL     1       2.870   2.940  -1.584  0.00  0.00    +0.054 A 
ATOM      3  C   UNL     1       1.912   1.952  -1.125  0.00  0.00    +0.040 A 
ATOM      4  C   UNL     1       1.889   0.546  -1.366  0.00  0.00    +0.034 A 
ATOM      5  C   UNL     1       0.858  -0.226  -0.821  0.00  0.00    -0.015 A 
ATOM      6  C   UNL     1      -0.118   0.375  -0.057  0.00  0.00    +0.046 A 
ATOM      7  N   UNL     1      -0.083   1.685   0.159  0.00  0.00    -0.244 NA
ATOM      8  C   UNL     1       0.860   2.458  -0.330  0.00  0.00    +0.112 A 
ATOM      9  S   UNL     1       1.194   4.199  -0.236  0.00  0.00    -0.062 S 
ATOM     10  C   UNL     1      -1.249  -0.400   0.568  0.00  0.00    +0.056 C 
ATOM     11  C   UNL     1      -1.402  -1.763  -0.104  0.00  0.00    +0.006 C 
ATOM     12  C   UNL     1      -0.031  -2.449  -0.122  0.00  0.00    +0.005 C 
ATOM     13  C   UNL     1       0.867  -1.705  -1.108  0.00  0.00    +0.038 C 
ENDROOT
BRANCH   4  14
ATOM     14  C   UNL     1       2.941  -0.087  -2.181  0.00  0.00    +0.136 A 
ATOM     15  C   UNL     1       2.777  -0.619  -3.425  0.00  0.00    +0.050 A 
ATOM     16  C   UNL     1       4.035  -1.110  -3.824  0.00  0.00    +0.042 A 
ATOM     17  C   UNL     1       4.896  -0.858  -2.817  0.00  0.00    +0.196 A 
ATOM     18  O   UNL     1       4.233  -0.235  -1.829  0.00  0.00    -0.463 OA
ENDBRANCH   4  14
BRANCH   1  20
ATOM     19  N   UNL     1       3.131   6.604  -1.090  0.00  0.00    -0.281 N 
ATOM     20  C   UNL     1       3.475   5.382  -1.543  0.00  0.00    +0.257 C 
ATOM     21  O   UNL     1       4.471   5.247  -2.232  0.00  0.00    -0.269 OA
ATOM     22  H   UNL     1       2.383   6.702  -0.479  0.00  0.00    +0.155 HD
BRANCH  19  27
ATOM     23  C   UNL     1       6.050  11.174  -2.754  0.00  0.00    +0.044 C 
ATOM     24  C   UNL     1       5.274   9.960  -2.312  0.00  0.00    -0.050 A 
ATOM     25  C   UNL     1       3.907   9.905  -2.509  0.00  0.00    +0.008 A 
ATOM     26  C   UNL     1       3.193   8.794  -2.105  0.00  0.00    -0.029 A 
ATOM     27  C   UNL     1       3.850   7.731  -1.500  0.00  0.00    +0.040 A 
ATOM     28  C   UNL     1       5.223   7.791  -1.299  0.00  0.00    -0.029 A 
ATOM     29  C   UNL     1       5.932   8.902  -1.710  0.00  0.00    +0.008 A 
ATOM     30  C   UNL     1       5.940   6.642  -0.638  0.00  0.00    +0.045 C 
ATOM     31  C   UNL     1       1.702   8.736  -2.320  0.00  0.00    +0.045 C 
ENDBRANCH  19  27
ENDBRANCH   1  20
BRANCH   2  32
ATOM     32  N   UNL     1       3.952   2.570  -2.372  0.00  0.00    -0.356 N 
ATOM     33  H   UNL     1       4.005   1.670  -2.731  0.00  0.00    +0.142 HD
ATOM     34  H   UNL     1       4.655   3.210  -2.564  0.00  0.00    +0.142 HD
ENDBRANCH   2  32
TORSDOF 4
