REMARK  Name = ZINC59008230
REMARK  6 active torsions:
REMARK  status: ('A' for Active; 'I' for Inactive)
REMARK    1  A    between atoms: C_1  and  C_2
REMARK    2  A    between atoms: C_2  and  C_24
REMARK    3  A    between atoms: N_5  and  C_9
REMARK    4  A    between atoms: C_9  and  C_10
REMARK    5  A    between atoms: N_15  and  C_18
REMARK    6  A    between atoms: C_18  and  C_19
REMARK                            x       y       z     vdW  Elec       q    Type
REMARK                         _______ _______ _______ _____ _____    ______ ____
ROOT
ATOM      1  C   UNL     1      -0.019   1.526   0.010  0.00  0.00    +0.047 C 
ATOM      2  C   UNL     1       0.002  -0.004   0.002  0.00  0.00    +0.135 C 
ATOM      3  C   UNL     1       0.815  -0.520  -1.169  0.00  0.00    +0.251 C 
ATOM      4  O   UNL     1       0.595  -0.342  -2.348  0.00  0.00    -0.272 OA
ATOM      5  N   UNL     1       1.833  -1.217  -0.627  0.00  0.00    -0.215 N 
ATOM      6  C   UNL     1       1.777  -1.214   0.710  0.00  0.00    +0.310 C 
ATOM      7  O   UNL     1       2.586  -1.776   1.421  0.00  0.00    -0.252 OA
ATOM      8  N   UNL     1       0.724  -0.519   1.178  0.00  0.00    -0.281 N 
ATOM      9  H   UNL     1       0.487  -0.383   2.109  0.00  0.00    +0.152 HD
ENDROOT
BRANCH   2  10
ATOM     10  C   UNL     1      -1.401  -0.551  -0.040  0.00  0.00    -0.015 A 
ATOM     11  C   UNL     1      -2.004  -0.815  -1.256  0.00  0.00    +0.007 A 
ATOM     12  C   UNL     1      -3.291  -1.317  -1.295  0.00  0.00    +0.020 A 
ATOM     13  C   UNL     1      -3.976  -1.556  -0.117  0.00  0.00    +0.041 A 
ATOM     14  C   UNL     1      -3.372  -1.293   1.100  0.00  0.00    +0.020 A 
ATOM     15  C   UNL     1      -2.083  -0.796   1.137  0.00  0.00    +0.007 A 
ATOM     16 CL   UNL     1      -5.593  -2.186  -0.165  0.00  0.00    -0.084 Cl
ENDBRANCH   2  10
BRANCH   5  17
ATOM     17  C   UNL     1       2.871  -1.896  -1.406  0.00  0.00    +0.213 C 
BRANCH  17  18
ATOM     18  C   UNL     1       4.020  -0.950  -1.644  0.00  0.00    +0.234 C 
ATOM     19  O   UNL     1       3.975   0.180  -1.206  0.00  0.00    -0.274 OA
ATOM     20  N   UNL     1       5.097  -1.360  -2.343  0.00  0.00    -0.298 N 
ATOM     21  C   UNL     1       5.169  -2.724  -2.888  0.00  0.00    +0.123 C 
ATOM     22  C   UNL     1       6.500  -3.350  -2.458  0.00  0.00    +0.104 C 
ATOM     23  N   UNL     1       7.604  -2.464  -2.853  0.00  0.00    -0.295 NA
ATOM     24  C   UNL     1       7.521  -1.170  -2.164  0.00  0.00    +0.104 C 
ATOM     25  C   UNL     1       6.229  -0.452  -2.586  0.00  0.00    +0.123 C 
BRANCH  23  26
ATOM     26  C   UNL     1       8.904  -3.105  -2.615  0.00  0.00    +0.127 C 
BRANCH  26  27
ATOM     27  C   UNL     1       9.994  -2.281  -3.251  0.00  0.00    +0.004 A 
ATOM     28  C   UNL     1      10.722  -1.270  -2.717  0.00  0.00    +0.012 A 
ATOM     29  C   UNL     1      11.681  -0.651  -3.496  0.00  0.00    +0.008 A 
ATOM     30  C   UNL     1      11.867  -1.073  -4.770  0.00  0.00    +0.045 A 
ATOM     31  S   UNL     1      10.667  -2.389  -4.901  0.00  0.00    -0.100 S 
ENDBRANCH  26  27
ENDBRANCH  23  26
ENDBRANCH  17  18
ENDBRANCH   5  17
TORSDOF 5
