REMARK  Name = ZINC20018992
REMARK  4 active torsions:
REMARK  status: ('A' for Active; 'I' for Inactive)
REMARK    1  A    between atoms: C_4  and  C_7
REMARK    2  A    between atoms: C_7  and  C_9
REMARK    3  A    between atoms: C_7  and  N_14
REMARK    4  A    between atoms: C_15  and  C_17
REMARK                            x       y       z     vdW  Elec       q    Type
REMARK                         _______ _______ _______ _____ _____    ______ ____
ROOT
ATOM      1  N   UNL     1       3.541   3.345  -0.905  0.00  0.00    -0.299 N 
ATOM      2  C   UNL     1       4.637   3.887  -1.473  0.00  0.00    +0.265 C 
ATOM      3  O   UNL     1       5.733   3.410  -1.255  0.00  0.00    -0.268 OA
ATOM      4  H   UNL     1       2.549   3.776  -1.103  0.00  0.00    +0.150 HD
ENDROOT
BRANCH   2   5
ATOM      5  C   UNL     1       4.505   5.064  -2.365  0.00  0.00    +0.144 A 
ATOM      6  C   UNL     1       5.652   5.628  -2.950  0.00  0.00    +0.144 A 
ATOM      7  N   UNL     1       5.553   6.666  -3.747  0.00  0.00    -0.251 NA
ATOM      8  C   UNL     1       4.352   7.201  -3.996  0.00  0.00    +0.089 A 
ATOM      9  C   UNL     1       4.217   8.316  -4.840  0.00  0.00    +0.030 A 
ATOM     10  C   UNL     1       2.984   8.839  -5.077  0.00  0.00    +0.002 A 
ATOM     11  C   UNL     1       1.844   8.286  -4.494  0.00  0.00    +0.002 A 
ATOM     12  C   UNL     1       1.933   7.206  -3.671  0.00  0.00    +0.030 A 
ATOM     13  C   UNL     1       3.192   6.636  -3.401  0.00  0.00    +0.090 A 
ATOM     14  N   UNL     1       3.310   5.578  -2.599  0.00  0.00    -0.239 NA
ENDBRANCH   2   5
BRANCH   1  15
ATOM     15  C   UNL     1       3.672   2.182  -0.024  0.00  0.00    +0.140 C 
BRANCH  15  19
ATOM     16  C   UNL     1       0.002  -0.004   0.002  0.00  0.00    +0.000 A 
ATOM     17  C   UNL     1      -0.017   1.378   0.010  0.00  0.00    +0.000 A 
ATOM     18  C   UNL     1       1.171   2.086   0.002  0.00  0.00    +0.006 A 
ATOM     19  C   UNL     1       2.377   1.411  -0.015  0.00  0.00    -0.022 A 
ATOM     20  C   UNL     1       2.396   0.029  -0.022  0.00  0.00    +0.006 A 
ATOM     21  C   UNL     1       1.208  -0.679  -0.013  0.00  0.00    +0.000 A 
ENDBRANCH  15  19
BRANCH  15  22
ATOM     22  C   UNL     1       3.991   2.644   1.374  0.00  0.00    +0.014 A 
ATOM     23  C   UNL     1       4.849   2.108   2.276  0.00  0.00    +0.013 A 
ATOM     24  C   UNL     1       4.984   2.708   3.513  0.00  0.00    +0.008 A 
ATOM     25  C   UNL     1       4.253   3.816   3.789  0.00  0.00    +0.045 A 
ATOM     26  S   UNL     1       3.343   4.046   2.270  0.00  0.00    -0.099 S 
ENDBRANCH  15  22
ENDBRANCH   1  15
TORSDOF 4
