REMARK  Name = ZINC39655985
REMARK  9 active torsions:
REMARK  status: ('A' for Active; 'I' for Inactive)
REMARK    1  A    between atoms: C_1  and  C_2
REMARK    2  A    between atoms: C_2  and  C_3
REMARK    3  A    between atoms: C_2  and  C_4
REMARK    4  A    between atoms: C_4  and  C_6
REMARK    5  A    between atoms: C_4  and  N_20
REMARK    6  A    between atoms: C_6  and  O_8
REMARK    7  A    between atoms: O_8  and  C_9
REMARK    8  A    between atoms: C_9  and  C_10
REMARK    9  A    between atoms: N_12  and  C_13
REMARK                            x       y       z     vdW  Elec       q    Type
REMARK                         _______ _______ _______ _____ _____    ______ ____
ROOT
ATOM      1  C   UNL     1      -1.400  -0.531  -0.005  0.00  0.00    +0.196 C 
ENDROOT
BRANCH   1   2
ATOM      2  N   UNL     1      -1.370  -1.996  -0.018  0.00  0.00    -0.220 N 
ATOM      3  C   UNL     1      -0.806  -2.737  -0.989  0.00  0.00    +0.255 C 
ATOM      4  O   UNL     1      -0.249  -2.305  -1.977  0.00  0.00    -0.270 OA
ATOM      5  C   UNL     1      -0.976  -4.166  -0.650  0.00  0.00    +0.049 A 
ATOM      6  C   UNL     1      -0.610  -5.355  -1.259  0.00  0.00    +0.014 A 
ATOM      7  C   UNL     1      -0.933  -6.562  -0.659  0.00  0.00    +0.001 A 
ATOM      8  C   UNL     1      -1.617  -6.587   0.542  0.00  0.00    +0.001 A 
ATOM      9  C   UNL     1      -1.990  -5.405   1.163  0.00  0.00    +0.014 A 
ATOM     10  C   UNL     1      -1.674  -4.191   0.575  0.00  0.00    +0.049 A 
ATOM     11  C   UNL     1      -1.899  -2.777   0.941  0.00  0.00    +0.255 C 
ATOM     12  O   UNL     1      -2.468  -2.385   1.940  0.00  0.00    -0.270 OA
ENDBRANCH   1   2
BRANCH   1  14
ATOM     13  C   UNL     1       0.001   1.538  -0.002  0.00  0.00    +0.009 C 
ATOM     14  C   UNL     1       0.032   0.008  -0.015  0.00  0.00    +0.015 C 
ATOM     15  C   UNL     1       0.776  -0.498   1.222  0.00  0.00    +0.009 C 
ENDBRANCH   1  14
BRANCH   1  16
ATOM     16  C   UNL     1      -2.134  -0.033  -1.223  0.00  0.00    +0.329 C 
ATOM     17  O   UNL     1      -2.585  -0.820  -2.021  0.00  0.00    -0.249 OA
BRANCH  16  18
ATOM     18  O   UNL     1      -2.285   1.286  -1.422  0.00  0.00    -0.454 OA
BRANCH  18  19
ATOM     19  C   UNL     1      -2.991   1.688  -2.598  0.00  0.00    +0.328 C 
BRANCH  19  20
ATOM     20  C   UNL     1      -3.062   3.192  -2.652  0.00  0.00    +0.255 C 
ATOM     21  O   UNL     1      -2.557   3.855  -1.771  0.00  0.00    -0.272 OA
ATOM     22  N   UNL     1      -3.686   3.801  -3.680  0.00  0.00    -0.282 N 
ATOM     23  H   UNL     1      -4.032   3.274  -4.418  0.00  0.00    +0.155 HD
BRANCH  22  24
ATOM     24  C   UNL     1      -3.834   5.192  -3.684  0.00  0.00    +0.048 A 
ATOM     25  C   UNL     1      -2.842   5.999  -3.143  0.00  0.00    +0.024 A 
ATOM     26  C   UNL     1      -2.990   7.372  -3.148  0.00  0.00    +0.002 A 
ATOM     27  C   UNL     1      -4.126   7.944  -3.691  0.00  0.00    +0.001 A 
ATOM     28  C   UNL     1      -5.117   7.144  -4.231  0.00  0.00    +0.017 A 
ATOM     29  C   UNL     1      -4.971   5.770  -4.234  0.00  0.00    +0.039 A 
ATOM     30 BR   UNL     1      -6.323   4.677  -4.979  0.00  0.00    -0.048 Br
ENDBRANCH  22  24
ENDBRANCH  19  20
ENDBRANCH  18  19
ENDBRANCH  16  18
ENDBRANCH   1  16
TORSDOF 7
