REMARK  Name = ZINC57898429
REMARK  7 active torsions:
REMARK  status: ('A' for Active; 'I' for Inactive)
REMARK    1  A    between atoms: C_1  and  C_2
REMARK    2  A    between atoms: C_2  and  C_3
REMARK    3  A    between atoms: C_2  and  O_4
REMARK    4  A    between atoms: O_4  and  C_5
REMARK    5  A    between atoms: C_8  and  C_12
REMARK    6  A    between atoms: C_10  and  N_11
REMARK    7  A    between atoms: C_13  and  C_14
REMARK                            x       y       z     vdW  Elec       q    Type
REMARK                         _______ _______ _______ _____ _____    ______ ____
ROOT
ATOM      1  C   UNL     1      -1.645  -1.394  -1.657  0.00  0.00    +0.141 A 
ATOM      2  C   UNL     1      -2.338  -2.178  -0.746  0.00  0.00    +0.048 A 
ATOM      3  C   UNL     1      -2.444  -3.538  -0.940  0.00  0.00    +0.011 A 
ATOM      4  C   UNL     1      -1.852  -4.133  -2.059  0.00  0.00    -0.023 A 
ATOM      5  C   UNL     1      -1.153  -3.344  -2.979  0.00  0.00    +0.034 A 
ATOM      6  C   UNL     1      -1.055  -1.979  -2.780  0.00  0.00    +0.067 A 
ENDROOT
BRANCH   6   7
ATOM      7  N   UNL     1      -0.361  -1.185  -3.700  0.00  0.00    -0.355 N 
ATOM      8  H   UNL     1      -0.290  -0.228  -3.558  0.00  0.00    +0.142 HD
ATOM      9  H   UNL     1       0.048  -1.591  -4.480  0.00  0.00    +0.142 HD
ENDBRANCH   6   7
BRANCH   4  10
ATOM     10  C   UNL     1      -1.964  -5.584  -2.268  0.00  0.00    +0.013 C 
ATOM     11  C   UNL     1      -0.872  -6.303  -2.605  0.00  0.00    +0.068 C 
BRANCH  11  12
ATOM     12  C   UNL     1       0.456  -5.695  -2.531  0.00  0.00    +0.239 C 
ATOM     13  O   UNL     1       0.592  -4.588  -2.045  0.00  0.00    -0.271 OA
ATOM     14  N   UNL     1       1.529  -6.361  -3.002  0.00  0.00    -0.298 N 
ATOM     15  C   UNL     1       1.333  -7.672  -3.580  0.00  0.00    +0.108 C 
ATOM     16  C   UNL     1       1.443  -8.749  -2.473  0.00  0.00    +0.019 C 
ATOM     17  C   UNL     1       2.838  -8.883  -2.027  0.00  0.00    +0.002 C 
ATOM     18  C   UNL     1       3.418  -7.624  -1.389  0.00  0.00    +0.002 C 
ATOM     19  C   UNL     1       3.948  -6.714  -2.469  0.00  0.00    +0.019 C 
ATOM     20  C   UNL     1       2.855  -5.719  -2.913  0.00  0.00    +0.108 C 
ENDBRANCH  11  12
ENDBRANCH   4  10
BRANCH   1  21
ATOM     21  O   UNL     1      -1.544  -0.054  -1.460  0.00  0.00    -0.488 OA
BRANCH  21  23
ATOM     22  C   UNL     1      -1.213   1.664   0.206  0.00  0.00    +0.051 C 
ATOM     23  C   UNL     1      -2.051   0.460  -0.227  0.00  0.00    +0.167 C 
ATOM     24  C   UNL     1      -3.506   0.893  -0.416  0.00  0.00    +0.051 C 
ENDBRANCH  21  23
ENDBRANCH   1  21
TORSDOF 5
