REMARK  Name = ZINC34461890
REMARK  7 active torsions:
REMARK  status: ('A' for Active; 'I' for Inactive)
REMARK    1  A    between atoms: C_1  and  C_2
REMARK    2  A    between atoms: C_6  and  C_8
REMARK    3  A    between atoms: C_16  and  O_28
REMARK    4  A    between atoms: C_17  and  O_26
REMARK    5  A    between atoms: C_23  and  N_25
REMARK    6  A    between atoms: O_26  and  C_27
REMARK    7  A    between atoms: O_28  and  C_29
REMARK                            x       y       z     vdW  Elec       q    Type
REMARK                         _______ _______ _______ _____ _____    ______ ____
ROOT
ATOM      1  C   UNL     1       0.051  -2.890   2.426  0.00  0.00    +0.007 C 
ATOM      2  C   UNL     1      -0.781  -2.160   3.484  0.00  0.00    -0.070 C 
ATOM      3  N   UNL     1      -0.758  -2.926   4.735  0.00  0.00    +0.385 N 
ATOM      4  C   UNL     1      -1.623  -2.284   5.733  0.00  0.00    -0.073 C 
ATOM      5  C   UNL     1      -1.829  -3.254   6.898  0.00  0.00    +0.017 C 
ATOM      6  C   UNL     1      -0.497  -3.776   7.373  0.00  0.00    -0.044 A 
ATOM      7  C   UNL     1      -0.430  -4.387   8.616  0.00  0.00    +0.053 A 
ATOM      8  C   UNL     1       0.773  -4.882   9.088  0.00  0.00    +0.162 A 
ATOM      9  C   UNL     1       1.920  -4.765   8.308  0.00  0.00    +0.162 A 
ATOM     10  C   UNL     1       1.848  -4.154   7.069  0.00  0.00    +0.051 A 
ATOM     11  C   UNL     1       0.640  -3.656   6.601  0.00  0.00    -0.054 A 
ATOM     12  C   UNL     1       0.610  -2.990   5.253  0.00  0.00    -0.039 C 
ATOM     13  C   UNL     1       1.495  -3.759   4.269  0.00  0.00    -0.026 C 
ATOM     14  C   UNL     1       1.493  -3.031   2.921  0.00  0.00    -0.069 C 
ATOM     15  H   UNL     1      -1.094  -3.862   4.561  0.00  0.00    -0.081 HD
ENDROOT
BRANCH   1  21
ATOM     16  C   UNL     1      -0.018   1.503   0.010  0.00  0.00    +0.044 C 
ATOM     17  C   UNL     1       0.002  -0.004   0.002  0.00  0.00    -0.047 A 
ATOM     18  C   UNL     1       0.006  -0.707  -1.193  0.00  0.00    +0.023 A 
ATOM     19  C   UNL     1       0.025  -2.089  -1.161  0.00  0.00    +0.111 A 
ATOM     20  N   UNL     1       0.039  -2.737  -0.013  0.00  0.00    -0.260 NA
ATOM     21  C   UNL     1       0.035  -2.101   1.142  0.00  0.00    +0.041 A 
ATOM     22  C   UNL     1       0.023  -0.720   1.189  0.00  0.00    +0.026 A 
ENDBRANCH   1  21
BRANCH  14  23
ATOM     23  N   UNL     1       2.273  -3.803   1.945  0.00  0.00    +0.380 N 
ATOM     24  H   UNL     1       2.268  -3.325   1.057  0.00  0.00    -0.090 HD
ATOM     25  H   UNL     1       3.223  -3.896   2.272  0.00  0.00    -0.090 HD
ATOM     26  H   UNL     1       1.864  -4.719   1.837  0.00  0.00    -0.090 HD
ENDBRANCH  14  23
BRANCH   9  27
ATOM     27  O   UNL     1       3.107  -5.249   8.762  0.00  0.00    -0.491 OA
ATOM     28  C   UNL     1       4.241  -5.094   7.907  0.00  0.00    +0.277 C 
ENDBRANCH   9  27
BRANCH   8  29
ATOM     29  O   UNL     1       0.834  -5.479  10.308  0.00  0.00    -0.491 OA
ATOM     30  C   UNL     1      -0.383  -5.562  11.052  0.00  0.00    +0.277 C 
ENDBRANCH   8  29
TORSDOF 4
