REMARK  Name = ZINC12594113
REMARK  9 active torsions:
REMARK  status: ('A' for Active; 'I' for Inactive)
REMARK    1  A    between atoms: C_1  and  C_2
REMARK    2  A    between atoms: C_5  and  C_7
REMARK    3  A    between atoms: C_7  and  N_8
REMARK    4  A    between atoms: N_8  and  C_9
REMARK    5  A    between atoms: C_10  and  C_12
REMARK    6  A    between atoms: C_12  and  C_13
REMARK    7  A    between atoms: N_20  and  C_21
REMARK    8  A    between atoms: C_21  and  C_22
REMARK    9  A    between atoms: C_25  and  C_28
REMARK                            x       y       z     vdW  Elec       q    Type
REMARK                         _______ _______ _______ _____ _____    ______ ____
ROOT
ATOM      1  C   UNL     1      -4.008  -1.764   4.983  0.00  0.00    +0.028 C 
ATOM      2  C   UNL     1      -5.434  -2.134   5.277  0.00  0.00    +0.200 C 
ATOM      3  O   UNL     1      -6.160  -2.433   4.353  0.00  0.00    -0.278 OA
ATOM      4  N   UNL     1      -5.936  -2.148   6.517  0.00  0.00    -0.318 N 
ATOM      5  C   UNL     1      -5.132  -1.831   7.695  0.00  0.00    +0.085 C 
ATOM      6  C   UNL     1      -3.860  -1.093   7.274  0.00  0.00    -0.058 C 
ATOM      7  N   UNL     1      -3.201  -1.861   6.206  0.00  0.00    +0.391 N 
ATOM      8  H   UNL     1      -6.870  -2.377   6.639  0.00  0.00    +0.149 HD
ATOM      9  H   UNL     1      -3.122  -2.828   6.483  0.00  0.00    -0.080 HD
ENDROOT
BRANCH   1  10
ATOM     10  C   UNL     1      -3.444  -2.717   3.927  0.00  0.00    +0.090 C 
BRANCH  10  13
ATOM     11  N   UNL     1      -3.081  -5.150   3.672  0.00  0.00    -0.298 N 
ATOM     12  C   UNL     1      -2.412  -4.869   2.400  0.00  0.00    +0.132 C 
ATOM     13  C   UNL     1      -3.578  -4.138   4.410  0.00  0.00    +0.215 C 
ATOM     14  O   UNL     1      -4.132  -4.371   5.464  0.00  0.00    -0.276 OA
BRANCH  11  15
ATOM     15  C   UNL     1      -3.211  -6.532   4.142  0.00  0.00    +0.170 C 
BRANCH  15  20
ATOM     16  C   UNL     1      -0.554  -6.965   8.360  0.00  0.00    +0.066 C 
ATOM     17  C   UNL     1      -0.739  -7.120   6.872  0.00  0.00    +0.046 A 
ATOM     18  C   UNL     1       0.237  -7.641   6.086  0.00  0.00    +0.070 A 
ATOM     19  S   UNL     1      -0.553  -7.567   4.487  0.00  0.00    -0.079 S 
ATOM     20  C   UNL     1      -2.013  -6.892   4.982  0.00  0.00    +0.096 A 
ATOM     21  N   UNL     1      -1.858  -6.760   6.276  0.00  0.00    -0.248 NA
ENDBRANCH  15  20
ENDBRANCH  11  15
ENDBRANCH  10  13
ENDBRANCH   1  10
BRANCH   7  22
ATOM     22  C   UNL     1      -1.864  -1.306   5.958  0.00  0.00    -0.042 C 
BRANCH  22  23
ATOM     23  C   UNL     1      -0.991  -1.542   7.164  0.00  0.00    -0.064 A 
ATOM     24  C   UNL     1      -0.947  -0.601   8.177  0.00  0.00    +0.002 A 
ATOM     25  C   UNL     1      -0.149  -0.811   9.284  0.00  0.00    +0.009 A 
ATOM     26  C   UNL     1       0.612  -1.974   9.380  0.00  0.00    -0.018 A 
ATOM     27  C   UNL     1       0.564  -2.919   8.356  0.00  0.00    +0.009 A 
ATOM     28  C   UNL     1      -0.241  -2.700   7.257  0.00  0.00    +0.002 A 
BRANCH  26  29
ATOM     29  C   UNL     1       1.472  -2.206  10.567  0.00  0.00    -0.018 A 
ATOM     30  C   UNL     1       1.516  -1.264  11.592  0.00  0.00    +0.008 A 
ATOM     31  C   UNL     1       2.317  -1.485  12.694  0.00  0.00    +0.001 A 
ATOM     32  C   UNL     1       3.075  -2.638  12.782  0.00  0.00    +0.000 A 
ATOM     33  C   UNL     1       3.036  -3.576  11.766  0.00  0.00    +0.001 A 
ATOM     34  C   UNL     1       2.233  -3.369  10.662  0.00  0.00    +0.008 A 
ENDBRANCH  26  29
ENDBRANCH  22  23
ENDBRANCH   7  22
TORSDOF 7
