REMARK  Name = ZINC16021426
REMARK  3 active torsions:
REMARK  status: ('A' for Active; 'I' for Inactive)
REMARK    1  A    between atoms: C_7  and  C_11
REMARK    2  A    between atoms: C_11  and  C_12
REMARK    3  A    between atoms: N_20  and  C_23
REMARK                            x       y       z     vdW  Elec       q    Type
REMARK                         _______ _______ _______ _____ _____    ______ ____
ROOT
ATOM      1  C   UNL     1       0.236  -3.589  -1.455  0.00  0.00    +0.072 C 
ATOM      2  C   UNL     1      -0.655  -4.849  -1.485  0.00  0.00    +0.107 C 
ATOM      3  C   UNL     1      -1.734  -4.549  -2.563  0.00  0.00    +0.122 C 
ATOM      4  C   UNL     1      -3.018  -4.503  -1.764  0.00  0.00    +0.228 C 
ATOM      5  O   UNL     1      -4.122  -4.299  -2.224  0.00  0.00    -0.275 OA
ATOM      6  N   UNL     1      -2.748  -4.723  -0.473  0.00  0.00    -0.238 N 
ATOM      7  C   UNL     1      -1.440  -4.936  -0.197  0.00  0.00    +0.227 C 
ATOM      8  O   UNL     1      -0.969  -5.157   0.898  0.00  0.00    -0.275 OA
ATOM      9  C   UNL     1      -1.383  -3.149  -3.081  0.00  0.00    +0.136 C 
ATOM     10  N   UNL     1      -0.622  -2.498  -1.988  0.00  0.00    -0.295 NA
ATOM     11  C   UNL     1      -2.614  -2.361  -3.426  0.00  0.00    +0.005 A 
ATOM     12  C   UNL     1      -3.713  -1.955  -2.703  0.00  0.00    +0.027 A 
ATOM     13  C   UNL     1      -4.714  -1.220  -3.317  0.00  0.00    +0.041 A 
ATOM     14  C   UNL     1      -4.605  -0.896  -4.658  0.00  0.00    +0.022 A 
ATOM     15  C   UNL     1      -3.505  -1.301  -5.385  0.00  0.00    +0.025 A 
ATOM     16  C   UNL     1      -2.494  -2.040  -4.775  0.00  0.00    +0.039 A 
ATOM     17  N   UNL     1      -1.303  -2.556  -5.291  0.00  0.00    -0.283 N 
ATOM     18  C   UNL     1      -0.592  -3.221  -4.359  0.00  0.00    +0.243 C 
ATOM     19  O   UNL     1       0.477  -3.770  -4.520  0.00  0.00    -0.273 OA
ATOM     20 CL   UNL     1      -6.100  -0.707  -2.407  0.00  0.00    -0.084 Cl
ATOM     21  H   UNL     1      -1.236  -2.139  -1.273  0.00  0.00    +0.124 HD
ATOM     22  H   UNL     1      -1.020  -2.448  -6.212  0.00  0.00    +0.155 HD
ENDROOT
BRANCH   6  23
ATOM     23  C   UNL     1      -3.784  -4.739   0.562  0.00  0.00    +0.084 C 
ATOM     24  C   UNL     1      -3.487  -3.654   1.599  0.00  0.00    +0.023 C 
ATOM     25  C   UNL     1      -4.569  -3.671   2.680  0.00  0.00    +0.002 C 
ATOM     26  C   UNL     1      -4.585  -5.039   3.364  0.00  0.00    +0.000 C 
ATOM     27  C   UNL     1      -4.883  -6.125   2.328  0.00  0.00    +0.002 C 
ATOM     28  C   UNL     1      -3.800  -6.107   1.247  0.00  0.00    +0.023 C 
ENDBRANCH   6  23
BRANCH   1  29
ATOM     29  C   UNL     1       0.666  -3.275  -0.021  0.00  0.00    +0.056 C 
BRANCH  29  36
ATOM     30  C   UNL     1      -0.017   1.362   0.009  0.00  0.00    +0.001 A 
ATOM     31  C   UNL     1       1.170   2.083   0.002  0.00  0.00    +0.002 A 
ATOM     32  C   UNL     1       2.386   1.436  -0.013  0.00  0.00    +0.026 A 
ATOM     33  C   UNL     1       2.428   0.046  -0.021  0.00  0.00    +0.047 A 
ATOM     34  C   UNL     1       1.223  -0.681  -0.013  0.00  0.00    +0.003 A 
ATOM     35  C   UNL     1       0.002  -0.004   0.002  0.00  0.00    +0.010 A 
ATOM     36  C   UNL     1       1.604  -2.095  -0.025  0.00  0.00    -0.021 A 
ATOM     37  C   UNL     1       2.945  -2.141  -0.038  0.00  0.00    +0.087 A 
ATOM     38  N   UNL     1       3.455  -0.871  -0.036  0.00  0.00    -0.360 N 
ATOM     39  H   UNL     1       4.399  -0.650  -0.044  0.00  0.00    +0.165 HD
ENDBRANCH  29  36
ENDBRANCH   1  29
TORSDOF 3
