REMARK  Name = ZINC25504582
REMARK  5 active torsions:
REMARK  status: ('A' for Active; 'I' for Inactive)
REMARK    1  A    between atoms: C_10  and  C_11
REMARK    2  A    between atoms: N_13  and  C_14
REMARK    3  A    between atoms: C_14  and  C_15
REMARK    4  A    between atoms: N_17  and  N_18
REMARK    5  A    between atoms: C_19  and  C_20
REMARK                            x       y       z     vdW  Elec       q    Type
REMARK                         _______ _______ _______ _____ _____    ______ ____
ROOT
ATOM      1  C   UNL     1       1.137  -1.689   0.059  0.00  0.00    +0.249 C 
ATOM      2  O   UNL     1       0.028  -2.180   0.097  0.00  0.00    -0.272 OA
ATOM      3  N   UNL     1       1.282  -0.349   0.060  0.00  0.00    -0.206 N 
ATOM      4  H   UNL     1       2.287   0.096   0.025  0.00  0.00    +0.177 HD
ENDROOT
BRANCH   3   5
ATOM      5  N   UNL     1       0.151   0.477   0.104  0.00  0.00    -0.188 NA
ATOM      6  C   UNL     1       0.291   1.771   0.105  0.00  0.00    +0.139 C 
BRANCH   6   7
ATOM      7  C   UNL     1      -0.892   2.636   0.145  0.00  0.00    +0.010 A 
ATOM      8  C   UNL     1      -0.750   4.033   0.277  0.00  0.00    -0.009 A 
ATOM      9  C   UNL     1       0.520   4.629   0.361  0.00  0.00    +0.009 A 
ATOM     10  C   UNL     1       0.622   5.979   0.482  0.00  0.00    +0.001 A 
ATOM     11  C   UNL     1      -0.506   6.798   0.521  0.00  0.00    +0.001 A 
ATOM     12  C   UNL     1      -1.761   6.285   0.439  0.00  0.00    +0.008 A 
ATOM     13  C   UNL     1      -1.937   4.891   0.313  0.00  0.00    -0.017 A 
ATOM     14  C   UNL     1      -3.213   4.332   0.226  0.00  0.00    +0.017 A 
ATOM     15  C   UNL     1      -3.362   2.951   0.101  0.00  0.00    -0.017 A 
ATOM     16  C   UNL     1      -2.185   2.080   0.059  0.00  0.00    -0.009 A 
ATOM     17  C   UNL     1      -2.372   0.693  -0.068  0.00  0.00    +0.009 A 
ATOM     18  C   UNL     1      -3.632   0.189  -0.150  0.00  0.00    +0.001 A 
ATOM     19  C   UNL     1      -4.754   1.016  -0.110  0.00  0.00    +0.001 A 
ATOM     20  C   UNL     1      -4.643   2.364   0.012  0.00  0.00    +0.008 A 
ENDBRANCH   6   7
ENDBRANCH   3   5
BRANCH   1  21
ATOM     21  C   UNL     1       2.353  -2.578   0.011  0.00  0.00    +0.202 C 
BRANCH  21  24
ATOM     22  C   UNL     1       2.857  -4.962  -0.018  0.00  0.00    +0.245 C 
ATOM     23  O   UNL     1       4.039  -4.682  -0.059  0.00  0.00    -0.270 OA
ATOM     24  N   UNL     1       1.933  -3.982   0.020  0.00  0.00    -0.303 N 
ATOM     25  H   UNL     1       0.863  -4.235   0.057  0.00  0.00    +0.150 HD
BRANCH  22  35
ATOM     26  C   UNL     1       5.243  -9.475   0.223  0.00  0.00    +0.001 A 
ATOM     27  C   UNL     1       5.666  -8.148   0.217  0.00  0.00    +0.001 A 
ATOM     28  C   UNL     1       4.767  -7.126   0.142  0.00  0.00    +0.009 A 
ATOM     29  C   UNL     1       3.397  -7.411   0.065  0.00  0.00    -0.006 A 
ATOM     30  C   UNL     1       2.965  -8.759   0.076  0.00  0.00    -0.017 A 
ATOM     31  C   UNL     1       3.920  -9.788   0.154  0.00  0.00    +0.008 A 
ATOM     32  C   UNL     1       1.591  -9.047   0.004  0.00  0.00    +0.008 A 
ATOM     33  C   UNL     1       0.683  -8.033  -0.071  0.00  0.00    +0.001 A 
ATOM     34  C   UNL     1       1.088  -6.704  -0.079  0.00  0.00    +0.013 A 
ATOM     35  C   UNL     1       2.433  -6.375  -0.009  0.00  0.00    +0.044 A 
ENDBRANCH  22  35
ENDBRANCH  21  24
ENDBRANCH   1  21
TORSDOF 5
