REMARK  Name = ZINC39747210
REMARK  5 active torsions:
REMARK  status: ('A' for Active; 'I' for Inactive)
REMARK    1  A    between atoms: C_6  and  C_10
REMARK    2  A    between atoms: C_10  and  C_33
REMARK    3  A    between atoms: C_11  and  C_12
REMARK    4  A    between atoms: C_14  and  O_25
REMARK    5  A    between atoms: O_25  and  C_26
REMARK                            x       y       z     vdW  Elec       q    Type
REMARK                         _______ _______ _______ _____ _____    ______ ____
ROOT
ATOM      1  C   UNL     1       4.754  -4.580  -2.425  0.00  0.00    +0.163 C 
ATOM      2  C   UNL     1       6.282  -4.600  -2.464  0.00  0.00    +0.308 C 
ATOM      3  N   UNL     1       6.795  -5.554  -1.483  0.00  0.00    -0.225 NA
ATOM      4  C   UNL     1       6.156  -6.659  -1.191  0.00  0.00    +0.130 C 
ATOM      5  C   UNL     1       6.742  -7.585  -0.289  0.00  0.00    +0.044 C 
ATOM      6  C   UNL     1       6.143  -8.786  -0.088  0.00  0.00    +0.005 C 
ATOM      7  C   UNL     1       4.954  -9.099  -0.772  0.00  0.00    +0.016 C 
ATOM      8  C   UNL     1       4.372  -8.191  -1.579  0.00  0.00    +0.085 C 
ATOM      9  N   UNL     1       4.926  -6.948  -1.746  0.00  0.00    -0.231 N 
ATOM     10  C   UNL     1       4.240  -5.997  -2.413  0.00  0.00    +0.237 C 
ATOM     11  O   UNL     1       3.217  -6.280  -3.000  0.00  0.00    -0.274 OA
ENDROOT
BRANCH   1  13
ATOM     12  C   UNL     1       3.534  -2.776  -1.283  0.00  0.00    +0.068 C 
ATOM     13  C   UNL     1       4.291  -3.866  -1.181  0.00  0.00    +0.010 C 
BRANCH  12  19
ATOM     14  C   UNL     1      -0.016   1.344   0.009  0.00  0.00    +0.002 A 
ATOM     15  C   UNL     1       1.158   2.118   0.002  0.00  0.00    +0.002 A 
ATOM     16  C   UNL     1       2.389   1.570  -0.013  0.00  0.00    +0.027 A 
ATOM     17  C   UNL     1       2.533   0.108  -0.022  0.00  0.00    +0.060 A 
ATOM     18  N   UNL     1       3.569  -0.680  -0.036  0.00  0.00    -0.359 N 
ATOM     19  C   UNL     1       3.071  -2.062  -0.039  0.00  0.00    +0.216 C 
ATOM     20  N   UNL     1       1.606  -1.974  -0.024  0.00  0.00    -0.359 N 
ATOM     21  C   UNL     1       1.290  -0.712  -0.014  0.00  0.00    +0.060 A 
ATOM     22  C   UNL     1       0.002  -0.004   0.002  0.00  0.00    +0.027 A 
ATOM     23  H   UNL     1       4.499  -0.405  -0.045  0.00  0.00    +0.162 HD
ATOM     24  H   UNL     1       0.987  -2.721  -0.022  0.00  0.00    +0.162 HD
ENDBRANCH  12  19
BRANCH  12  25
ATOM     25  C   UNL     1       3.160  -2.281  -2.574  0.00  0.00    +0.098 C 
ATOM     26  N   UNL     1       2.864  -1.889  -3.598  0.00  0.00    -0.191 NA
ENDBRANCH  12  25
ENDBRANCH   1  13
BRANCH   2  27
ATOM     27  O   UNL     1       6.719  -4.985  -3.769  0.00  0.00    -0.466 OA
BRANCH  27  28
ATOM     28  C   UNL     1       8.044  -4.853  -4.041  0.00  0.00    +0.124 A 
ATOM     29  C   UNL     1       8.907  -4.369  -3.069  0.00  0.00    +0.047 A 
ATOM     30  C   UNL     1      10.254  -4.235  -3.347  0.00  0.00    +0.019 A 
ATOM     31  C   UNL     1      10.741  -4.585  -4.594  0.00  0.00    +0.018 A 
ATOM     32  C   UNL     1       9.882  -5.068  -5.564  0.00  0.00    +0.019 A 
ATOM     33  C   UNL     1       8.536  -5.208  -5.288  0.00  0.00    +0.047 A 
ATOM     34 BR   UNL     1      12.585  -4.401  -4.972  0.00  0.00    -0.050 Br
ENDBRANCH  27  28
ENDBRANCH   2  27
TORSDOF 5
