REMARK  Name = ZINC09137899
REMARK  6 active torsions:
REMARK  status: ('A' for Active; 'I' for Inactive)
REMARK    1  A    between atoms: C_1  and  C_2
REMARK    2  A    between atoms: C_2  and  C_4
REMARK    3  A    between atoms: C_2  and  S_14
REMARK    4  A    between atoms: N_6  and  C_7
REMARK    5  A    between atoms: S_14  and  C_15
REMARK    6  A    between atoms: N_27  and  C_28
REMARK                            x       y       z     vdW  Elec       q    Type
REMARK                         _______ _______ _______ _____ _____    ______ ____
ROOT
ATOM      1  S   UNL     1      -1.558   2.155   0.020  0.00  0.00    -0.075 S 
ENDROOT
BRANCH   1   2
ATOM      2  C   UNL     1      -0.016   1.304  -0.003  0.00  0.00    +0.173 A 
ATOM      3  N   UNL     1      -0.002  -0.014  -0.018  0.00  0.00    -0.216 NA
ATOM      4  C   UNL     1       1.148  -0.680  -0.040  0.00  0.00    +0.117 A 
ATOM      5  C   UNL     1       2.388  -0.026  -0.049  0.00  0.00    +0.076 A 
ATOM      6  C   UNL     1       3.576  -0.895  -0.075  0.00  0.00    -0.023 A 
ATOM      7  C   UNL     1       3.359  -2.220  -0.084  0.00  0.00    -0.004 A 
ATOM      8  S   UNL     1       1.590  -2.397  -0.063  0.00  0.00    -0.073 S 
ATOM      9  C   UNL     1       4.643  -3.006  -0.106  0.00  0.00    +0.043 C 
ATOM     10  C   UNL     1       5.726  -1.993   0.325  0.00  0.00    +0.010 C 
ATOM     11  C   UNL     1       5.088  -0.655  -0.100  0.00  0.00    +0.037 C 
ATOM     12  C   UNL     1       2.344   1.404  -0.032  0.00  0.00    +0.263 A 
ATOM     13  O   UNL     1       3.375   2.055  -0.038  0.00  0.00    -0.267 OA
ATOM     14  N   UNL     1       1.147   2.019  -0.009  0.00  0.00    -0.290 N 
ATOM     15  C   UNL     1       1.091   3.482   0.008  0.00  0.00    +0.154 C 
ENDBRANCH   1   2
BRANCH   1  17
ATOM     16  C   UNL     1      -2.551  -0.018  -1.305  0.00  0.00    +0.029 C 
ATOM     17  C   UNL     1      -2.695   0.747   0.013  0.00  0.00    +0.137 C 
BRANCH  17  18
ATOM     18  C   UNL     1      -4.111   1.243   0.154  0.00  0.00    +0.230 C 
ATOM     19  O   UNL     1      -4.396   2.369  -0.196  0.00  0.00    -0.274 OA
ATOM     20  N   UNL     1      -5.060   0.436   0.668  0.00  0.00    -0.285 N 
ATOM     21  H   UNL     1      -4.847  -0.485   0.885  0.00  0.00    +0.155 HD
BRANCH  20  22
ATOM     22  C   UNL     1      -6.351   0.927   0.889  0.00  0.00    +0.033 A 
ATOM     23  C   UNL     1      -7.089   0.480   1.978  0.00  0.00    +0.024 A 
ATOM     24  C   UNL     1      -8.361   0.971   2.197  0.00  0.00    +0.017 A 
ATOM     25  C   UNL     1      -8.905   1.898   1.326  0.00  0.00    +0.018 A 
ATOM     26  C   UNL     1      -8.175   2.341   0.238  0.00  0.00    +0.017 A 
ATOM     27  C   UNL     1      -6.900   1.858   0.017  0.00  0.00    +0.024 A 
ATOM     28 BR   UNL     1     -10.650   2.563   1.626  0.00  0.00    -0.050 Br
ENDBRANCH  20  22
ENDBRANCH  17  18
ENDBRANCH   1  17
TORSDOF 4
