REMARK  Name = ZINC49095855
REMARK  5 active torsions:
REMARK  status: ('A' for Active; 'I' for Inactive)
REMARK    1  A    between atoms: C_1  and  C_2
REMARK    2  A    between atoms: C_3  and  C_19
REMARK    3  A    between atoms: N_7  and  S_8
REMARK    4  A    between atoms: S_8  and  C_11
REMARK    5  A    between atoms: C_14  and  N_18
REMARK                            x       y       z     vdW  Elec       q    Type
REMARK                         _______ _______ _______ _____ _____    ______ ____
ROOT
ATOM      1  S   UNL     1       3.739  -2.321  -0.031  0.00  0.00    +0.102 S 
ATOM      2  O   UNL     1       3.925  -1.656  -1.273  0.00  0.00    -0.146 OA
ATOM      3  O   UNL     1       3.938  -1.671   1.218  0.00  0.00    -0.146 OA
ENDROOT
BRANCH   1  10
ATOM      4  C   UNL     1      -0.018   1.503   0.010  0.00  0.00    +0.064 C 
ATOM      5  C   UNL     1       0.002  -0.004   0.002  0.00  0.00    +0.025 A 
ATOM      6  C   UNL     1      -1.144  -0.684   0.004  0.00  0.00    +0.009 A 
ATOM      7  S   UNL     1      -0.577  -2.377  -0.009  0.00  0.00    -0.053 S 
ATOM      8  C   UNL     1       1.179  -2.046  -0.016  0.00  0.00    +0.192 A 
ATOM      9  N   UNL     1       1.194  -0.668  -0.013  0.00  0.00    -0.336 N 
ATOM     10  N   UNL     1       2.183  -2.888  -0.026  0.00  0.00    -0.103 NA
ATOM     11  C   UNL     1      -2.557  -0.159   0.016  0.00  0.00    +0.053 C 
ATOM     12  H   UNL     1       2.033  -0.181  -0.019  0.00  0.00    +0.168 HD
ENDBRANCH   1  10
BRANCH   1  13
ATOM     13  C   UNL     1       4.804  -3.724  -0.045  0.00  0.00    +0.131 A 
ATOM     14  C   UNL     1       5.624  -3.957  -1.134  0.00  0.00    +0.032 A 
ATOM     15  C   UNL     1       6.460  -5.055  -1.148  0.00  0.00    +0.025 A 
ATOM     16  C   UNL     1       6.479  -5.927  -0.067  0.00  0.00    +0.026 A 
ATOM     17  C   UNL     1       5.656  -5.691   1.026  0.00  0.00    +0.044 A 
ATOM     18  C   UNL     1       4.824  -4.587   1.037  0.00  0.00    +0.070 A 
ATOM     19 CL   UNL     1       3.799  -4.286   2.405  0.00  0.00    -0.081 Cl
BRANCH  16  20
ATOM     20  N   UNL     1       7.324  -7.039  -0.079  0.00  0.00    -0.358 N 
ATOM     21  H   UNL     1       7.898  -7.204  -0.843  0.00  0.00    +0.142 HD
ATOM     22  H   UNL     1       7.336  -7.647   0.677  0.00  0.00    +0.142 HD
ENDBRANCH  16  20
ENDBRANCH   1  13
TORSDOF 3
