REMARK  Name = ZINC14461465
REMARK  7 active torsions:
REMARK  status: ('A' for Active; 'I' for Inactive)
REMARK    1  A    between atoms: C_1  and  C_2
REMARK    2  A    between atoms: C_2  and  N_3
REMARK    3  A    between atoms: N_3  and  C_4
REMARK    4  A    between atoms: N_3  and  C_6
REMARK    5  A    between atoms: C_4  and  C_5
REMARK    6  A    between atoms: C_9  and  C_12
REMARK    7  A    between atoms: C_25  and  C_28
REMARK                            x       y       z     vdW  Elec       q    Type
REMARK                         _______ _______ _______ _____ _____    ______ ____
ROOT
ATOM      1  C   UNL     1      -1.430  -3.893   4.756  0.00  0.00    +0.105 C 
ATOM      2  C   UNL     1      -2.592  -3.711   5.711  0.00  0.00    +0.029 C 
ATOM      3  C   UNL     1      -2.429  -2.708   6.858  0.00  0.00    +0.033 C 
ATOM      4  C   UNL     1      -3.875  -2.249   7.069  0.00  0.00    -0.030 C 
ATOM      5  C   UNL     1      -4.563  -2.389   5.941  0.00  0.00    -0.023 C 
ATOM      6  C   UNL     1      -3.650  -2.906   4.893  0.00  0.00    +0.049 C 
ATOM      7  C   UNL     1      -4.104  -3.789   3.798  0.00  0.00    -0.019 A 
ATOM      8  C   UNL     1      -5.396  -3.745   3.319  0.00  0.00    +0.006 A 
ATOM      9  C   UNL     1      -5.798  -4.571   2.283  0.00  0.00    +0.001 A 
ATOM     10  C   UNL     1      -4.900  -5.450   1.718  0.00  0.00    +0.015 A 
ATOM     11  C   UNL     1      -3.591  -5.511   2.192  0.00  0.00    +0.058 A 
ATOM     12  C   UNL     1      -3.176  -4.682   3.254  0.00  0.00    +0.044 A 
ATOM     13  N   UNL     1      -1.875  -4.822   3.706  0.00  0.00    -0.336 N 
ATOM     14  H   UNL     1      -1.224  -4.835   2.935  0.00  0.00    +0.147 HD
ENDROOT
BRANCH   1  18
ATOM     15  C   UNL     1      -0.367  -0.134   3.021  0.00  0.00    +0.030 A 
ATOM     16  C   UNL     1      -1.254  -0.978   2.365  0.00  0.00    +0.023 A 
ATOM     17  C   UNL     1      -1.592  -2.194   2.926  0.00  0.00    +0.007 A 
ATOM     18  C   UNL     1      -1.056  -2.567   4.144  0.00  0.00    -0.027 A 
ATOM     19  C   UNL     1      -0.176  -1.728   4.803  0.00  0.00    +0.007 A 
ATOM     20  C   UNL     1       0.169  -0.513   4.245  0.00  0.00    +0.023 A 
BRANCH  15  21
ATOM     21  N   UNL     1      -0.020   1.094   2.454  0.00  0.00    -0.330 N 
BRANCH  21  23
ATOM     22  C   UNL     1       0.323   1.003   0.034  0.00  0.00    +0.024 C 
ATOM     23  C   UNL     1      -0.587   1.491   1.163  0.00  0.00    +0.102 C 
ENDBRANCH  21  23
BRANCH  21  24
ATOM     24  C   UNL     1       0.911   1.985   3.150  0.00  0.00    +0.102 C 
ATOM     25  C   UNL     1       0.127   2.922   4.072  0.00  0.00    +0.024 C 
ENDBRANCH  21  24
ENDBRANCH  15  21
ENDBRANCH   1  18
BRANCH  11  26
ATOM     26  C   UNL     1      -2.634  -6.450   1.578  0.00  0.00    +0.243 C 
ATOM     27  O   UNL     1      -1.490  -6.507   1.988  0.00  0.00    -0.270 OA
ATOM     28  N   UNL     1      -3.026  -7.244   0.562  0.00  0.00    -0.325 N 
ATOM     29  H   UNL     1      -3.938  -7.199   0.235  0.00  0.00    +0.145 HD
ATOM     30  H   UNL     1      -2.396  -7.862   0.159  0.00  0.00    +0.145 HD
ENDBRANCH  11  26
TORSDOF 5
