REMARK  Name = ZINC11789436
REMARK  8 active torsions:
REMARK  status: ('A' for Active; 'I' for Inactive)
REMARK    1  A    between atoms: C_1  and  C_2
REMARK    2  A    between atoms: N_10  and  C_11
REMARK    3  A    between atoms: C_11  and  C_12
REMARK    4  A    between atoms: C_12  and  C_13
REMARK    5  A    between atoms: C_18  and  C_21
REMARK    6  A    between atoms: C_21  and  C_34
REMARK    7  A    between atoms: N_24  and  C_28
REMARK    8  A    between atoms: C_28  and  C_29
REMARK                            x       y       z     vdW  Elec       q    Type
REMARK                         _______ _______ _______ _____ _____    ______ ____
ROOT
ATOM      1  C   UNL     1       5.546   1.035  -1.488  0.00  0.00    +0.217 C 
ATOM      2  O   UNL     1       6.160   1.073  -0.443  0.00  0.00    -0.276 OA
ATOM      3  N   UNL     1       6.207   1.090  -2.661  0.00  0.00    -0.301 N 
ATOM      4  C   UNL     1       5.476   1.038  -3.935  0.00  0.00    +0.108 C 
ATOM      5  C   UNL     1       5.889   2.250  -4.785  0.00  0.00    +0.025 C 
ATOM      6  C   UNL     1       7.412   2.265  -4.934  0.00  0.00    +0.024 C 
ATOM      7  C   UNL     1       8.061   2.401  -3.554  0.00  0.00    +0.025 C 
ATOM      8  C   UNL     1       7.672   1.197  -2.691  0.00  0.00    +0.108 C 
ENDROOT
BRANCH   6   9
ATOM      9  C   UNL     1       7.827   3.448  -5.811  0.00  0.00    +0.113 C 
ATOM     10  C   UNL     1       7.198   3.339  -7.186  0.00  0.00    +0.247 C 
ATOM     11  O   UNL     1       7.362   2.454  -7.998  0.00  0.00    -0.273 OA
ATOM     12  N   UNL     1       6.418   4.430  -7.317  0.00  0.00    -0.220 N 
ATOM     13  C   UNL     1       6.466   5.205  -6.228  0.00  0.00    +0.310 C 
ATOM     14  O   UNL     1       5.847   6.245  -6.111  0.00  0.00    -0.252 OA
ATOM     15  N   UNL     1       7.276   4.706  -5.277  0.00  0.00    -0.285 N 
ATOM     16  C   UNL     1       9.351   3.528  -5.921  0.00  0.00    +0.042 C 
ATOM     17  H   UNL     1       7.462   5.098  -4.410  0.00  0.00    +0.151 HD
BRANCH  12  18
ATOM     18  C   UNL     1       5.617   4.731  -8.507  0.00  0.00    +0.153 C 
BRANCH  18  19
ATOM     19  C   UNL     1       4.248   4.118  -8.358  0.00  0.00    -0.023 A 
ATOM     20  C   UNL     1       3.219   4.833  -7.773  0.00  0.00    +0.013 A 
ATOM     21  C   UNL     1       2.000   4.253  -7.655  0.00  0.00    +0.045 A 
ATOM     22  S   UNL     1       2.282   2.648  -8.383  0.00  0.00    -0.105 S 
ATOM     23  C   UNL     1       4.005   2.861  -8.801  0.00  0.00    +0.050 A 
ENDBRANCH  18  19
ENDBRANCH  12  18
ENDBRANCH   6   9
BRANCH   1  24
ATOM     24  C   UNL     1       4.043   0.925  -1.474  0.00  0.00    +0.117 C 
BRANCH  24  25
ATOM     25  C   UNL     1       3.548   0.880  -0.027  0.00  0.00    +0.133 C 
BRANCH  25  35
ATOM     26  C   UNL     1       1.581   3.267   0.004  0.00  0.00    +0.086 C 
ATOM     27  C   UNL     1       1.203   1.808   0.000  0.00  0.00    +0.108 A 
ATOM     28  N   UNL     1      -0.016   1.354   0.009  0.00  0.00    -0.233 NA
ATOM     29  C   UNL     1       0.002  -0.004   0.002  0.00  0.00    +0.089 A 
ATOM     30  C   UNL     1      -0.997  -0.981   0.006  0.00  0.00    +0.030 A 
ATOM     31  C   UNL     1      -0.655  -2.304  -0.005  0.00  0.00    +0.002 A 
ATOM     32  C   UNL     1       0.678  -2.691  -0.020  0.00  0.00    +0.002 A 
ATOM     33  C   UNL     1       1.680  -1.744  -0.025  0.00  0.00    +0.028 A 
ATOM     34  C   UNL     1       1.352  -0.395  -0.013  0.00  0.00    +0.069 A 
ATOM     35  N   UNL     1       2.087   0.774  -0.014  0.00  0.00    -0.327 N 
ENDBRANCH  25  35
ENDBRANCH  24  25
ENDBRANCH   1  24
TORSDOF 6
