REMARK  Name = ZINC36316139
REMARK  15 active torsions:
REMARK  status: ('A' for Active; 'I' for Inactive)
REMARK    1  A    between atoms: C_1  and  C_2
REMARK    2  A    between atoms: C_2  and  C_3
REMARK    3  A    between atoms: C_2  and  O_4
REMARK    4  A    between atoms: O_4  and  C_5
REMARK    5  A    between atoms: C_5  and  C_6
REMARK    6  A    between atoms: C_6  and  C_8
REMARK    7  A    between atoms: C_6  and  O_35
REMARK    8  A    between atoms: C_8  and  N_9
REMARK    9  A    between atoms: N_9  and  C_10
REMARK   10  A    between atoms: N_9  and  C_32
REMARK   11  A    between atoms: C_10  and  C_11
REMARK   12  A    between atoms: C_12  and  C_26
REMARK   13  A    between atoms: N_14  and  C_25
REMARK   14  A    between atoms: C_15  and  O_16
REMARK   15  A    between atoms: O_16  and  C_17
REMARK                            x       y       z     vdW  Elec       q    Type
REMARK                         _______ _______ _______ _____ _____    ______ ____
ROOT
ATOM      1  C   UNL     1       6.816  -2.382  -4.427  0.00  0.00    +0.025 A 
ATOM      2  C   UNL     1       7.294  -3.651  -4.807  0.00  0.00    +0.098 A 
ATOM      3  N   UNL     1       8.073  -3.497  -5.856  0.00  0.00    -0.168 NA
ATOM      4  N   UNL     1       8.116  -2.134  -6.176  0.00  0.00    -0.235 N 
ATOM      5  C   UNL     1       7.332  -1.469  -5.288  0.00  0.00    +0.221 A 
ATOM      6  C   UNL     1       8.870  -1.531  -7.278  0.00  0.00    +0.176 C 
ENDROOT
BRANCH   2   7
ATOM      7  C   UNL     1       6.975  -4.938  -4.141  0.00  0.00    +0.002 A 
ATOM      8  C   UNL     1       6.679  -6.065  -4.903  0.00  0.00    +0.010 A 
ATOM      9  C   UNL     1       6.383  -7.260  -4.279  0.00  0.00    +0.001 A 
ATOM     10  C   UNL     1       6.379  -7.339  -2.897  0.00  0.00    +0.000 A 
ATOM     11  C   UNL     1       6.672  -6.222  -2.135  0.00  0.00    +0.001 A 
ATOM     12  C   UNL     1       6.976  -5.024  -2.750  0.00  0.00    +0.010 A 
ENDBRANCH   2   7
BRANCH   1  13
ATOM     13  C   UNL     1       5.891  -2.092  -3.273  0.00  0.00    -0.035 C 
BRANCH  13  14
ATOM     14  N   UNL     1       4.509  -2.007  -3.763  0.00  0.00    +0.386 N 
ATOM     15  H   UNL     1       4.456  -1.324  -4.503  0.00  0.00    -0.081 HD
BRANCH  14  16
ATOM     16  C   UNL     1       4.090  -3.318  -4.276  0.00  0.00    -0.068 C 
ATOM     17  C   UNL     1       3.976  -3.480  -5.793  0.00  0.00    -0.017 C 
ATOM     18  C   UNL     1       2.712  -3.412  -4.934  0.00  0.00    -0.017 C 
ENDBRANCH  14  16
BRANCH  14  19
ATOM     19  C   UNL     1       3.623  -1.606  -2.662  0.00  0.00    -0.044 C 
BRANCH  19  20
ATOM     20  C   UNL     1       3.811  -2.562  -1.482  0.00  0.00    +0.124 C 
BRANCH  20  21
ATOM     21  O   UNL     1       3.343  -3.863  -1.844  0.00  0.00    -0.391 OA
ATOM     22  H   UNL     1       2.408  -3.891  -2.088  0.00  0.00    +0.210 HD
ENDBRANCH  20  21
BRANCH  20  23
ATOM     23  C   UNL     1       3.015  -2.051  -0.280  0.00  0.00    +0.189 C 
BRANCH  23  24
ATOM     24  O   UNL     1       3.282  -2.877   0.855  0.00  0.00    -0.375 OA
BRANCH  24  26
ATOM     25  C   UNL     1       1.233  -3.200   2.096  0.00  0.00    +0.037 C 
ATOM     26  C   UNL     1       2.584  -2.484   2.038  0.00  0.00    +0.112 C 
ATOM     27  C   UNL     1       3.413  -2.860   3.268  0.00  0.00    +0.037 C 
ENDBRANCH  24  26
ENDBRANCH  23  24
ENDBRANCH  20  23
ENDBRANCH  19  20
ENDBRANCH  14  19
ENDBRANCH  13  14
ENDBRANCH   1  13
BRANCH   5  28
ATOM     28  O   UNL     1       7.108  -0.130  -5.264  0.00  0.00    -0.435 OA
BRANCH  28  29
ATOM     29  C   UNL     1       8.017   0.658  -4.632  0.00  0.00    +0.166 A 
ATOM     30  C   UNL     1       9.184   0.105  -4.128  0.00  0.00    +0.052 A 
ATOM     31  C   UNL     1      10.108   0.908  -3.486  0.00  0.00    +0.042 A 
ATOM     32  C   UNL     1       9.869   2.265  -3.345  0.00  0.00    +0.126 A 
ATOM     33  C   UNL     1       8.704   2.820  -3.847  0.00  0.00    +0.080 A 
ATOM     34  C   UNL     1       7.780   2.021  -4.496  0.00  0.00    +0.168 A 
ATOM     35  F   UNL     1       6.647   2.563  -4.991  0.00  0.00    -0.202 F 
ATOM     36  F   UNL     1      10.773   3.047  -2.716  0.00  0.00    -0.205 F 
ENDBRANCH  28  29
ENDBRANCH   5  28
TORSDOF 12
