REMARK  Name = ZINC25693143
REMARK  8 active torsions:
REMARK  status: ('A' for Active; 'I' for Inactive)
REMARK    1  A    between atoms: C_1  and  C_2
REMARK    2  A    between atoms: C_5  and  S_8
REMARK    3  A    between atoms: S_8  and  N_11
REMARK    4  A    between atoms: N_11  and  N_12
REMARK    5  A    between atoms: N_20  and  N_21
REMARK    6  A    between atoms: N_21  and  S_22
REMARK    7  A    between atoms: S_22  and  C_25
REMARK    8  A    between atoms: C_28  and  C_31
REMARK                            x       y       z     vdW  Elec       q    Type
REMARK                         _______ _______ _______ _____ _____    ______ ____
ROOT
ATOM      1  N   UNL     1       2.720  -4.235   1.883  0.00  0.00    -0.175 NA
ATOM      2  C   UNL     1       3.878  -4.772   1.714  0.00  0.00    +0.041 C 
ATOM      3  C   UNL     1       4.976  -4.513   2.715  0.00  0.00    +0.036 C 
ATOM      4  C   UNL     1       6.268  -4.174   1.967  0.00  0.00    +0.019 C 
ATOM      5  C   UNL     1       6.574  -5.314   0.991  0.00  0.00    +0.036 C 
ATOM      6  C   UNL     1       6.625  -6.617   1.747  0.00  0.00    +0.041 C 
ATOM      7  N   UNL     1       7.588  -7.443   1.532  0.00  0.00    -0.175 NA
ATOM      8  C   UNL     1       5.555  -6.961   2.753  0.00  0.00    +0.053 C 
ATOM      9  C   UNL     1       5.198  -5.739   3.596  0.00  0.00    +0.015 C 
ATOM     10  C   UNL     1       5.497  -5.364  -0.090  0.00  0.00    +0.015 C 
ATOM     11  C   UNL     1       4.127  -5.654   0.517  0.00  0.00    +0.053 C 
ENDROOT
BRANCH   1  12
ATOM     12  N   UNL     1       1.659  -4.577   1.034  0.00  0.00    -0.137 N 
ATOM     13  H   UNL     1       1.773  -5.277   0.373  0.00  0.00    +0.197 HD
BRANCH  12  14
ATOM     14  S   UNL     1       0.210  -3.785   1.160  0.00  0.00    +0.086 S 
ATOM     15  O   UNL     1      -0.193  -3.889   2.519  0.00  0.00    -0.149 OA
ATOM     16  O   UNL     1      -0.600  -4.247   0.088  0.00  0.00    -0.149 OA
BRANCH  14  21
ATOM     17  C   UNL     1       1.273   2.063   0.122  0.00  0.00    +0.044 C 
ATOM     18  C   UNL     1       1.008   0.602   0.381  0.00  0.00    -0.050 A 
ATOM     19  C   UNL     1       0.691  -0.240  -0.668  0.00  0.00    +0.005 A 
ATOM     20  C   UNL     1       0.448  -1.579  -0.431  0.00  0.00    +0.029 A 
ATOM     21  C   UNL     1       0.521  -2.077   0.857  0.00  0.00    +0.110 A 
ATOM     22  C   UNL     1       0.839  -1.236   1.906  0.00  0.00    +0.029 A 
ATOM     23  C   UNL     1       1.086   0.103   1.668  0.00  0.00    +0.005 A 
ENDBRANCH  14  21
ENDBRANCH  12  14
ENDBRANCH   1  12
BRANCH   7  24
ATOM     24  N   UNL     1       7.572  -8.710   2.130  0.00  0.00    -0.137 N 
ATOM     25  H   UNL     1       6.796  -8.997   2.638  0.00  0.00    +0.197 HD
BRANCH  24  26
ATOM     26  S   UNL     1       8.876  -9.719   1.970  0.00  0.00    +0.086 S 
ATOM     27  O   UNL     1       8.620 -10.847   2.795  0.00  0.00    -0.149 OA
ATOM     28  O   UNL     1       9.130  -9.835   0.577  0.00  0.00    -0.149 OA
BRANCH  26  29
ATOM     29  C   UNL     1      10.264  -8.889   2.669  0.00  0.00    +0.110 A 
ATOM     30  C   UNL     1      11.051  -8.073   1.878  0.00  0.00    +0.029 A 
ATOM     31  C   UNL     1      12.141  -7.422   2.426  0.00  0.00    +0.005 A 
ATOM     32  C   UNL     1      12.443  -7.587   3.764  0.00  0.00    -0.050 A 
ATOM     33  C   UNL     1      11.656  -8.403   4.555  0.00  0.00    +0.005 A 
ATOM     34  C   UNL     1      10.564  -9.050   4.008  0.00  0.00    +0.029 A 
ATOM     35  C   UNL     1      13.632  -6.879   4.362  0.00  0.00    +0.044 C 
ENDBRANCH  26  29
ENDBRANCH  24  26
ENDBRANCH   7  24
TORSDOF 6
