REMARK  Name = ZINC23873257
REMARK  6 active torsions:
REMARK  status: ('A' for Active; 'I' for Inactive)
REMARK    1  A    between atoms: C_1  and  C_2
REMARK    2  A    between atoms: C_2  and  C_4
REMARK    3  A    between atoms: C_2  and  N_19
REMARK    4  A    between atoms: N_6  and  C_7
REMARK    5  A    between atoms: C_8  and  C_17
REMARK    6  A    between atoms: C_28  and  C_31
REMARK                            x       y       z     vdW  Elec       q    Type
REMARK                         _______ _______ _______ _____ _____    ______ ____
ROOT
ATOM      1  C   UNL     1      -6.602   2.859   7.022  0.00  0.00    -0.004 C 
ATOM      2  C   UNL     1      -5.454   3.495   7.810  0.00  0.00    +0.017 C 
ENDROOT
BRANCH   2   3
ATOM      3  N   UNL     1      -4.274   3.617   6.943  0.00  0.00    +0.389 N 
ATOM      4  C   UNL     1      -3.091   4.018   7.717  0.00  0.00    -0.059 C 
ATOM      5  C   UNL     1      -1.905   4.211   6.769  0.00  0.00    +0.088 C 
ATOM      6  N   UNL     1      -1.655   2.959   6.041  0.00  0.00    -0.319 N 
ATOM      7  C   UNL     1      -2.838   2.558   5.267  0.00  0.00    +0.088 C 
ATOM      8  C   UNL     1      -4.024   2.365   6.215  0.00  0.00    -0.059 C 
ATOM      9  C   UNL     1      -0.539   3.074   5.221  0.00  0.00    +0.121 A 
ATOM     10  C   UNL     1      -0.137   1.990   4.447  0.00  0.00    +0.044 A 
ATOM     11  C   UNL     1       0.976   2.118   3.636  0.00  0.00    +0.017 A 
ATOM     12  C   UNL     1       1.652   3.331   3.626  0.00  0.00    +0.073 A 
ATOM     13  C   UNL     1       1.201   4.364   4.423  0.00  0.00    +0.125 A 
ATOM     14  N   UNL     1       0.133   4.214   5.183  0.00  0.00    -0.240 NA
ATOM     15  H   UNL     1      -4.479   4.405   6.203  0.00  0.00    -0.081 HD
BRANCH  12  16
ATOM     16  C   UNL     1       2.870   3.516   2.757  0.00  0.00    +0.419 C 
ATOM     17  F   UNL     1       2.479   3.993   1.502  0.00  0.00    -0.166 F 
ATOM     18  F   UNL     1       3.526   2.290   2.607  0.00  0.00    -0.166 F 
ATOM     19  F   UNL     1       3.735   4.437   3.358  0.00  0.00    -0.166 F 
ENDBRANCH  12  16
ENDBRANCH   2   3
BRANCH   2  20
ATOM     20  C   UNL     1      -5.119   2.629   8.996  0.00  0.00    +0.204 C 
ATOM     21  O   UNL     1      -4.272   1.767   8.898  0.00  0.00    -0.277 OA
ATOM     22  N   UNL     1      -5.760   2.813  10.168  0.00  0.00    -0.280 N 
ATOM     23  H   UNL     1      -6.527   3.596  10.257  0.00  0.00    +0.155 HD
BRANCH  22  24
ATOM     24  C   UNL     1      -5.450   2.016  11.261  0.00  0.00    +0.090 A 
ATOM     25  C   UNL     1      -5.994   2.052  12.534  0.00  0.00    +0.084 A 
ATOM     26  C   UNL     1      -5.494   1.096  13.512  0.00  0.00    -0.018 A 
ATOM     27  C   UNL     1      -4.528   0.269  13.058  0.00  0.00    -0.004 A 
ATOM     28  S   UNL     1      -4.297   0.728  11.362  0.00  0.00    -0.077 S 
ATOM     29  C   UNL     1      -3.808  -0.802  13.816  0.00  0.00    +0.043 C 
ATOM     30  C   UNL     1      -4.833  -1.677  14.551  0.00  0.00    +0.005 C 
ATOM     31  C   UNL     1      -5.084  -1.073  15.929  0.00  0.00    +0.001 C 
ATOM     32  C   UNL     1      -4.970   0.449  15.865  0.00  0.00    +0.005 C 
ATOM     33  C   UNL     1      -6.033   1.025  14.936  0.00  0.00    +0.037 C 
BRANCH  25  34
ATOM     34  C   UNL     1      -7.013   2.998  12.877  0.00  0.00    +0.102 C 
ATOM     35  N   UNL     1      -7.822   3.748  13.149  0.00  0.00    -0.191 NA
ENDBRANCH  25  34
ENDBRANCH  22  24
ENDBRANCH   2  20
TORSDOF 5
