REMARK  Name = ZINC33389657
REMARK  10 active torsions:
REMARK  status: ('A' for Active; 'I' for Inactive)
REMARK    1  A    between atoms: C_1  and  C_2
REMARK    2  A    between atoms: C_3  and  C_21
REMARK    3  A    between atoms: C_4  and  N_12
REMARK    4  A    between atoms: N_5  and  C_11
REMARK    5  A    between atoms: C_8  and  C_9
REMARK    6  A    between atoms: N_15  and  C_18
REMARK    7  A    between atoms: C_18  and  C_19
REMARK    8  A    between atoms: C_19  and  O_20
REMARK    9  A    between atoms: N_25  and  C_29
REMARK   10  A    between atoms: C_29  and  C_30
REMARK                            x       y       z     vdW  Elec       q    Type
REMARK                         _______ _______ _______ _____ _____    ______ ____
ROOT
ATOM      1  C   UNL     1      -3.086   5.348  -1.561  0.00  0.00    +0.046 C 
ATOM      2  C   UNL     1      -1.702   4.803  -1.321  0.00  0.00    -0.017 A 
ATOM      3  C   UNL     1      -1.523   3.500  -0.827  0.00  0.00    +0.019 A 
ATOM      4  C   UNL     1      -0.222   3.018  -0.607  0.00  0.00    +0.112 A 
ATOM      5  N   UNL     1       0.857   3.795  -0.878  0.00  0.00    -0.298 N 
ATOM      6  C   UNL     1       0.713   5.044  -1.358  0.00  0.00    +0.270 A 
ATOM      7  O   UNL     1       1.700   5.719  -1.592  0.00  0.00    -0.266 OA
ATOM      8  C   UNL     1      -0.579   5.580  -1.592  0.00  0.00    +0.120 A 
ATOM      9  C   UNL     1       2.203   3.265  -0.645  0.00  0.00    +0.154 C 
ENDROOT
BRANCH   3  10
ATOM     10  C   UNL     1      -2.683   2.655  -0.538  0.00  0.00    +0.032 C 
ATOM     11  C   UNL     1      -3.540   2.995   0.463  0.00  0.00    +0.077 C 
ATOM     12  C   UNL     1      -4.754   2.365   0.872  0.00  0.00    +0.258 C 
ATOM     13  O   UNL     1      -5.168   1.370   0.304  0.00  0.00    -0.269 OA
ATOM     14  N   UNL     1      -5.414   2.890   1.890  0.00  0.00    -0.253 N 
ATOM     15  C   UNL     1      -4.958   3.998   2.516  0.00  0.00    +0.121 C 
ATOM     16  S   UNL     1      -5.647   4.843   3.836  0.00  0.00    -0.027 S 
ATOM     17  S   UNL     1      -3.456   4.356   1.619  0.00  0.00    -0.061 S 
BRANCH  14  18
ATOM     18  C   UNL     1      -6.661   2.268   2.341  0.00  0.00    +0.146 C 
BRANCH  18  19
ATOM     19  C   UNL     1      -7.840   2.876   1.579  0.00  0.00    +0.136 C 
ATOM     20  C   UNL     1      -9.158   2.233   2.052  0.00  0.00    +0.035 C 
ATOM     21  C   UNL     1      -9.999   3.425   2.568  0.00  0.00    +0.031 C 
ATOM     22  C   UNL     1      -9.330   4.628   1.854  0.00  0.00    +0.160 C 
ATOM     23  O   UNL     1      -7.925   4.284   1.855  0.00  0.00    -0.375 OA
ENDBRANCH  18  19
ENDBRANCH  14  18
ENDBRANCH   3  10
BRANCH   4  24
ATOM     24  N   UNL     1      -0.042   1.755  -0.122  0.00  0.00    -0.314 N 
ATOM     25  C   UNL     1      -0.498   0.749  -1.091  0.00  0.00    +0.122 C 
ATOM     26  C   UNL     1      -0.206  -0.651  -0.544  0.00  0.00    +0.103 C 
ATOM     27  N   UNL     1      -0.887  -0.821   0.748  0.00  0.00    -0.297 NA
ATOM     28  C   UNL     1      -0.431   0.186   1.716  0.00  0.00    +0.103 C 
ATOM     29  C   UNL     1      -0.723   1.585   1.169  0.00  0.00    +0.122 C 
BRANCH  27  30
ATOM     30  C   UNL     1      -0.693  -2.180   1.270  0.00  0.00    +0.112 C 
BRANCH  30  31
ATOM     31  C   UNL     1      -1.779  -2.489   2.303  0.00  0.00    +0.171 C 
BRANCH  31  32
ATOM     32  O   UNL     1      -3.057  -2.491   1.665  0.00  0.00    -0.394 OA
ATOM     33  H   UNL     1      -3.965  -2.696   2.251  0.00  0.00    +0.209 HD
ENDBRANCH  31  32
ENDBRANCH  30  31
ENDBRANCH  27  30
ENDBRANCH   4  24
BRANCH   8  34
ATOM     34  C   UNL     1      -0.727   6.910  -2.101  0.00  0.00    +0.105 C 
ATOM     35  N   UNL     1      -0.844   7.965  -2.506  0.00  0.00    -0.191 NA
ENDBRANCH   8  34
TORSDOF 8
