REMARK  Name = ZINC54727727
REMARK  9 active torsions:
REMARK  status: ('A' for Active; 'I' for Inactive)
REMARK    1  A    between atoms: C_1  and  C_2
REMARK    2  A    between atoms: C_5  and  C_32
REMARK    3  A    between atoms: N_8  and  C_10
REMARK    4  A    between atoms: C_10  and  C_11
REMARK    5  A    between atoms: C_10  and  C_12
REMARK    6  A    between atoms: C_10  and  C_13
REMARK    7  A    between atoms: C_13  and  N_14
REMARK    8  A    between atoms: C_23  and  C_25
REMARK    9  A    between atoms: C_28  and  O_31
REMARK                            x       y       z     vdW  Elec       q    Type
REMARK                         _______ _______ _______ _____ _____    ______ ____
ROOT
ATOM      1  N   UNL     1       0.630  -0.578   3.614  0.00  0.00    -0.301 N 
ATOM      2  C   UNL     1      -0.324  -0.185   4.480  0.00  0.00    +0.302 C 
ATOM      3  O   UNL     1      -0.049   0.585   5.380  0.00  0.00    -0.253 OA
ATOM      4  N   UNL     1      -1.584  -0.646   4.349  0.00  0.00    -0.283 N 
ATOM      5  C   UNL     1      -2.660  -0.139   5.213  0.00  0.00    +0.128 C 
ATOM      6  C   UNL     1      -3.792   0.393   4.325  0.00  0.00    +0.127 C 
ATOM      7  N   UNL     1      -4.114  -0.626   3.316  0.00  0.00    -0.295 N 
ATOM      8  C   UNL     1      -3.039  -1.134   2.452  0.00  0.00    +0.127 C 
ATOM      9  C   UNL     1      -1.908  -1.661   3.337  0.00  0.00    +0.128 C 
ATOM     10  C   UNL     1      -5.374  -1.087   3.185  0.00  0.00    +0.247 C 
ATOM     11  O   UNL     1      -5.609  -2.007   2.426  0.00  0.00    -0.270 OA
ATOM     12  H   UNL     1       0.429  -1.247   2.941  0.00  0.00    +0.150 HD
ENDROOT
BRANCH  10  13
ATOM     13  C   UNL     1      -6.469  -0.475   3.963  0.00  0.00    +0.037 A 
ATOM     14  C   UNL     1      -6.477   0.903   4.197  0.00  0.00    +0.016 A 
ATOM     15  C   UNL     1      -7.500   1.471   4.923  0.00  0.00    +0.046 A 
ATOM     16  C   UNL     1      -8.523   0.675   5.424  0.00  0.00    +0.117 A 
ATOM     17  C   UNL     1      -8.519  -0.696   5.194  0.00  0.00    +0.046 A 
ATOM     18  C   UNL     1      -7.503  -1.270   4.464  0.00  0.00    +0.016 A 
BRANCH  16  19
ATOM     19  O   UNL     1      -9.529   1.238   6.140  0.00  0.00    -0.507 OA
ATOM     20  H   UNL     1     -10.281   1.525   5.603  0.00  0.00    +0.292 HD
ENDBRANCH  16  19
ENDBRANCH  10  13
BRANCH   1  21
ATOM     21  C   UNL     1       1.971   0.007   3.687  0.00  0.00    +0.093 C 
BRANCH  21  22
ATOM     22  C   UNL     1       2.820  -0.515   2.525  0.00  0.00    -0.055 C 
ATOM     23  C   UNL     1       4.255  -0.008   2.674  0.00  0.00    -0.008 C 
ATOM     24  C   UNL     1       2.236  -0.014   1.203  0.00  0.00    -0.008 C 
BRANCH  22  30
ATOM     25  C   UNL     1       1.928  -4.433   3.816  0.00  0.00    +0.005 C 
ATOM     26  C   UNL     1       3.393  -3.991   3.820  0.00  0.00    -0.031 C 
ATOM     27  C   UNL     1       4.107  -4.577   2.598  0.00  0.00    +0.003 C 
ATOM     28  C   UNL     1       3.468  -4.012   1.326  0.00  0.00    -0.031 C 
ATOM     29  C   UNL     1       3.538  -2.483   1.362  0.00  0.00    -0.075 C 
ATOM     30  N   UNL     1       2.816  -1.984   2.538  0.00  0.00    +0.384 N 
ATOM     31  C   UNL     1       3.466  -2.463   3.764  0.00  0.00    -0.075 C 
ATOM     32  C   UNL     1       4.223  -4.530   0.101  0.00  0.00    +0.005 C 
ATOM     33  H   UNL     1       1.863  -2.316   2.512  0.00  0.00    -0.081 HD
ENDBRANCH  22  30
ENDBRANCH  21  22
ENDBRANCH   1  21
TORSDOF 5
