REMARK  Name = ZINC03312666
REMARK  5 active torsions:
REMARK  status: ('A' for Active; 'I' for Inactive)
REMARK    1  A    between atoms: C_4  and  C_7
REMARK    2  A    between atoms: C_7  and  C_9
REMARK    3  A    between atoms: C_7  and  S_20
REMARK    4  A    between atoms: N_11  and  C_12
REMARK    5  A    between atoms: S_20  and  C_21
REMARK                            x       y       z     vdW  Elec       q    Type
REMARK                         _______ _______ _______ _____ _____    ______ ____
ROOT
ATOM      1  C   UNL     1       3.679   2.183  -0.022  0.00  0.00    +0.169 C 
ENDROOT
BRANCH   1   5
ATOM      2  C   UNL     1       0.024  -0.029   0.013  0.00  0.00    +0.000 A 
ATOM      3  C   UNL     1      -0.004   1.353   0.018  0.00  0.00    +0.000 A 
ATOM      4  C   UNL     1       1.178   2.069   0.008  0.00  0.00    +0.005 A 
ATOM      5  C   UNL     1       2.389   1.403  -0.010  0.00  0.00    -0.025 A 
ATOM      6  C   UNL     1       2.418   0.021  -0.015  0.00  0.00    +0.005 A 
ATOM      7  C   UNL     1       1.235  -0.695  -0.003  0.00  0.00    +0.000 A 
ENDBRANCH   1   5
BRANCH   1   8
ATOM      8  C   UNL     1       3.727   3.055  -1.250  0.00  0.00    +0.235 C 
ATOM      9  O   UNL     1       3.451   4.233  -1.168  0.00  0.00    -0.274 OA
ATOM     10  N   UNL     1       4.076   2.525  -2.439  0.00  0.00    -0.284 N 
ATOM     11  H   UNL     1       4.361   1.600  -2.493  0.00  0.00    +0.155 HD
BRANCH  10  12
ATOM     12  C   UNL     1       4.027   3.311  -3.596  0.00  0.00    +0.036 A 
ATOM     13  C   UNL     1       3.668   2.740  -4.810  0.00  0.00    +0.043 A 
ATOM     14  C   UNL     1       3.615   3.519  -5.950  0.00  0.00    +0.044 A 
ATOM     15  C   UNL     1       3.931   4.865  -5.885  0.00  0.00    +0.040 A 
ATOM     16  C   UNL     1       4.295   5.435  -4.678  0.00  0.00    +0.044 A 
ATOM     17  C   UNL     1       4.344   4.661  -3.533  0.00  0.00    +0.043 A 
ATOM     18 CL   UNL     1       4.690   7.124  -4.601  0.00  0.00    -0.083 Cl
ATOM     19 CL   UNL     1       3.160   2.808  -7.467  0.00  0.00    -0.083 Cl
ENDBRANCH  10  12
ENDBRANCH   1   8
BRANCH   1  20
ATOM     20  S   UNL     1       3.770   3.223   1.462  0.00  0.00    -0.079 S 
BRANCH  20  21
ATOM     21  C   UNL     1       3.852   2.066   2.789  0.00  0.00    +0.161 A 
ATOM     22  N   UNL     1       3.844   0.748   2.750  0.00  0.00    -0.133 NA
ATOM     23  N   UNL     1       3.922   0.028   3.920  0.00  0.00    -0.125 NA
ATOM     24  C   UNL     1       3.993   0.660   5.075  0.00  0.00    +0.180 A 
ATOM     25  S   UNL     1       3.960   2.365   4.546  0.00  0.00    -0.025 S 
ATOM     26  N   UNL     1       4.072   0.138   6.361  0.00  0.00    -0.336 N 
ATOM     27  H   UNL     1       4.118   0.734   7.125  0.00  0.00    +0.144 HD
ATOM     28  H   UNL     1       4.080  -0.823   6.495  0.00  0.00    +0.144 HD
ENDBRANCH  20  21
ENDBRANCH   1  20
TORSDOF 5
