REMARK  Name = ZINC13020346
REMARK  12 active torsions:
REMARK  status: ('A' for Active; 'I' for Inactive)
REMARK    1  A    between atoms: C_1  and  C_2
REMARK    2  A    between atoms: C_2  and  C_4
REMARK    3  A    between atoms: C_2  and  N_7
REMARK    4  A    between atoms: C_8  and  C_28
REMARK    5  A    between atoms: C_11  and  S_12
REMARK    6  A    between atoms: S_12  and  C_13
REMARK    7  A    between atoms: C_13  and  C_15
REMARK    8  A    between atoms: C_13  and  C_16
REMARK    9  A    between atoms: N_18  and  C_19
REMARK   10  A    between atoms: C_24  and  C_25
REMARK   11  A    between atoms: C_25  and  C_26
REMARK   12  A    between atoms: C_25  and  C_27
REMARK                            x       y       z     vdW  Elec       q    Type
REMARK                         _______ _______ _______ _____ _____    ______ ____
ROOT
ATOM      1  S   UNL     1      -2.125   0.653   2.444  0.00  0.00    -0.073 S 
ENDROOT
BRANCH   1   6
ATOM      2  N   UNL     1      -1.347  -0.536   0.033  0.00  0.00    -0.288 N 
ATOM      3  C   UNL     1      -1.938  -1.347  -0.909  0.00  0.00    +0.172 A 
ATOM      4  N   UNL     1      -3.172  -1.564  -0.510  0.00  0.00    -0.128 NA
ATOM      5  N   UNL     1      -3.388  -0.954   0.601  0.00  0.00    -0.122 NA
ATOM      6  C   UNL     1      -2.306  -0.314   0.983  0.00  0.00    +0.193 A 
BRANCH   3   7
ATOM      7  C   UNL     1      -1.310  -1.871  -2.132  0.00  0.00    +0.056 A 
ATOM      8  C   UNL     1      -1.734  -2.881  -2.959  0.00  0.00    +0.019 A 
ATOM      9  C   UNL     1      -0.970  -3.199  -4.059  0.00  0.00    +0.008 A 
ATOM     10  C   UNL     1       0.175  -2.507  -4.293  0.00  0.00    +0.046 A 
ATOM     11  S   UNL     1       0.201  -1.352  -2.932  0.00  0.00    -0.094 S 
ENDBRANCH   3   7
BRANCH   2  13
ATOM     12  C   UNL     1      -0.002   1.507   0.022  0.00  0.00    +0.043 C 
ATOM     13  C   UNL     1       0.025  -0.023   0.024  0.00  0.00    +0.201 C 
BRANCH  13  14
ATOM     14  C   UNL     1       0.752  -0.510   1.251  0.00  0.00    +0.378 C 
ATOM     15  O   UNL     1       0.452  -1.581   1.752  0.00  0.00    -0.244 OA
ATOM     16  O   UNL     1       1.640   0.165   1.742  0.00  0.00    -0.244 OA
ENDBRANCH  13  14
ENDBRANCH   2  13
ENDBRANCH   1   6
BRANCH   1  17
ATOM     17  C   UNL     1      -3.746   0.536   3.250  0.00  0.00    +0.137 C 
ATOM     18  C   UNL     1      -4.803   1.209   2.371  0.00  0.00    +0.029 C 
BRANCH  17  19
ATOM     19  C   UNL     1      -3.692   1.227   4.589  0.00  0.00    +0.230 C 
ATOM     20  O   UNL     1      -2.879   2.106   4.785  0.00  0.00    -0.274 OA
ATOM     21  N   UNL     1      -4.548   0.869   5.567  0.00  0.00    -0.284 N 
ATOM     22  H   UNL     1      -5.249   0.224   5.386  0.00  0.00    +0.155 HD
BRANCH  21  23
ATOM     23  C   UNL     1      -4.424   1.428   6.844  0.00  0.00    +0.037 A 
ATOM     24  C   UNL     1      -3.196   1.915   7.274  0.00  0.00    +0.023 A 
ATOM     25  C   UNL     1      -3.077   2.466   8.535  0.00  0.00    +0.002 A 
ATOM     26  C   UNL     1      -4.178   2.532   9.369  0.00  0.00    +0.000 A 
ATOM     27  C   UNL     1      -5.401   2.047   8.944  0.00  0.00    +0.006 A 
ATOM     28  C   UNL     1      -5.529   1.501   7.681  0.00  0.00    -0.024 A 
BRANCH  28  29
ATOM     29  C   UNL     1      -6.864   0.979   7.216  0.00  0.00    +0.015 C 
ATOM     30  C   UNL     1      -7.389  -0.047   8.222  0.00  0.00    +0.012 C 
ATOM     31  C   UNL     1      -7.855   2.140   7.107  0.00  0.00    +0.012 C 
ENDBRANCH  28  29
ENDBRANCH  21  23
ENDBRANCH  17  19
ENDBRANCH   1  17
TORSDOF 8
