REMARK  Name = ZINC53517442
REMARK  6 active torsions:
REMARK  status: ('A' for Active; 'I' for Inactive)
REMARK    1  A    between atoms: C_1  and  C_2
REMARK    2  A    between atoms: N_5  and  C_8
REMARK    3  A    between atoms: C_8  and  C_10
REMARK    4  A    between atoms: C_8  and  C_25
REMARK    5  A    between atoms: C_10  and  N_11
REMARK    6  A    between atoms: C_12  and  N_14
REMARK                            x       y       z     vdW  Elec       q    Type
REMARK                         _______ _______ _______ _____ _____    ______ ____
ROOT
ATOM      1  N   UNL     1      -0.477  -3.821   3.846  0.00  0.00    -0.299 N 
ATOM      2  C   UNL     1       0.155  -4.001   5.023  0.00  0.00    +0.326 C 
ATOM      3  O   UNL     1       1.172  -4.671   5.072  0.00  0.00    -0.251 OA
ATOM      4  H   UNL     1      -1.286  -3.287   3.807  0.00  0.00    +0.150 HD
ENDROOT
BRANCH   2   5
ATOM      5  N   UNL     1      -0.334  -3.445   6.137  0.00  0.00    -0.129 NA
ATOM      6  C   UNL     1       0.233  -3.699   7.310  0.00  0.00    +0.200 A 
ATOM      7  N   UNL     1       1.380  -4.408   7.494  0.00  0.00    -0.326 N 
ATOM      8  H   UNL     1       1.918  -4.809   6.794  0.00  0.00    +0.169 HD
ATOM      9  C   UNL     1       1.648  -4.456   8.859  0.00  0.00    +0.065 A 
ATOM     10  C   UNL     1       2.666  -5.034   9.603  0.00  0.00    +0.028 A 
ATOM     11  C   UNL     1       2.667  -4.912  10.979  0.00  0.00    +0.002 A 
ATOM     12  C   UNL     1       1.655  -4.217  11.619  0.00  0.00    +0.002 A 
ATOM     13  C   UNL     1       0.637  -3.638  10.887  0.00  0.00    +0.028 A 
ATOM     14  C   UNL     1       0.627  -3.755   9.504  0.00  0.00    +0.065 A 
ATOM     15  N   UNL     1      -0.238  -3.289   8.519  0.00  0.00    -0.326 N 
ATOM     16  H   UNL     1      -1.040  -2.764   8.668  0.00  0.00    +0.169 HD
ENDBRANCH   2   5
BRANCH   1  17
ATOM     17  C   UNL     1       0.059  -4.430   2.626  0.00  0.00    +0.095 C 
BRANCH  17  18
ATOM     18  C   UNL     1      -0.769  -3.974   1.423  0.00  0.00    -0.013 C 
BRANCH  18  23
ATOM     19  C   UNL     1      -0.385   1.602   0.291  0.00  0.00    +0.007 C 
ATOM     20  C   UNL     1      -0.266   0.079   0.208  0.00  0.00    -0.018 C 
ATOM     21  C   UNL     1      -1.664  -0.544   0.191  0.00  0.00    -0.015 C 
ATOM     22  C   UNL     1      -1.538  -2.069   0.188  0.00  0.00    -0.078 C 
ATOM     23  N   UNL     1      -0.820  -2.506   1.391  0.00  0.00    +0.386 N 
ATOM     24  C   UNL     1       0.546  -1.971   1.379  0.00  0.00    -0.078 C 
ATOM     25  C   UNL     1       0.500  -0.442   1.427  0.00  0.00    -0.015 C 
ATOM     26  H   UNL     1      -1.304  -2.171   2.211  0.00  0.00    -0.081 HD
ENDBRANCH  18  23
BRANCH  18  27
ATOM     27  C   UNL     1      -2.168  -4.523   1.539  0.00  0.00    -0.022 A 
ATOM     28  C   UNL     1      -2.714  -5.604   0.930  0.00  0.00    +0.009 A 
ATOM     29  C   UNL     1      -4.034  -5.924   1.189  0.00  0.00    +0.008 A 
ATOM     30  C   UNL     1      -4.743  -5.147   2.044  0.00  0.00    +0.045 A 
ATOM     31  S   UNL     1      -3.534  -3.922   2.519  0.00  0.00    -0.103 S 
ENDBRANCH  18  27
ENDBRANCH  17  18
ENDBRANCH   1  17
TORSDOF 5
