REMARK  Name = ZINC43020720
REMARK  9 active torsions:
REMARK  status: ('A' for Active; 'I' for Inactive)
REMARK    1  A    between atoms: C_1  and  C_2
REMARK    2  A    between atoms: C_2  and  C_3
REMARK    3  A    between atoms: C_7  and  C_25
REMARK    4  A    between atoms: N_10  and  C_11
REMARK    5  A    between atoms: C_11  and  C_13
REMARK    6  A    between atoms: C_11  and  C_20
REMARK    7  A    between atoms: C_20  and  C_22
REMARK    8  A    between atoms: C_20  and  N_24
REMARK    9  A    between atoms: C_22  and  C_23
REMARK                            x       y       z     vdW  Elec       q    Type
REMARK                         _______ _______ _______ _____ _____    ______ ____
ROOT
ATOM      1  C   UNL     1      -2.144   1.702   1.418  0.00  0.00    +0.073 C 
ENDROOT
BRANCH   1   7
ATOM      2  C   UNL     1      -1.794   0.041  -0.310  0.00  0.00    +0.083 C 
ATOM      3  C   UNL     1      -1.442  -1.429  -0.557  0.00  0.00    +0.179 C 
ATOM      4  O   UNL     1      -2.410  -2.261   0.089  0.00  0.00    -0.374 OA
ATOM      5  C   UNL     1      -2.502  -2.048   1.500  0.00  0.00    +0.129 C 
ATOM      6  C   UNL     1      -2.865  -0.585   1.768  0.00  0.00    +0.116 C 
ATOM      7  N   UNL     1      -1.863   0.287   1.137  0.00  0.00    -0.289 NA
ATOM      8  C   UNL     1      -1.156  -2.369   2.154  0.00  0.00    +0.039 C 
BRANCH   2  10
ATOM      9  C   UNL     1      -0.708   0.741  -2.448  0.00  0.00    +0.005 C 
ATOM     10  C   UNL     1      -0.719   0.935  -0.931  0.00  0.00    +0.018 C 
ENDBRANCH   2  10
ENDBRANCH   1   7
BRANCH   1  11
ATOM     11  C   UNL     1      -3.014   2.267   0.325  0.00  0.00    -0.031 A 
ATOM     12  C   UNL     1      -4.137   1.576  -0.092  0.00  0.00    +0.005 A 
ATOM     13  C   UNL     1      -4.935   2.094  -1.094  0.00  0.00    +0.001 A 
ATOM     14  C   UNL     1      -4.612   3.303  -1.680  0.00  0.00    +0.015 A 
ATOM     15  C   UNL     1      -3.489   3.995  -1.264  0.00  0.00    +0.018 A 
ATOM     16  C   UNL     1      -2.693   3.479  -0.257  0.00  0.00    +0.020 A 
ATOM     17 BR   UNL     1      -3.045   5.649  -2.066  0.00  0.00    -0.050 Br
ENDBRANCH   1  11
BRANCH   1  18
ATOM     18  C   UNL     1      -2.869   1.821   2.760  0.00  0.00    -0.053 C 
BRANCH  18  19
ATOM     19  N   UNL     1      -3.273   3.217   2.975  0.00  0.00    +0.381 N 
ATOM     20  H   UNL     1      -2.455   3.807   2.981  0.00  0.00    -0.090 HD
ATOM     21  H   UNL     1      -3.892   3.506   2.232  0.00  0.00    -0.090 HD
ATOM     22  H   UNL     1      -3.751   3.296   3.860  0.00  0.00    -0.090 HD
ENDBRANCH  18  19
BRANCH  18  23
ATOM     23  C   UNL     1      -1.931   1.383   3.887  0.00  0.00    -0.018 C 
ATOM     24  C   UNL     1      -2.685   1.411   5.218  0.00  0.00    +0.002 C 
ENDBRANCH  18  23
ENDBRANCH   1  18
TORSDOF 6
