REMARK  Name = ZINC16718944
REMARK  4 active torsions:
REMARK  status: ('A' for Active; 'I' for Inactive)
REMARK    1  A    between atoms: C_1  and  C_2
REMARK    2  A    between atoms: C_5  and  N_11
REMARK    3  A    between atoms: C_7  and  N_8
REMARK    4  A    between atoms: N_11  and  C_12
REMARK                            x       y       z     vdW  Elec       q    Type
REMARK                         _______ _______ _______ _____ _____    ______ ____
ROOT
ATOM      1  C   UNL     1      -0.015  -5.108  -1.219  0.00  0.00    +0.085 C 
ATOM      2  C   UNL     1      -0.085  -6.481  -1.305  0.00  0.00    +0.059 C 
ATOM      3  C   UNL     1      -0.607  -7.288  -0.183  0.00  0.00    +0.000 A 
ATOM      4  C   UNL     1      -1.048  -6.702   0.998  0.00  0.00    +0.009 A 
ATOM      5  C   UNL     1      -1.528  -7.499   2.017  0.00  0.00    +0.001 A 
ATOM      6  C   UNL     1      -1.573  -8.878   1.871  0.00  0.00    +0.001 A 
ATOM      7  C   UNL     1      -1.141  -9.478   0.709  0.00  0.00    +0.013 A 
ATOM      8  C   UNL     1      -0.652  -8.690  -0.334  0.00  0.00    +0.045 A 
ATOM      9  C   UNL     1      -0.182  -9.289  -1.590  0.00  0.00    +0.251 C 
ATOM     10  O   UNL     1      -0.218 -10.497  -1.727  0.00  0.00    -0.270 OA
ATOM     11  N   UNL     1       0.287  -8.525  -2.590  0.00  0.00    -0.248 N 
ATOM     12  C   UNL     1       0.352  -7.186  -2.516  0.00  0.00    +0.252 C 
ATOM     13  O   UNL     1       0.783  -6.550  -3.460  0.00  0.00    -0.270 OA
ATOM     14  H   UNL     1       0.587  -8.959  -3.404  0.00  0.00    +0.158 HD
ENDROOT
BRANCH   1  15
ATOM     15  N   UNL     1       0.114  -4.509  -0.005  0.00  0.00    -0.320 N 
ATOM     16  H   UNL     1       0.264  -5.047   0.788  0.00  0.00    +0.152 HD
BRANCH  15  21
ATOM     17  C   UNL     1      -0.225   1.136   0.420  0.00  0.00    +0.046 C 
ATOM     18  C   UNL     1      -0.135  -0.364   0.307  0.00  0.00    -0.020 A 
ATOM     19  C   UNL     1      -0.266  -0.972  -0.929  0.00  0.00    +0.007 A 
ATOM     20  C   UNL     1      -0.184  -2.346  -1.036  0.00  0.00    +0.023 A 
ATOM     21  C   UNL     1       0.031  -3.118   0.100  0.00  0.00    +0.033 A 
ATOM     22  C   UNL     1       0.163  -2.504   1.339  0.00  0.00    +0.056 A 
ATOM     23  C   UNL     1       0.085  -1.129   1.438  0.00  0.00    +0.131 A 
BRANCH  23  24
ATOM     24  N   UNL     1       0.230  -0.473   2.757  0.00  0.00    +0.057 N 
ATOM     25  O   UNL     1       0.629   0.666   2.825  0.00  0.00    -0.126 OA
ATOM     26  O   UNL     1      -0.049  -1.077   3.766  0.00  0.00    -0.126 OA
ENDBRANCH  23  24
ENDBRANCH  15  21
ENDBRANCH   1  15
TORSDOF 3
