REMARK  Name = ZINC49007545
REMARK  4 active torsions:
REMARK  status: ('A' for Active; 'I' for Inactive)
REMARK    1  A    between atoms: C_1  and  C_2
REMARK    2  A    between atoms: C_7  and  N_10
REMARK    3  A    between atoms: N_10  and  C_11
REMARK    4  A    between atoms: C_13  and  N_19
REMARK                            x       y       z     vdW  Elec       q    Type
REMARK                         _______ _______ _______ _____ _____    ______ ____
ROOT
ATOM      1  N   UNL     1       1.478  -2.501   1.945  0.00  0.00    -0.313 N 
ATOM      2  C   UNL     1       0.833  -2.024   3.171  0.00  0.00    +0.131 C 
ATOM      3  C   UNL     1       2.557  -3.375   2.022  0.00  0.00    +0.152 A 
ATOM      4  C   UNL     1       3.837  -2.873   2.228  0.00  0.00    +0.167 A 
ATOM      5  C   UNL     1       4.901  -3.753   2.303  0.00  0.00    +0.053 A 
ATOM      6  C   UNL     1       4.647  -5.113   2.168  0.00  0.00    +0.038 A 
ATOM      7  C   UNL     1       3.350  -5.542   1.965  0.00  0.00    +0.128 A 
ATOM      8  N   UNL     1       2.354  -4.678   1.903  0.00  0.00    -0.237 NA
ATOM      9 BR   UNL     1       6.063  -6.363   2.261  0.00  0.00    -0.049 Br
ENDROOT
BRANCH   1  15
ATOM     10  C   UNL     1       0.471   1.464  -0.831  0.00  0.00    +0.007 C 
ATOM     11  C   UNL     1       0.472  -0.065  -0.779  0.00  0.00    -0.012 C 
ATOM     12  C   UNL     1      -0.952  -0.583  -0.991  0.00  0.00    +0.003 C 
ATOM     13  C   UNL     1      -0.951  -2.112  -0.939  0.00  0.00    +0.002 C 
ATOM     14  C   UNL     1      -0.437  -2.576   0.426  0.00  0.00    +0.022 C 
ATOM     15  C   UNL     1       0.986  -2.057   0.638  0.00  0.00    +0.075 C 
ATOM     16  C   UNL     1       0.985  -0.528   0.586  0.00  0.00    +0.025 C 
ENDBRANCH   1  15
BRANCH   4  17
ATOM     17  N   UNL     1       4.059  -1.416   2.365  0.00  0.00    +0.060 N 
ATOM     18  O   UNL     1       5.184  -0.979   2.429  0.00  0.00    -0.126 OA
ATOM     19  O   UNL     1       3.114  -0.663   2.412  0.00  0.00    -0.126 OA
ENDBRANCH   4  17
TORSDOF 2
