REMARK  Name = ZINC04837657
REMARK  5 active torsions:
REMARK  status: ('A' for Active; 'I' for Inactive)
REMARK    1  A    between atoms: C_8  and  C_12
REMARK    2  A    between atoms: C_15  and  C_17
REMARK    3  A    between atoms: C_17  and  C_26
REMARK    4  A    between atoms: C_18  and  C_19
REMARK    5  A    between atoms: C_22  and  O_25
REMARK                            x       y       z     vdW  Elec       q    Type
REMARK                         _______ _______ _______ _____ _____    ______ ____
ROOT
ATOM      1  C   UNL     1      -2.457   0.974   0.566  0.00  0.00    +0.086 A 
ATOM      2  C   UNL     1      -3.629   1.639   0.829  0.00  0.00    +0.075 A 
ATOM      3  S   UNL     1      -4.810   0.307   0.664  0.00  0.00    -0.074 S 
ATOM      4  C   UNL     1      -3.638  -0.983   0.266  0.00  0.00    +0.119 A 
ATOM      5  N   UNL     1      -2.494  -0.315   0.287  0.00  0.00    -0.238 NA
ENDROOT
BRANCH   1  13
ATOM      6  C   UNL     1       3.633   1.907   0.121  0.00  0.00    +0.001 A 
ATOM      7  C   UNL     1       3.602   3.263   0.415  0.00  0.00    +0.004 A 
ATOM      8  C   UNL     1       2.407   3.898   0.680  0.00  0.00    +0.047 A 
ATOM      9  C   UNL     1       1.218   3.178   0.654  0.00  0.00    +0.139 A 
ATOM     10  C   UNL     1       1.253   1.804   0.356  0.00  0.00    +0.018 A 
ATOM     11  C   UNL     1       2.478   1.179   0.090  0.00  0.00    +0.011 A 
ATOM     12  C   UNL     1       0.006   1.039   0.326  0.00  0.00    +0.028 A 
ATOM     13  C   UNL     1      -1.165   1.699   0.588  0.00  0.00    +0.086 A 
ATOM     14  C   UNL     1      -1.120   3.131   0.896  0.00  0.00    +0.347 A 
ATOM     15  O   UNL     1      -2.154   3.727   1.136  0.00  0.00    -0.244 OA
ATOM     16  O   UNL     1       0.046   3.795   0.913  0.00  0.00    -0.422 OA
ENDBRANCH   1  13
BRANCH   4  17
ATOM     17  C   UNL     1      -3.881  -2.409  -0.017  0.00  0.00    +0.084 C 
ATOM     18  C   UNL     1      -5.154  -2.902   0.008  0.00  0.00    +0.029 C 
BRANCH  18  19
ATOM     19  C   UNL     1      -5.383  -4.346  -0.110  0.00  0.00    -0.024 A 
ATOM     20  C   UNL     1      -6.500  -4.826  -0.806  0.00  0.00    +0.011 A 
ATOM     21  C   UNL     1      -6.707  -6.182  -0.918  0.00  0.00    +0.046 A 
ATOM     22  C   UNL     1      -5.816  -7.075  -0.334  0.00  0.00    +0.117 A 
ATOM     23  C   UNL     1      -4.708  -6.605   0.362  0.00  0.00    +0.046 A 
ATOM     24  C   UNL     1      -4.488  -5.251   0.476  0.00  0.00    +0.011 A 
BRANCH  22  25
ATOM     25  O   UNL     1      -6.028  -8.412  -0.444  0.00  0.00    -0.507 OA
ATOM     26  H   UNL     1      -6.564  -8.784   0.270  0.00  0.00    +0.292 HD
ENDBRANCH  22  25
ENDBRANCH  18  19
BRANCH  17  27
ATOM     27  C   UNL     1      -2.783  -3.277  -0.317  0.00  0.00    +0.102 C 
ATOM     28  N   UNL     1      -1.911  -3.966  -0.555  0.00  0.00    -0.191 NA
ENDBRANCH  17  27
ENDBRANCH   4  17
TORSDOF 5
