REMARK  Name = ZINC39747722
REMARK  9 active torsions:
REMARK  status: ('A' for Active; 'I' for Inactive)
REMARK    1  A    between atoms: C_1  and  C_2
REMARK    2  A    between atoms: C_2  and  C_3
REMARK    3  A    between atoms: C_10  and  C_12
REMARK    4  A    between atoms: C_12  and  C_14
REMARK    5  A    between atoms: C_12  and  N_15
REMARK    6  A    between atoms: N_15  and  C_16
REMARK    7  A    between atoms: C_16  and  C_17
REMARK    8  A    between atoms: C_17  and  C_19
REMARK    9  A    between atoms: C_17  and  C_25
REMARK                            x       y       z     vdW  Elec       q    Type
REMARK                         _______ _______ _______ _____ _____    ______ ____
ROOT
ATOM      1  C   UNL     1      -3.820   2.583  -3.949  0.00  0.00    -0.072 C 
ENDROOT
BRANCH   1   2
ATOM      2  N   UNL     1      -2.907   2.098  -2.905  0.00  0.00    +0.387 N 
ATOM      3  H   UNL     1      -3.421   1.535  -2.244  0.00  0.00    -0.085 HD
ATOM      4  H   UNL     1      -2.495   2.885  -2.427  0.00  0.00    -0.085 HD
BRANCH   2   5
ATOM      5  C   UNL     1      -1.847   1.288  -3.519  0.00  0.00    +0.013 C 
ATOM      6  C   UNL     1      -0.991   2.172  -4.427  0.00  0.00    -0.004 C 
BRANCH   5  13
ATOM      7  C   UNL     1       0.548  -1.047  -1.644  0.00  0.00    +0.076 C 
ATOM      8  C   UNL     1       0.218  -2.543  -1.673  0.00  0.00    +0.022 C 
ATOM      9  C   UNL     1       0.490  -3.094  -3.075  0.00  0.00    +0.003 C 
ATOM     10  C   UNL     1      -0.408  -2.381  -4.088  0.00  0.00    +0.019 C 
ATOM     11  C   UNL     1      -0.085  -0.884  -4.087  0.00  0.00    +0.108 C 
ATOM     12  N   UNL     1      -0.201  -0.373  -2.713  0.00  0.00    -0.300 N 
ATOM     13  C   UNL     1      -0.983   0.690  -2.439  0.00  0.00    +0.202 C 
ATOM     14  O   UNL     1      -0.991   1.165  -1.323  0.00  0.00    -0.277 OA
BRANCH   7  16
ATOM     15  C   UNL     1       0.920  -1.173   0.823  0.00  0.00    +0.006 C 
ATOM     16  C   UNL     1       0.149  -0.460  -0.289  0.00  0.00    +0.019 C 
ENDBRANCH   7  16
ENDBRANCH   5  13
ENDBRANCH   2   5
ENDBRANCH   1   2
BRANCH   1  17
ATOM     17  C   UNL     1      -4.924   3.427  -3.309  0.00  0.00    +0.018 C 
BRANCH  17  18
ATOM     18  C   UNL     1      -5.928   3.822  -4.361  0.00  0.00    -0.020 A 
ATOM     19  C   UNL     1      -7.356   3.495  -4.370  0.00  0.00    +0.003 A 
ATOM     20  C   UNL     1      -8.194   2.784  -3.509  0.00  0.00    +0.010 A 
ATOM     21  C   UNL     1      -9.521   2.654  -3.808  0.00  0.00    +0.001 A 
ATOM     22  C   UNL     1     -10.043   3.222  -4.962  0.00  0.00    +0.002 A 
ATOM     23  C   UNL     1      -9.233   3.927  -5.826  0.00  0.00    +0.026 A 
ATOM     24  C   UNL     1      -7.880   4.072  -5.541  0.00  0.00    +0.047 A 
ATOM     25  N   UNL     1      -6.838   4.701  -6.185  0.00  0.00    -0.360 N 
ATOM     26  C   UNL     1      -5.685   4.546  -5.465  0.00  0.00    +0.087 A 
ATOM     27  H   UNL     1      -6.911   5.185  -7.023  0.00  0.00    +0.165 HD
ENDBRANCH  17  18
BRANCH  17  28
ATOM     28  C   UNL     1      -4.311   4.686  -2.691  0.00  0.00    +0.060 C 
ATOM     29  C   UNL     1      -5.391   5.573  -2.017  0.00  0.00    +0.042 C 
ATOM     30  C   UNL     1      -5.109   7.022  -2.253  0.00  0.00    -0.019 C 
ATOM     31  C   UNL     1      -4.293   7.382  -3.226  0.00  0.00    +0.036 C 
ATOM     32  S   UNL     1      -3.740   5.865  -3.987  0.00  0.00    -0.129 S 
ENDBRANCH  17  28
ENDBRANCH   1  17
TORSDOF 7
