REMARK  Name = ZINC07612710
REMARK  12 active torsions:
REMARK  status: ('A' for Active; 'I' for Inactive)
REMARK    1  A    between atoms: C_1  and  C_2
REMARK    2  A    between atoms: C_2  and  N_46
REMARK    3  A    between atoms: C_3  and  C_4
REMARK    4  A    between atoms: C_3  and  N_46
REMARK    5  A    between atoms: C_5  and  C_6
REMARK    6  A    between atoms: C_5  and  N_46
REMARK    7  A    between atoms: C_6  and  C_7
REMARK    8  A    between atoms: C_7  and  C_8
REMARK    9  A    between atoms: C_8  and  C_10
REMARK   10  A    between atoms: C_8  and  N_11
REMARK   11  A    between atoms: N_11  and  S_12
REMARK   12  A    between atoms: S_12  and  C_15
REMARK                            x       y       z     vdW  Elec       q    Type
REMARK                         _______ _______ _______ _____ _____    ______ ____
ROOT
ATOM      1  N   UNL     1      -0.886   1.571  -1.468  0.00  0.00    -0.187 NA
ATOM      2  H   UNL     1      -1.249   0.810  -1.948  0.00  0.00    +0.148 HD
ENDROOT
BRANCH   1   3
ATOM      3  S   UNL     1       0.018   1.332  -0.101  0.00  0.00    +0.060 S 
ATOM      4  O   UNL     1       0.022  -0.068   0.144  0.00  0.00    -0.153 OA
ATOM      5  O   UNL     1       1.214   2.080  -0.269  0.00  0.00    -0.153 OA
BRANCH   3   6
ATOM      6  C   UNL     1      -0.856   2.074   1.238  0.00  0.00    +0.119 A 
ATOM      7  C   UNL     1      -1.749   1.324   1.981  0.00  0.00    +0.029 A 
ATOM      8  C   UNL     1      -2.431   1.905   3.033  0.00  0.00    +0.002 A 
ATOM      9  C   UNL     1      -2.229   3.238   3.337  0.00  0.00    +0.001 A 
ATOM     10  C   UNL     1      -1.340   3.990   2.591  0.00  0.00    +0.017 A 
ATOM     11  C   UNL     1      -0.653   3.408   1.541  0.00  0.00    +0.044 A 
ATOM     12 BR   UNL     1       0.561   4.436   0.520  0.00  0.00    -0.048 Br
ENDBRANCH   3   6
ENDBRANCH   1   3
BRANCH   1  13
ATOM     13  C   UNL     1      -1.136   2.930  -1.952  0.00  0.00    +0.073 C 
ATOM     14  C   UNL     1      -0.093   3.295  -3.010  0.00  0.00    +0.025 C 
BRANCH  13  15
ATOM     15  C   UNL     1      -2.535   3.003  -2.568  0.00  0.00    +0.018 C 
BRANCH  15  16
ATOM     16  C   UNL     1      -3.584   2.761  -1.481  0.00  0.00    -0.017 C 
BRANCH  16  17
ATOM     17  C   UNL     1      -4.982   2.833  -2.097  0.00  0.00    -0.079 C 
BRANCH  17  18
ATOM     18  N   UNL     1      -5.974   2.457  -1.067  0.00  0.00    +0.379 N 
ATOM     19  H   UNL     1      -5.618   1.649  -0.541  0.00  0.00    -0.082 HD
BRANCH  18  21
ATOM     20  C   UNL     1      -7.036   3.097   1.042  0.00  0.00    -0.017 C 
ATOM     21  C   UNL     1      -6.185   3.583  -0.133  0.00  0.00    -0.082 C 
ENDBRANCH  18  21
BRANCH  18  22
ATOM     22  C   UNL     1      -7.253   2.086  -1.708  0.00  0.00    -0.082 C 
ATOM     23  C   UNL     1      -7.119   0.677  -2.291  0.00  0.00    -0.017 C 
ENDBRANCH  18  22
ENDBRANCH  17  18
ENDBRANCH  16  17
ENDBRANCH  15  16
ENDBRANCH  13  15
ENDBRANCH   1  13
TORSDOF 9
