REMARK  Name = ZINC14372360
REMARK  7 active torsions:
REMARK  status: ('A' for Active; 'I' for Inactive)
REMARK    1  A    between atoms: C_1  and  C_2
REMARK    2  A    between atoms: C_5  and  C_8
REMARK    3  A    between atoms: N_13  and  C_14
REMARK    4  A    between atoms: C_14  and  C_15
REMARK    5  A    between atoms: N_17  and  C_18
REMARK    6  A    between atoms: N_17  and  C_19
REMARK    7  A    between atoms: C_19  and  C_20
REMARK                            x       y       z     vdW  Elec       q    Type
REMARK                         _______ _______ _______ _____ _____    ______ ____
ROOT
ATOM      1  C   UNL     1      -0.365   0.907   1.009  0.00  0.00    +0.236 C 
ATOM      2  O   UNL     1      -1.500   1.325   1.102  0.00  0.00    -0.274 OA
ATOM      3  N   UNL     1       0.266   0.425   2.098  0.00  0.00    -0.296 N 
ATOM      4  C   UNL     1       1.637  -0.080   1.986  0.00  0.00    +0.132 C 
ENDROOT
BRANCH   1   5
ATOM      5  C   UNL     1       0.339   0.928  -0.323  0.00  0.00    +0.219 C 
BRANCH   5  11
ATOM      6  C   UNL     1      -0.459   2.816  -1.680  0.00  0.00    +0.057 A 
ATOM      7  C   UNL     1      -1.290   3.319  -2.618  0.00  0.00    +0.074 A 
ATOM      8  S   UNL     1      -2.257   1.883  -3.054  0.00  0.00    -0.070 S 
ATOM      9  C   UNL     1      -1.474   0.716  -1.952  0.00  0.00    +0.126 A 
ATOM     10  S   UNL     1      -1.803  -0.949  -1.728  0.00  0.00    -0.025 S 
ATOM     11  N   UNL     1      -0.552   1.496  -1.338  0.00  0.00    -0.320 N 
BRANCH   6  16
ATOM     12  C   UNL     1       3.439   6.204   0.860  0.00  0.00    +0.044 C 
ATOM     13  C   UNL     1       2.419   5.316   0.195  0.00  0.00    -0.050 A 
ATOM     14  C   UNL     1       2.126   5.488  -1.147  0.00  0.00    +0.004 A 
ATOM     15  C   UNL     1       1.193   4.680  -1.761  0.00  0.00    +0.010 A 
ATOM     16  C   UNL     1       0.543   3.686  -1.027  0.00  0.00    -0.001 A 
ATOM     17  C   UNL     1       0.839   3.521   0.327  0.00  0.00    +0.010 A 
ATOM     18  C   UNL     1       1.779   4.333   0.928  0.00  0.00    +0.004 A 
ENDBRANCH   6  16
ENDBRANCH   5  11
ENDBRANCH   1   5
BRANCH   3  19
ATOM     19  C   UNL     1      -0.418   0.404   3.393  0.00  0.00    +0.181 C 
BRANCH  19  20
ATOM     20  C   UNL     1      -1.154  -0.901   3.551  0.00  0.00    +0.128 A 
ATOM     21  N   UNL     1      -1.856  -1.113   4.696  0.00  0.00    -0.309 N 
ATOM     22  H   UNL     1      -1.877  -0.435   5.389  0.00  0.00    +0.170 HD
ATOM     23  C   UNL     1      -2.525  -2.279   4.859  0.00  0.00    +0.266 A 
ATOM     24  O   UNL     1      -3.164  -2.499   5.874  0.00  0.00    -0.267 OA
ATOM     25  C   UNL     1      -2.463  -3.222   3.832  0.00  0.00    +0.102 A 
ATOM     26  C   UNL     1      -1.729  -2.978   2.658  0.00  0.00    +0.085 A 
ATOM     27  N   UNL     1      -1.091  -1.764   2.589  0.00  0.00    -0.232 NA
ATOM     28  C   UNL     1      -1.751  -4.009   1.708  0.00  0.00    +0.036 A 
ATOM     29  C   UNL     1      -2.445  -5.142   1.951  0.00  0.00    +0.048 A 
ATOM     30  S   UNL     1      -3.136  -4.841   3.569  0.00  0.00    -0.090 S 
ENDBRANCH  19  20
ENDBRANCH   3  19
TORSDOF 5
