REMARK  Name = ZINC16310370
REMARK  8 active torsions:
REMARK  status: ('A' for Active; 'I' for Inactive)
REMARK    1  A    between atoms: C_4  and  O_27
REMARK    2  A    between atoms: C_5  and  C_7
REMARK    3  A    between atoms: C_7  and  N_8
REMARK    4  A    between atoms: N_8  and  C_9
REMARK    5  A    between atoms: N_8  and  C_16
REMARK    6  A    between atoms: C_9  and  C_10
REMARK    7  A    between atoms: C_16  and  N_18
REMARK    8  A    between atoms: N_18  and  C_19
REMARK                            x       y       z     vdW  Elec       q    Type
REMARK                         _______ _______ _______ _____ _____    ______ ____
ROOT
ATOM      1  N   UNL     1      -4.514   1.637  -0.703  0.00  0.00    -0.306 N 
ENDROOT
BRANCH   1   2
ATOM      2  C   UNL     1      -5.208   2.565  -1.392  0.00  0.00    +0.138 C 
ATOM      3  S   UNL     1      -6.739   3.083  -0.828  0.00  0.00    -0.018 S 
BRANCH   2   4
ATOM      4  N   UNL     1      -4.695   3.087  -2.524  0.00  0.00    -0.296 N 
ATOM      5  H   UNL     1      -3.860   2.746  -2.880  0.00  0.00    +0.154 HD
BRANCH   4   6
ATOM      6  C   UNL     1      -5.369   4.120  -3.186  0.00  0.00    +0.051 A 
ATOM      7  C   UNL     1      -6.735   4.025  -3.416  0.00  0.00    +0.026 A 
ATOM      8  C   UNL     1      -7.398   5.048  -4.066  0.00  0.00    +0.022 A 
ATOM      9  C   UNL     1      -6.700   6.163  -4.496  0.00  0.00    +0.042 A 
ATOM     10  C   UNL     1      -5.338   6.259  -4.273  0.00  0.00    +0.041 A 
ATOM     11  C   UNL     1      -4.670   5.241  -3.619  0.00  0.00    +0.063 A 
ATOM     12 CL   UNL     1      -2.961   5.362  -3.339  0.00  0.00    -0.082 Cl
ATOM     13 CL   UNL     1      -7.536   7.443  -5.318  0.00  0.00    -0.083 Cl
ENDBRANCH   4   6
ENDBRANCH   2   4
ENDBRANCH   1   2
BRANCH   1  14
ATOM     14  C   UNL     1      -5.019   1.151   0.584  0.00  0.00    +0.145 C 
BRANCH  14  19
ATOM     15  C   UNL     1      -7.996  -1.114   0.076  0.00  0.00    +0.001 A 
ATOM     16  C   UNL     1      -7.389  -2.350  -0.044  0.00  0.00    +0.004 A 
ATOM     17  C   UNL     1      -6.014  -2.457   0.039  0.00  0.00    +0.046 A 
ATOM     18  C   UNL     1      -5.242  -1.322   0.237  0.00  0.00    +0.122 A 
ATOM     19  C   UNL     1      -5.854  -0.083   0.363  0.00  0.00    +0.011 A 
ATOM     20  C   UNL     1      -7.229   0.018   0.280  0.00  0.00    +0.009 A 
BRANCH  18  21
ATOM     21  O   UNL     1      -3.889  -1.423   0.312  0.00  0.00    -0.506 OA
ATOM     22  H   UNL     1      -3.555  -1.570   1.208  0.00  0.00    +0.292 HD
ENDBRANCH  18  21
ENDBRANCH  14  19
ENDBRANCH   1  14
BRANCH   1  23
ATOM     23  C   UNL     1      -3.257   1.113  -1.242  0.00  0.00    +0.138 C 
BRANCH  23  24
ATOM     24  C   UNL     1      -2.093   1.976  -0.751  0.00  0.00    +0.136 C 
ATOM     25  C   UNL     1      -0.781   1.510  -1.412  0.00  0.00    +0.035 C 
ATOM     26  C   UNL     1       0.132   1.135  -0.219  0.00  0.00    +0.031 C 
ATOM     27  C   UNL     1      -0.521   1.917   0.949  0.00  0.00    +0.160 C 
ATOM     28  O   UNL     1      -1.935   1.821   0.669  0.00  0.00    -0.375 OA
ENDBRANCH  23  24
ENDBRANCH   1  23
TORSDOF 8
