REMARK  Name = ZINC09424396
REMARK  10 active torsions:
REMARK  status: ('A' for Active; 'I' for Inactive)
REMARK    1  A    between atoms: C_1  and  N_68
REMARK    2  A    between atoms: C_2  and  N_68
REMARK    3  A    between atoms: C_3  and  C_4
REMARK    4  A    between atoms: C_3  and  N_68
REMARK    5  A    between atoms: C_4  and  C_5
REMARK    6  A    between atoms: C_5  and  N_6
REMARK    7  A    between atoms: C_13  and  C_17
REMARK    8  A    between atoms: C_27  and  S_29
REMARK    9  A    between atoms: S_29  and  C_30
REMARK   10  A    between atoms: C_30  and  C_31
REMARK                            x       y       z     vdW  Elec       q    Type
REMARK                         _______ _______ _______ _____ _____    ______ ____
ROOT
ATOM      1  N   UNL     1       2.301   1.494  -6.555  0.00  0.00    -0.328 N 
ATOM      2  C   UNL     1       2.188   1.270  -5.192  0.00  0.00    +0.138 A 
ATOM      3  C   UNL     1       1.015   1.580  -4.516  0.00  0.00    +0.080 A 
ATOM      4  C   UNL     1       0.894   1.356  -3.140  0.00  0.00    +0.094 A 
ATOM      5  C   UNL     1      -0.400   1.726  -2.537  0.00  0.00    +0.037 A 
ATOM      6  C   UNL     1      -0.785   1.607  -1.181  0.00  0.00    -0.030 A 
ATOM      7  C   UNL     1      -2.034   2.001  -0.800  0.00  0.00    -0.018 A 
ATOM      8  C   UNL     1      -2.922   2.519  -1.750  0.00  0.00    +0.076 A 
ATOM      9  N   UNL     1      -2.555   2.630  -3.019  0.00  0.00    -0.239 NA
ATOM     10  C   UNL     1      -1.359   2.259  -3.419  0.00  0.00    +0.112 A 
ATOM     11  S   UNL     1      -0.547   2.263  -4.998  0.00  0.00    -0.064 S 
ATOM     12  C   UNL     1      -2.212   1.777   0.687  0.00  0.00    +0.038 C 
ATOM     13  C   UNL     1      -0.779   1.605   1.244  0.00  0.00    +0.009 C 
ATOM     14  C   UNL     1      -0.013   1.086   0.008  0.00  0.00    +0.036 C 
ATOM     15  N   UNL     1       1.976   0.826  -2.525  0.00  0.00    -0.221 NA
ATOM     16  C   UNL     1       3.074   0.543  -3.195  0.00  0.00    +0.191 A 
ATOM     17  N   UNL     1       3.200   0.751  -4.500  0.00  0.00    -0.206 NA
ATOM     18  H   UNL     1       1.557   1.872  -7.048  0.00  0.00    +0.147 HD
ENDROOT
BRANCH   8  19
ATOM     19  C   UNL     1      -4.280   2.947  -1.334  0.00  0.00    +0.001 A 
ATOM     20  C   UNL     1      -4.957   2.250  -0.335  0.00  0.00    +0.010 A 
ATOM     21  C   UNL     1      -6.219   2.655   0.051  0.00  0.00    +0.001 A 
ATOM     22  C   UNL     1      -6.815   3.745  -0.558  0.00  0.00    +0.000 A 
ATOM     23  C   UNL     1      -6.149   4.437  -1.554  0.00  0.00    +0.001 A 
ATOM     24  C   UNL     1      -4.885   4.044  -1.944  0.00  0.00    +0.010 A 
ENDBRANCH   8  19
BRANCH   1  25
ATOM     25  C   UNL     1       3.547   1.160  -7.251  0.00  0.00    +0.101 C 
BRANCH  25  26
ATOM     26  C   UNL     1       3.409   1.503  -8.736  0.00  0.00    +0.000 C 
BRANCH  26  27
ATOM     27  C   UNL     1       4.710   1.155  -9.462  0.00  0.00    -0.078 C 
BRANCH  27  30
ATOM     28  C   UNL     1       5.873   1.389 -11.573  0.00  0.00    -0.097 C 
ATOM     29  C   UNL     1       3.575   0.628 -11.535  0.00  0.00    -0.097 C 
ATOM     30  N   UNL     1       4.568   1.512 -10.890  0.00  0.00    +0.376 N 
ATOM     31  H   UNL     1       4.245   2.484 -10.960  0.00  0.00    -0.083 HD
ENDBRANCH  27  30
ENDBRANCH  26  27
ENDBRANCH  25  26
ENDBRANCH   1  25
BRANCH  16  32
ATOM     32  S   UNL     1       4.439  -0.145  -2.318  0.00  0.00    -0.081 S 
BRANCH  32  33
ATOM     33  C   UNL     1       5.624  -0.327  -3.674  0.00  0.00    +0.112 C 
BRANCH  33  34
ATOM     34  C   UNL     1       6.906  -0.915  -3.144  0.00  0.00    -0.037 A 
ATOM     35  C   UNL     1       7.913  -0.083  -2.691  0.00  0.00    +0.004 A 
ATOM     36  C   UNL     1       9.087  -0.623  -2.200  0.00  0.00    +0.000 A 
ATOM     37  C   UNL     1       9.259  -1.994  -2.173  0.00  0.00    +0.000 A 
ATOM     38  C   UNL     1       8.255  -2.826  -2.632  0.00  0.00    +0.000 A 
ATOM     39  C   UNL     1       7.078  -2.286  -3.118  0.00  0.00    +0.004 A 
ENDBRANCH  33  34
ENDBRANCH  32  33
ENDBRANCH  16  32
TORSDOF 8
