REMARK  Name = ZINC44784862
REMARK  5 active torsions:
REMARK  status: ('A' for Active; 'I' for Inactive)
REMARK    1  A    between atoms: C_1  and  C_2
REMARK    2  A    between atoms: C_2  and  C_3
REMARK    3  A    between atoms: C_10  and  C_12
REMARK    4  A    between atoms: C_12  and  C_19
REMARK    5  A    between atoms: N_20  and  O_21
REMARK                            x       y       z     vdW  Elec       q    Type
REMARK                         _______ _______ _______ _____ _____    ______ ____
ROOT
ATOM      1  C   UNL     1       3.980   1.300  -0.035  0.00  0.00    +0.105 C 
ATOM      2  C   UNL     1       4.438   1.892  -1.384  0.00  0.00    +0.024 C 
ATOM      3  C   UNL     1       3.330   2.754  -1.927  0.00  0.00    +0.001 C 
ATOM      4  C   UNL     1       3.496   4.237  -1.546  0.00  0.00    +0.000 C 
ATOM      5  C   UNL     1       3.951   4.431  -0.086  0.00  0.00    +0.000 C 
ATOM      6  C   UNL     1       3.246   3.504   0.865  0.00  0.00    +0.001 C 
ATOM      7  C   UNL     1       4.117   2.247   1.062  0.00  0.00    +0.024 C 
ENDROOT
BRANCH   1  14
ATOM      8  C   UNL     1       0.431   0.191   0.892  0.00  0.00    +0.076 C 
ATOM      9  C   UNL     1      -0.218   0.932   2.065  0.00  0.00    +0.022 C 
ATOM     10  C   UNL     1       0.449   0.495   3.372  0.00  0.00    +0.003 C 
ATOM     11  C   UNL     1       1.935   0.859   3.334  0.00  0.00    +0.019 C 
ATOM     12  C   UNL     1       2.609   0.117   2.175  0.00  0.00    +0.108 C 
ATOM     13  N   UNL     1       1.883   0.415   0.933  0.00  0.00    -0.298 N 
ATOM     14  C   UNL     1       2.535   0.889  -0.148  0.00  0.00    +0.229 C 
ATOM     15  O   UNL     1       1.958   0.985  -1.210  0.00  0.00    -0.275 OA
BRANCH   8  17
ATOM     16  C   UNL     1      -1.653   0.549  -0.437  0.00  0.00    +0.006 C 
ATOM     17  C   UNL     1      -0.133   0.723  -0.426  0.00  0.00    +0.019 C 
ENDBRANCH   8  17
ENDBRANCH   1  14
BRANCH   1  18
ATOM     18  C   UNL     1       4.812   0.080   0.266  0.00  0.00    +0.147 C 
ATOM     19  N   UNL     1       5.469   0.004   1.376  0.00  0.00    -0.076 NA
ATOM     20  N   UNL     1       4.871  -0.955  -0.641  0.00  0.00    -0.343 N 
ATOM     21  H   UNL     1       4.437  -0.869  -1.504  0.00  0.00    +0.144 HD
ATOM     22  H   UNL     1       5.347  -1.770  -0.417  0.00  0.00    +0.144 HD
BRANCH  19  23
ATOM     23  O   UNL     1       6.250  -1.143   1.659  0.00  0.00    -0.408 OA
ATOM     24  H   UNL     1       6.705  -1.108   2.512  0.00  0.00    +0.328 HD
ENDBRANCH  19  23
ENDBRANCH   1  18
TORSDOF 4
