REMARK  Name = ZINC65398187
REMARK  5 active torsions:
REMARK  status: ('A' for Active; 'I' for Inactive)
REMARK    1  A    between atoms: C_1  and  C_2
REMARK    2  A    between atoms: C_2  and  C_3
REMARK    3  A    between atoms: C_2  and  C_4
REMARK    4  A    between atoms: C_6  and  C_10
REMARK    5  A    between atoms: C_15  and  N_18
REMARK                            x       y       z     vdW  Elec       q    Type
REMARK                         _______ _______ _______ _____ _____    ______ ____
ROOT
ATOM      1  C   UNL     1      -3.643  -3.075  -0.748  0.00  0.00    +0.240 C 
ATOM      2  O   UNL     1      -3.634  -3.827   0.204  0.00  0.00    -0.273 OA
ATOM      3  N   UNL     1      -3.913  -3.551  -1.979  0.00  0.00    -0.300 N 
ATOM      4  C   UNL     1      -3.922  -2.655  -3.143  0.00  0.00    +0.110 C 
ATOM      5  C   UNL     1      -5.258  -2.811  -3.875  0.00  0.00    +0.044 C 
ATOM      6  C   UNL     1      -5.480  -4.286  -4.217  0.00  0.00    +0.095 C 
ATOM      7  C   UNL     1      -5.537  -5.107  -2.926  0.00  0.00    +0.044 C 
ATOM      8  C   UNL     1      -4.199  -4.978  -2.184  0.00  0.00    +0.110 C 
ENDROOT
BRANCH   6   9
ATOM      9  N   UNL     1      -6.741  -4.434  -4.946  0.00  0.00    -0.289 N 
ATOM     10  C   UNL     1      -6.884  -4.954  -6.231  0.00  0.00    +0.070 A 
ATOM     11  C   UNL     1      -5.985  -5.455  -7.160  0.00  0.00    +0.028 A 
ATOM     12  C   UNL     1      -6.441  -5.910  -8.381  0.00  0.00    +0.002 A 
ATOM     13  C   UNL     1      -7.791  -5.867  -8.682  0.00  0.00    +0.002 A 
ATOM     14  C   UNL     1      -8.694  -5.369  -7.764  0.00  0.00    +0.028 A 
ATOM     15  C   UNL     1      -8.246  -4.911  -6.534  0.00  0.00    +0.067 A 
ATOM     16  N   UNL     1      -8.889  -4.366  -5.425  0.00  0.00    -0.306 N 
ATOM     17  H   UNL     1      -9.843  -4.212  -5.341  0.00  0.00    +0.170 HD
ATOM     18  C   UNL     1      -7.961  -4.096  -4.488  0.00  0.00    +0.328 A 
ATOM     19  O   UNL     1      -8.190  -3.616  -3.393  0.00  0.00    -0.247 OA
ENDBRANCH   6   9
BRANCH   1  22
ATOM     20  C   UNL     1      -1.412  -0.526   0.013  0.00  0.00    +0.126 C 
ATOM     21  C   UNL     1      -1.918  -1.291  -0.930  0.00  0.00    +0.048 C 
ATOM     22  C   UNL     1      -3.352  -1.609  -0.553  0.00  0.00    +0.204 C 
ATOM     23  N   UNL     1      -3.398  -1.245   0.886  0.00  0.00    -0.140 NA
ATOM     24  O   UNL     1      -2.305  -0.265   0.997  0.00  0.00    -0.410 OA
ATOM     25  H   UNL     1      -3.219  -2.049   1.469  0.00  0.00    +0.168 HD
BRANCH  20  27
ATOM     26  C   UNL     1      -0.019   1.526   0.010  0.00  0.00    +0.015 C 
ATOM     27  C   UNL     1       0.002  -0.004   0.002  0.00  0.00    +0.051 C 
ATOM     28  C   UNL     1       0.742  -0.511   1.242  0.00  0.00    +0.015 C 
ENDBRANCH  20  27
ENDBRANCH   1  22
TORSDOF 3
