REMARK  Name = ZINC09097106
REMARK  5 active torsions:
REMARK  status: ('A' for Active; 'I' for Inactive)
REMARK    1  A    between atoms: C_4  and  N_19
REMARK    2  A    between atoms: C_5  and  N_7
REMARK    3  A    between atoms: N_7  and  N_8
REMARK    4  A    between atoms: C_9  and  C_10
REMARK    5  A    between atoms: C_13  and  O_17
REMARK                            x       y       z     vdW  Elec       q    Type
REMARK                         _______ _______ _______ _____ _____    ______ ____
ROOT
ATOM      1  N   UNL     1      -0.108  -2.685   0.632  0.00  0.00    -0.190 NA
ATOM      2  C   UNL     1      -0.142  -3.964   0.855  0.00  0.00    +0.138 C 
ENDROOT
BRANCH   2   3
ATOM      3  C   UNL     1      -1.436  -4.649   1.025  0.00  0.00    -0.003 A 
ATOM      4  C   UNL     1      -2.628  -3.925   0.941  0.00  0.00    +0.028 A 
ATOM      5  C   UNL     1      -3.837  -4.570   1.101  0.00  0.00    +0.061 A 
ATOM      6  C   UNL     1      -3.870  -5.937   1.345  0.00  0.00    +0.145 A 
ATOM      7  C   UNL     1      -2.687  -6.661   1.429  0.00  0.00    +0.061 A 
ATOM      8  C   UNL     1      -1.474  -6.025   1.264  0.00  0.00    +0.028 A 
ATOM      9 BR   UNL     1      -2.740  -8.522   1.761  0.00  0.00    -0.046 Br
ATOM     10 BR   UNL     1      -5.451  -3.592   0.988  0.00  0.00    -0.046 Br
BRANCH   6  11
ATOM     11  O   UNL     1      -5.063  -6.569   1.503  0.00  0.00    -0.505 OA
ATOM     12  H   UNL     1      -5.441  -6.906   0.679  0.00  0.00    +0.292 HD
ENDBRANCH   6  11
ENDBRANCH   2   3
BRANCH   1  13
ATOM     13  N   UNL     1       1.122  -2.034   0.471  0.00  0.00    -0.236 N 
ATOM     14  H   UNL     1       1.948  -2.539   0.525  0.00  0.00    +0.174 HD
BRANCH  13  19
ATOM     15  C   UNL     1       0.023   1.443   0.030  0.00  0.00    +0.002 A 
ATOM     16  C   UNL     1       1.229   2.065  -0.242  0.00  0.00    +0.002 A 
ATOM     17  C   UNL     1       2.398   1.328  -0.278  0.00  0.00    +0.034 A 
ATOM     18  C   UNL     1       2.367  -0.032  -0.042  0.00  0.00    +0.149 A 
ATOM     19  C   UNL     1       1.158  -0.660   0.232  0.00  0.00    +0.078 A 
ATOM     20  C   UNL     1      -0.016   0.084   0.267  0.00  0.00    +0.027 A 
BRANCH  18  21
ATOM     21  N   UNL     1       3.620  -0.821  -0.081  0.00  0.00    +0.058 N 
ATOM     22  O   UNL     1       4.647  -0.344   0.342  0.00  0.00    -0.126 OA
ATOM     23  O   UNL     1       3.615  -1.941  -0.534  0.00  0.00    -0.126 OA
ENDBRANCH  18  21
ENDBRANCH  13  19
ENDBRANCH   1  13
TORSDOF 5
