REMARK  Name = ZINC36089908
REMARK  8 active torsions:
REMARK  status: ('A' for Active; 'I' for Inactive)
REMARK    1  A    between atoms: C_1  and  N_2
REMARK    2  A    between atoms: N_5  and  C_8
REMARK    3  A    between atoms: C_8  and  C_10
REMARK    4  A    between atoms: C_8  and  C_23
REMARK    5  A    between atoms: C_10  and  N_11
REMARK    6  A    between atoms: C_12  and  C_14
REMARK    7  A    between atoms: C_14  and  O_15
REMARK    8  A    between atoms: O_15  and  C_16
REMARK                            x       y       z     vdW  Elec       q    Type
REMARK                         _______ _______ _______ _____ _____    ______ ____
ROOT
ATOM      1  C   UNL     1       1.453  -3.974  -0.034  0.00  0.00    +0.110 C 
ENDROOT
BRANCH   1   6
ATOM      2  C   UNL     1      -0.133   1.333  -1.064  0.00  0.00    -0.096 C 
ATOM      3  N   UNL     1      -0.077  -0.094  -0.722  0.00  0.00    +0.379 N 
ATOM      4  C   UNL     1       0.423  -0.854  -1.876  0.00  0.00    -0.064 C 
ATOM      5  C   UNL     1       0.464  -2.343  -1.526  0.00  0.00    +0.066 C 
ATOM      6  N   UNL     1       1.343  -2.547  -0.366  0.00  0.00    -0.297 NA
ATOM      7  C   UNL     1       0.869  -1.773   0.790  0.00  0.00    +0.066 C 
ATOM      8  C   UNL     1       0.825  -0.288   0.421  0.00  0.00    -0.064 C 
ATOM      9  H   UNL     1      -1.001  -0.419  -0.480  0.00  0.00    -0.082 HD
ENDBRANCH   1   6
BRANCH   1  10
ATOM     10  C   UNL     1       0.076  -4.549   0.178  0.00  0.00    +0.008 A 
ATOM     11  C   UNL     1      -0.468  -5.676  -0.342  0.00  0.00    +0.013 A 
ATOM     12  C   UNL     1      -1.765  -6.012  -0.004  0.00  0.00    +0.008 A 
ATOM     13  C   UNL     1      -2.454  -5.205   0.840  0.00  0.00    +0.045 A 
ATOM     14  S   UNL     1      -1.258  -3.926   1.187  0.00  0.00    -0.100 S 
ENDBRANCH   1  10
BRANCH   1  15
ATOM     15  C   UNL     1       2.277  -4.138   1.245  0.00  0.00    +0.128 C 
BRANCH  15  16
ATOM     16  N   UNL     1       3.573  -3.474   1.079  0.00  0.00    -0.311 N 
ATOM     17  C   UNL     1       4.470  -3.488   2.085  0.00  0.00    +0.251 C 
ATOM     18  O   UNL     1       4.205  -4.050   3.126  0.00  0.00    -0.272 OA
ATOM     19  H   UNL     1       3.784  -3.025   0.246  0.00  0.00    +0.149 HD
BRANCH  17  20
ATOM     20  C   UNL     1       5.803  -2.805   1.915  0.00  0.00    +0.324 C 
BRANCH  20  21
ATOM     21  O   UNL     1       6.572  -2.958   3.109  0.00  0.00    -0.483 OA
BRANCH  21  22
ATOM     22  C   UNL     1       7.810  -2.397   3.122  0.00  0.00    +0.121 A 
ATOM     23  C   UNL     1       8.272  -1.708   2.010  0.00  0.00    +0.047 A 
ATOM     24  C   UNL     1       9.530  -1.138   2.025  0.00  0.00    +0.023 A 
ATOM     25  C   UNL     1      10.330  -1.254   3.148  0.00  0.00    +0.041 A 
ATOM     26  C   UNL     1       9.871  -1.941   4.258  0.00  0.00    +0.023 A 
ATOM     27  C   UNL     1       8.611  -2.506   4.249  0.00  0.00    +0.047 A 
ATOM     28 CL   UNL     1      11.911  -0.537   3.164  0.00  0.00    -0.084 Cl
ENDBRANCH  21  22
ENDBRANCH  20  21
ENDBRANCH  17  20
ENDBRANCH  15  16
ENDBRANCH   1  15
TORSDOF 7
