REMARK  Name = ZINC12470769
REMARK  7 active torsions:
REMARK  status: ('A' for Active; 'I' for Inactive)
REMARK    1  A    between atoms: C_1  and  O_2
REMARK    2  A    between atoms: O_2  and  C_3
REMARK    3  A    between atoms: C_7  and  C_9
REMARK    4  A    between atoms: C_9  and  N_58
REMARK    5  A    between atoms: C_10  and  N_58
REMARK    6  A    between atoms: N_21  and  C_24
REMARK    7  A    between atoms: C_24  and  C_25
REMARK                            x       y       z     vdW  Elec       q    Type
REMARK                         _______ _______ _______ _____ _____    ______ ____
ROOT
ATOM      1  C   UNL     1       5.286   0.641   0.335  0.00  0.00    -0.066 C 
ATOM      2  C   UNL     1       4.342  -0.232  -0.498  0.00  0.00    -0.011 C 
ATOM      3  C   UNL     1       2.901  -0.038  -0.024  0.00  0.00    +0.035 C 
ATOM      4  C   UNL     1       2.582   1.454  -0.013  0.00  0.00    -0.023 A 
ATOM      5  C   UNL     1       3.572   2.371  -0.019  0.00  0.00    -0.006 A 
ATOM      6  S   UNL     1       2.747   3.939  -0.005  0.00  0.00    -0.073 S 
ATOM      7  C   UNL     1       1.070   3.357   0.009  0.00  0.00    +0.116 A 
ATOM      8  C   UNL     1       1.210   1.960   0.001  0.00  0.00    +0.076 A 
ATOM      9  C   UNL     1      -0.015   1.215   0.009  0.00  0.00    +0.263 A 
ATOM     10  O   UNL     1       0.002  -0.004   0.002  0.00  0.00    -0.267 OA
ATOM     11  N   UNL     1      -1.183   1.883   0.018  0.00  0.00    -0.294 N 
ATOM     12  C   UNL     1      -1.220   3.240   0.030  0.00  0.00    +0.203 A 
ATOM     13  N   UNL     1      -0.122   3.947   0.023  0.00  0.00    -0.230 NA
ATOM     14  C   UNL     1       5.048   2.113  -0.033  0.00  0.00    +0.027 C 
ENDROOT
BRANCH   1  15
ATOM     15  N   UNL     1       6.682   0.274   0.033  0.00  0.00    +0.384 N 
ATOM     16  H   UNL     1       6.739  -0.738  -0.131  0.00  0.00    -0.085 HD
ATOM     17  H   UNL     1       6.989   0.774  -0.809  0.00  0.00    -0.085 HD
BRANCH  15  18
ATOM     18  C   UNL     1       7.562   0.634   1.161  0.00  0.00    -0.046 C 
BRANCH  18  23
ATOM     19  C   UNL     1      10.754  -1.363   0.846  0.00  0.00    +0.120 A 
ATOM     20  C   UNL     1      11.584  -0.455   0.204  0.00  0.00    +0.045 A 
ATOM     21  C   UNL     1      11.109   0.800  -0.123  0.00  0.00    +0.004 A 
ATOM     22  C   UNL     1       9.808   1.151   0.187  0.00  0.00    +0.002 A 
ATOM     23  C   UNL     1       8.979   0.248   0.825  0.00  0.00    -0.061 A 
ATOM     24  C   UNL     1       9.451  -1.007   1.161  0.00  0.00    +0.047 A 
BRANCH  19  26
ATOM     25  C   UNL     1      12.572  -2.896   0.818  0.00  0.00    +0.277 C 
ATOM     26  O   UNL     1      11.218  -2.599   1.169  0.00  0.00    -0.495 OA
ENDBRANCH  19  26
ENDBRANCH  18  23
ENDBRANCH  15  18
ENDBRANCH   1  15
BRANCH  11  27
ATOM     27  C   UNL     1      -2.440   1.131   0.020  0.00  0.00    +0.168 C 
BRANCH  27  28
ATOM     28  C   UNL     1      -2.864   0.866   1.442  0.00  0.00    +0.011 A 
ATOM     29  C   UNL     1      -3.638   1.623   2.232  0.00  0.00    +0.021 A 
ATOM     30  C   UNL     1      -3.928   1.176   3.586  0.00  0.00    -0.010 A 
ATOM     31  C   UNL     1      -4.712   1.809   4.580  0.00  0.00    +0.009 A 
ATOM     32  C   UNL     1      -4.876   1.240   5.803  0.00  0.00    +0.001 A 
ATOM     33  C   UNL     1      -4.285   0.025   6.123  0.00  0.00    +0.001 A 
ATOM     34  C   UNL     1      -3.512  -0.625   5.182  0.00  0.00    +0.015 A 
ATOM     35  C   UNL     1      -3.338  -0.058   3.938  0.00  0.00    +0.020 A 
ATOM     36  S   UNL     1      -2.462  -0.534   2.470  0.00  0.00    -0.091 S 
ENDBRANCH  27  28
ENDBRANCH  11  27
TORSDOF 6
