REMARK  Name = ZINC39464213
REMARK  6 active torsions:
REMARK  status: ('A' for Active; 'I' for Inactive)
REMARK    1  A    between atoms: C_4  and  C_7
REMARK    2  A    between atoms: C_7  and  P_8
REMARK    3  A    between atoms: C_16  and  S_25
REMARK    4  A    between atoms: C_17  and  O_24
REMARK    5  A    between atoms: S_25  and  O_28
REMARK    6  A    between atoms: O_28  and  C_29
REMARK                            x       y       z     vdW  Elec       q    Type
REMARK                         _______ _______ _______ _____ _____    ______ ____
ROOT
ATOM      1  P   UNL     1       3.643  -0.481   2.223  0.00  0.00    +0.289 P 
ATOM      2  O   UNL     1       2.724  -1.366   2.972  0.00  0.00    -0.271 OA
ATOM      3  N   UNL     1       5.115  -1.210   2.032  0.00  0.00    -0.179 NA
ATOM      4  N   UNL     1       5.965  -1.174   3.115  0.00  0.00    -0.226 NA
ATOM      5  C   UNL     1       7.230  -1.845   2.778  0.00  0.00    +0.108 C 
ATOM      6  C   UNL     1       8.015  -2.090   4.067  0.00  0.00    +0.052 C 
ATOM      7  C   UNL     1       8.128  -0.803   4.843  0.00  0.00    -0.039 A 
ATOM      8  C   UNL     1       9.109  -0.703   5.819  0.00  0.00    +0.038 A 
ATOM      9  C   UNL     1       9.247   0.457   6.554  0.00  0.00    +0.169 A 
ATOM     10  C   UNL     1       8.399   1.528   6.314  0.00  0.00    +0.145 A 
ATOM     11  C   UNL     1       7.420   1.426   5.339  0.00  0.00    +0.053 A 
ATOM     12  C   UNL     1       7.283   0.259   4.602  0.00  0.00    -0.020 A 
ATOM     13  C   UNL     1       6.203   0.201   3.554  0.00  0.00    +0.129 C 
ATOM     14  C   UNL     1       4.925   0.827   4.119  0.00  0.00    +0.194 C 
ATOM     15  O   UNL     1       3.933   0.875   3.073  0.00  0.00    -0.314 OA
ATOM     16  H   UNL     1       5.366  -1.642   1.201  0.00  0.00    +0.151 HD
ENDROOT
BRANCH   9  17
ATOM     17  S   UNL     1      10.495   0.576   7.792  0.00  0.00    +0.154 S 
ATOM     18  O   UNL     1       9.862   0.300   9.034  0.00  0.00    -0.131 OA
ATOM     19  O   UNL     1      11.607  -0.172   7.321  0.00  0.00    -0.131 OA
BRANCH  17  20
ATOM     20  O   UNL     1      10.939   2.031   7.844  0.00  0.00    -0.342 OA
BRANCH  20  21
ATOM     21  C   UNL     1      11.797   2.383   6.851  0.00  0.00    +0.157 A 
ATOM     22  C   UNL     1      13.166   2.367   7.077  0.00  0.00    +0.048 A 
ATOM     23  C   UNL     1      14.036   2.725   6.066  0.00  0.00    +0.004 A 
ATOM     24  C   UNL     1      13.544   3.099   4.829  0.00  0.00    +0.000 A 
ATOM     25  C   UNL     1      12.180   3.116   4.601  0.00  0.00    +0.004 A 
ATOM     26  C   UNL     1      11.306   2.753   5.607  0.00  0.00    +0.048 A 
ENDBRANCH  20  21
ENDBRANCH  17  20
ENDBRANCH   9  17
BRANCH  10  27
ATOM     27  O   UNL     1       8.527   2.674   7.033  0.00  0.00    -0.505 OA
ATOM     28  H   UNL     1       9.061   3.354   6.598  0.00  0.00    +0.292 HD
ENDBRANCH  10  27
BRANCH   1  29
ATOM     29  C   UNL     1       2.930  -0.065   0.598  0.00  0.00    +0.150 C 
BRANCH  29  33
ATOM     30  C   UNL     1      -0.739   2.051   1.149  0.00  0.00    +0.000 A 
ATOM     31  C   UNL     1       0.453   2.746   1.064  0.00  0.00    +0.000 A 
ATOM     32  C   UNL     1       1.641   2.061   0.886  0.00  0.00    +0.004 A 
ATOM     33  C   UNL     1       1.636   0.682   0.793  0.00  0.00    -0.037 A 
ATOM     34  C   UNL     1       0.444  -0.013   0.879  0.00  0.00    +0.004 A 
ATOM     35  C   UNL     1      -0.744   0.672   1.056  0.00  0.00    +0.000 A 
ENDBRANCH  29  33
ENDBRANCH   1  29
TORSDOF 6
