REMARK  Name = ZINC40568370
REMARK  6 active torsions:
REMARK  status: ('A' for Active; 'I' for Inactive)
REMARK    1  A    between atoms: C_1  and  C_2
REMARK    2  A    between atoms: C_7  and  O_8
REMARK    3  A    between atoms: O_8  and  C_9
REMARK    4  A    between atoms: C_9  and  C_11
REMARK    5  A    between atoms: C_12  and  N_29
REMARK    6  A    between atoms: C_16  and  C_20
REMARK                            x       y       z     vdW  Elec       q    Type
REMARK                         _______ _______ _______ _____ _____    ______ ____
ROOT
ATOM      1  C   UNL     1      -0.047  -0.093   4.781  0.00  0.00    +0.120 A 
ATOM      2  C   UNL     1      -0.254  -0.656   6.024  0.00  0.00    +0.056 A 
ATOM      3  C   UNL     1      -0.482   0.231   7.153  0.00  0.00    +0.033 A 
ATOM      4  C   UNL     1      -0.718  -0.119   8.514  0.00  0.00    -0.031 A 
ATOM      5  C   UNL     1      -0.903   0.861   9.429  0.00  0.00    -0.015 A 
ATOM      6  C   UNL     1      -0.872   2.211   9.027  0.00  0.00    +0.111 A 
ATOM      7  N   UNL     1      -0.656   2.535   7.758  0.00  0.00    -0.236 NA
ATOM      8  C   UNL     1      -0.465   1.610   6.846  0.00  0.00    +0.112 A 
ATOM      9  S   UNL     1      -0.145   1.657   5.099  0.00  0.00    -0.060 S 
ATOM     10  C   UNL     1      -1.138   0.572  10.890  0.00  0.00    +0.038 C 
ATOM     11  C   UNL     1      -1.575  -0.878  11.087  0.00  0.00    +0.005 C 
ATOM     12  C   UNL     1      -0.579  -1.788  10.359  0.00  0.00    +0.005 C 
ATOM     13  C   UNL     1      -0.753  -1.583   8.855  0.00  0.00    +0.036 C 
ENDROOT
BRANCH   6  14
ATOM     14  C   UNL     1      -1.081   3.275  10.026  0.00  0.00    +0.153 A 
ATOM     15  C   UNL     1      -0.480   4.497  10.030  0.00  0.00    +0.051 A 
ATOM     16  C   UNL     1      -0.970   5.186  11.156  0.00  0.00    +0.042 A 
ATOM     17  C   UNL     1      -1.837   4.360  11.778  0.00  0.00    +0.196 A 
ATOM     18  O   UNL     1      -1.905   3.210  11.090  0.00  0.00    -0.461 OA
ENDBRANCH   6  14
BRANCH   2  19
ATOM     19  N   UNL     1      -0.247  -2.033   6.192  0.00  0.00    -0.356 N 
ATOM     20  H   UNL     1       0.290  -2.590   5.607  0.00  0.00    +0.142 HD
ATOM     21  H   UNL     1      -0.778  -2.439   6.895  0.00  0.00    +0.142 HD
ENDBRANCH   2  19
BRANCH   1  22
ATOM     22  C   UNL     1       0.193  -0.749   3.552  0.00  0.00    +0.353 C 
ATOM     23  O   UNL     1       0.230  -1.965   3.507  0.00  0.00    -0.244 OA
BRANCH  22  24
ATOM     24  O   UNL     1       0.381  -0.026   2.427  0.00  0.00    -0.422 OA
BRANCH  24  31
ATOM     25  C   UNL     1       2.962  -0.917   1.702  0.00  0.00    +0.047 C 
ATOM     26  C   UNL     1       1.747  -1.158   0.842  0.00  0.00    -0.008 A 
ATOM     27  C   UNL     1       1.869  -1.844  -0.351  0.00  0.00    +0.007 A 
ATOM     28  C   UNL     1       0.756  -2.065  -1.140  0.00  0.00    +0.000 A 
ATOM     29  C   UNL     1      -0.483  -1.600  -0.737  0.00  0.00    +0.004 A 
ATOM     30  C   UNL     1      -0.611  -0.914   0.455  0.00  0.00    +0.046 A 
ATOM     31  C   UNL     1       0.505  -0.696   1.251  0.00  0.00    +0.135 A 
ENDBRANCH  24  31
ENDBRANCH  22  24
ENDBRANCH   1  22
TORSDOF 5
