REMARK  Name = ZINC47154152
REMARK  5 active torsions:
REMARK  status: ('A' for Active; 'I' for Inactive)
REMARK    1  A    between atoms: C_1  and  C_2
REMARK    2  A    between atoms: C_2  and  C_4
REMARK    3  A    between atoms: C_2  and  N_14
REMARK    4  A    between atoms: N_17  and  C_18
REMARK    5  A    between atoms: C_23  and  N_24
REMARK                            x       y       z     vdW  Elec       q    Type
REMARK                         _______ _______ _______ _____ _____    ______ ____
ROOT
ATOM      1  N   UNL     1      -1.379  -0.495   0.015  0.00  0.00    -0.293 N 
ATOM      2  C   UNL     1      -2.052  -0.638  -1.144  0.00  0.00    +0.304 C 
ATOM      3  O   UNL     1      -1.521  -0.343  -2.197  0.00  0.00    -0.252 OA
ATOM      4  N   UNL     1      -3.315  -1.109  -1.135  0.00  0.00    -0.268 N 
ATOM      5  H   UNL     1      -1.803  -0.731   0.855  0.00  0.00    +0.151 HD
ATOM      6  H   UNL     1      -3.711  -1.421  -0.306  0.00  0.00    +0.156 HD
ENDROOT
BRANCH   4   7
ATOM      7  C   UNL     1      -4.057  -1.148  -2.324  0.00  0.00    +0.057 A 
ATOM      8  C   UNL     1      -3.752  -0.281  -3.362  0.00  0.00    +0.045 A 
ATOM      9  C   UNL     1      -4.485  -0.321  -4.535  0.00  0.00    +0.043 A 
ATOM     10  C   UNL     1      -5.524  -1.224  -4.675  0.00  0.00    +0.022 A 
ATOM     11  C   UNL     1      -5.835  -2.091  -3.644  0.00  0.00    +0.026 A 
ATOM     12  C   UNL     1      -5.101  -2.061  -2.467  0.00  0.00    +0.051 A 
ATOM     13 CL   UNL     1      -4.101   0.765  -5.833  0.00  0.00    -0.083 Cl
BRANCH  12  14
ATOM     14  N   UNL     1      -5.410  -2.942  -1.425  0.00  0.00    -0.328 N 
ATOM     15  C   UNL     1      -6.388  -2.568  -0.393  0.00  0.00    +0.105 C 
ATOM     16  C   UNL     1      -7.455  -3.664  -0.305  0.00  0.00    +0.019 C 
ATOM     17  C   UNL     1      -6.775  -5.014  -0.066  0.00  0.00    +0.003 C 
ATOM     18  C   UNL     1      -5.849  -5.336  -1.242  0.00  0.00    +0.019 C 
ATOM     19  C   UNL     1      -4.769  -4.262  -1.344  0.00  0.00    +0.105 C 
ENDBRANCH  12  14
ENDBRANCH   4   7
BRANCH   1  21
ATOM     20  C   UNL     1      -0.032   1.546   0.001  0.00  0.00    +0.033 C 
ATOM     21  C   UNL     1      -0.006   0.017   0.005  0.00  0.00    +0.102 C 
BRANCH  21  22
ATOM     22  C   UNL     1       0.720  -0.470   1.233  0.00  0.00    -0.027 A 
ATOM     23  C   UNL     1       0.067  -0.518   2.451  0.00  0.00    +0.007 A 
ATOM     24  C   UNL     1       0.726  -0.962   3.579  0.00  0.00    +0.024 A 
ATOM     25  C   UNL     1       2.057  -1.367   3.497  0.00  0.00    +0.037 A 
ATOM     26  C   UNL     1       2.701  -1.314   2.268  0.00  0.00    -0.017 A 
ATOM     27  C   UNL     1       2.040  -0.875   1.143  0.00  0.00    +0.011 A 
ATOM     28  C   UNL     1       4.109  -1.810   2.505  0.00  0.00    +0.133 C 
ATOM     29  C   UNL     1       4.143  -2.130   3.984  0.00  0.00    +0.222 C 
ATOM     30  O   UNL     1       5.091  -2.560   4.607  0.00  0.00    -0.275 OA
ATOM     31  N   UNL     1       2.926  -1.847   4.478  0.00  0.00    -0.285 N 
ATOM     32  H   UNL     1       2.679  -1.964   5.409  0.00  0.00    +0.155 HD
ENDBRANCH  21  22
ENDBRANCH   1  21
TORSDOF 4
