REMARK  Name = ZINC40820185
REMARK  7 active torsions:
REMARK  status: ('A' for Active; 'I' for Inactive)
REMARK    1  A    between atoms: C_1  and  O_2
REMARK    2  A    between atoms: O_2  and  C_3
REMARK    3  A    between atoms: C_6  and  C_9
REMARK    4  A    between atoms: C_10  and  C_11
REMARK    5  A    between atoms: C_17  and  C_19
REMARK    6  A    between atoms: C_26  and  O_29
REMARK    7  A    between atoms: O_29  and  C_30
REMARK                            x       y       z     vdW  Elec       q    Type
REMARK                         _______ _______ _______ _____ _____    ______ ____
ROOT
ATOM      1  C   UNL     1       3.187  -4.484  -5.566  0.00  0.00    +0.240 C 
ATOM      2  O   UNL     1       3.684  -3.810  -6.449  0.00  0.00    -0.271 OA
ATOM      3  N   UNL     1       3.236  -5.830  -5.637  0.00  0.00    -0.291 N 
ATOM      4  C   UNL     1       2.672  -6.763  -4.646  0.00  0.00    +0.109 C 
ATOM      5  C   UNL     1       2.424  -8.075  -5.432  0.00  0.00    +0.021 C 
ATOM      6  C   UNL     1       3.646  -8.101  -6.388  0.00  0.00    +0.029 C 
ATOM      7  C   UNL     1       3.854  -6.608  -6.720  0.00  0.00    +0.109 C 
ENDROOT
BRANCH   7   8
ATOM      8  C   UNL     1       5.328  -6.303  -6.793  0.00  0.00    -0.002 A 
ATOM      9  C   UNL     1       6.098  -5.838  -5.797  0.00  0.00    +0.089 A 
ATOM     10  N   UNL     1       7.384  -5.683  -6.234  0.00  0.00    -0.360 N 
ATOM     11  H   UNL     1       8.122  -5.360  -5.693  0.00  0.00    +0.165 HD
ATOM     12  C   UNL     1       7.476  -6.054  -7.559  0.00  0.00    +0.047 A 
ATOM     13  C   UNL     1       6.194  -6.464  -7.964  0.00  0.00    +0.008 A 
ATOM     14  C   UNL     1       5.982  -6.904  -9.273  0.00  0.00    +0.056 A 
ATOM     15  C   UNL     1       7.039  -6.937 -10.161  0.00  0.00    +0.121 A 
ATOM     16  C   UNL     1       8.308  -6.533  -9.755  0.00  0.00    +0.047 A 
ATOM     17  C   UNL     1       8.527  -6.090  -8.470  0.00  0.00    +0.030 A 
BRANCH  15  18
ATOM     18  O   UNL     1       6.839  -7.365 -11.436  0.00  0.00    -0.495 OA
ATOM     19  C   UNL     1       7.975  -7.373 -12.303  0.00  0.00    +0.277 C 
ENDBRANCH  15  18
ENDBRANCH   7   8
BRANCH   1  21
ATOM     20  C   UNL     1       2.489  -2.489  -4.356  0.00  0.00    +0.013 C 
ATOM     21  C   UNL     1       2.538  -3.836  -4.427  0.00  0.00    +0.068 C 
BRANCH  20  25
ATOM     22  C   UNL     1       0.605  -0.606  -1.054  0.00  0.00    +0.120 A 
ATOM     23  C   UNL     1       1.172   0.166  -2.061  0.00  0.00    +0.046 A 
ATOM     24  C   UNL     1       1.785  -0.440  -3.135  0.00  0.00    +0.011 A 
ATOM     25  C   UNL     1       1.837  -1.836  -3.211  0.00  0.00    -0.025 A 
ATOM     26  C   UNL     1       1.264  -2.610  -2.195  0.00  0.00    +0.011 A 
ATOM     27  C   UNL     1       0.658  -1.994  -1.123  0.00  0.00    +0.046 A 
BRANCH  22  29
ATOM     28  C   UNL     1      -0.017   1.425   0.010  0.00  0.00    +0.277 C 
ATOM     29  O   UNL     1       0.002  -0.004   0.002  0.00  0.00    -0.495 OA
ENDBRANCH  22  29
ENDBRANCH  20  25
ENDBRANCH   1  21
TORSDOF 5
