REMARK  Name = ZINC22645975
REMARK  7 active torsions:
REMARK  status: ('A' for Active; 'I' for Inactive)
REMARK    1  A    between atoms: C_1  and  C_2
REMARK    2  A    between atoms: C_2  and  C_4
REMARK    3  A    between atoms: C_2  and  N_14
REMARK    4  A    between atoms: C_15  and  C_17
REMARK    5  A    between atoms: C_17  and  C_19
REMARK    6  A    between atoms: C_17  and  S_20
REMARK    7  A    between atoms: S_20  and  C_21
REMARK                            x       y       z     vdW  Elec       q    Type
REMARK                         _______ _______ _______ _____ _____    ______ ____
ROOT
ATOM      1  N   UNL     1       4.690   4.082  -0.599  0.00  0.00    -0.308 N 
ATOM      2  C   UNL     1       5.734   3.556  -1.269  0.00  0.00    +0.227 C 
ATOM      3  O   UNL     1       5.838   2.353  -1.383  0.00  0.00    -0.275 OA
ATOM      4  H   UNL     1       4.596   5.173  -0.496  0.00  0.00    +0.149 HD
ENDROOT
BRANCH   1   6
ATOM      5  C   UNL     1       4.122   2.789   1.397  0.00  0.00    +0.033 C 
ATOM      6  C   UNL     1       3.680   3.201  -0.008  0.00  0.00    +0.101 C 
BRANCH   6   7
ATOM      7  C   UNL     1       2.363   3.930   0.073  0.00  0.00    -0.020 A 
ATOM      8  C   UNL     1       2.337   5.287   0.172  0.00  0.00    +0.006 A 
ATOM      9  C   UNL     1       1.129   5.978   0.248  0.00  0.00    +0.001 A 
ATOM     10  C   UNL     1      -0.060   5.315   0.225  0.00  0.00    +0.008 A 
ATOM     11  C   UNL     1      -0.073   3.914   0.124  0.00  0.00    -0.018 A 
ATOM     12  C   UNL     1       1.156   3.211   0.047  0.00  0.00    -0.013 A 
ATOM     13  C   UNL     1       1.142   1.810  -0.055  0.00  0.00    +0.009 A 
ATOM     14  C   UNL     1      -0.046   1.147  -0.078  0.00  0.00    +0.001 A 
ATOM     15  C   UNL     1      -1.255   1.839  -0.008  0.00  0.00    +0.001 A 
ATOM     16  C   UNL     1      -1.280   3.196   0.097  0.00  0.00    +0.008 A 
ENDBRANCH   6   7
ENDBRANCH   1   6
BRANCH   2  17
ATOM     17  C   UNL     1       6.773   4.463  -1.877  0.00  0.00    +0.137 C 
ATOM     18  C   UNL     1       7.820   4.820  -0.819  0.00  0.00    +0.029 C 
BRANCH  17  19
ATOM     19  S   UNL     1       7.579   3.615  -3.263  0.00  0.00    -0.072 S 
BRANCH  19  20
ATOM     20  C   UNL     1       8.644   4.839  -3.950  0.00  0.00    +0.211 A 
ATOM     21  N   UNL     1       9.475   4.671  -5.022  0.00  0.00    -0.188 NA
ATOM     22  H   UNL     1       9.989   7.761  -4.150  0.00  0.00    +0.192 HD
ATOM     23  C   UNL     1      10.129   5.851  -5.239  0.00  0.00    +0.209 A 
ATOM     24  N   UNL     1       9.722   6.711  -4.339  0.00  0.00    -0.246 N 
ATOM     25  N   UNL     1       8.778   6.071  -3.524  0.00  0.00    -0.144 NA
ATOM     26  N   UNL     1      11.061   6.096  -6.239  0.00  0.00    -0.328 N 
ATOM     27  H   UNL     1      11.529   7.088  -6.324  0.00  0.00    +0.145 HD
ATOM     28  H   UNL     1      11.332   5.298  -6.946  0.00  0.00    +0.145 HD
ENDBRANCH  19  20
ENDBRANCH  17  19
ENDBRANCH   2  17
TORSDOF 5
