REMARK  Name = ZINC44163930
REMARK  6 active torsions:
REMARK  status: ('A' for Active; 'I' for Inactive)
REMARK    1  A    between atoms: C_1  and  O_2
REMARK    2  A    between atoms: O_2  and  C_3
REMARK    3  A    between atoms: C_8  and  C_9
REMARK    4  A    between atoms: C_14  and  C_17
REMARK    5  A    between atoms: N_19  and  C_20
REMARK    6  A    between atoms: C_20  and  C_21
REMARK                            x       y       z     vdW  Elec       q    Type
REMARK                         _______ _______ _______ _____ _____    ______ ____
ROOT
ATOM      1  C   UNL     1       0.037  -2.829  -0.072  0.00  0.00    -0.026 C 
ATOM      2  C   UNL     1       1.011  -2.866   1.112  0.00  0.00    +0.058 C 
ATOM      3  S   UNL     1       0.234  -3.812   2.459  0.00  0.00    -0.163 S 
ATOM      4  C   UNL     1      -0.318  -5.328   1.615  0.00  0.00    +0.062 C 
ATOM      5  C   UNL     1      -1.093  -4.921   0.356  0.00  0.00    +0.027 C 
ATOM      6  N   UNL     1      -0.210  -4.189  -0.555  0.00  0.00    +0.392 N 
ATOM      7  H   UNL     1      -0.641  -4.143  -1.466  0.00  0.00    -0.084 HD
ATOM      8  H   UNL     1       0.669  -4.678  -0.630  0.00  0.00    -0.084 HD
ENDROOT
BRANCH   1  14
ATOM      9  C   UNL     1       0.572  -0.619  -1.130  0.00  0.00    +0.122 A 
ATOM     10  C   UNL     1       1.126   0.138  -2.152  0.00  0.00    +0.046 A 
ATOM     11  C   UNL     1       1.731  -0.489  -3.224  0.00  0.00    +0.004 A 
ATOM     12  C   UNL     1       1.786  -1.869  -3.278  0.00  0.00    +0.000 A 
ATOM     13  C   UNL     1       1.234  -2.626  -2.261  0.00  0.00    +0.005 A 
ATOM     14  C   UNL     1       0.633  -2.004  -1.184  0.00  0.00    -0.019 A 
BRANCH   9  16
ATOM     15  C   UNL     1      -0.049   1.424  -0.085  0.00  0.00    +0.277 C 
ATOM     16  O   UNL     1      -0.024  -0.004  -0.074  0.00  0.00    -0.495 OA
ENDBRANCH   9  16
ENDBRANCH   1  14
BRANCH   5  17
ATOM     17  C   UNL     1      -2.253  -4.042   0.744  0.00  0.00    +0.200 C 
ATOM     18  O   UNL     1      -2.586  -3.125   0.024  0.00  0.00    -0.278 OA
ATOM     19  N   UNL     1      -2.920  -4.274   1.892  0.00  0.00    -0.313 N 
ATOM     20  H   UNL     1      -2.654  -5.007   2.468  0.00  0.00    +0.149 HD
BRANCH  19  21
ATOM     21  C   UNL     1      -4.048  -3.418   2.269  0.00  0.00    +0.139 C 
BRANCH  21  22
ATOM     22  C   UNL     1      -4.615  -3.886   3.585  0.00  0.00    -0.027 A 
ATOM     23  C   UNL     1      -5.620  -4.836   3.604  0.00  0.00    +0.009 A 
ATOM     24  C   UNL     1      -6.144  -5.269   4.808  0.00  0.00    +0.050 A 
ATOM     25  C   UNL     1      -5.662  -4.751   5.999  0.00  0.00    +0.166 A 
ATOM     26  C   UNL     1      -4.650  -3.795   5.980  0.00  0.00    +0.167 A 
ATOM     27  C   UNL     1      -4.126  -3.370   4.770  0.00  0.00    +0.054 A 
ATOM     28  O   UNL     1      -4.353  -3.447   7.266  0.00  0.00    -0.453 OA
ATOM     29  C   UNL     1      -5.472  -3.897   8.053  0.00  0.00    +0.466 C 
ATOM     30  O   UNL     1      -6.000  -5.003   7.298  0.00  0.00    -0.453 OA
ENDBRANCH  21  22
ENDBRANCH  19  21
ENDBRANCH   5  17
TORSDOF 5
