REMARK  Name = ZINC20356214
REMARK  8 active torsions:
REMARK  status: ('A' for Active; 'I' for Inactive)
REMARK    1  A    between atoms: C_1  and  O_2
REMARK    2  A    between atoms: O_2  and  C_3
REMARK    3  A    between atoms: C_5  and  C_19
REMARK    4  A    between atoms: C_8  and  O_9
REMARK    5  A    between atoms: O_9  and  C_10
REMARK    6  A    between atoms: C_10  and  C_11
REMARK    7  A    between atoms: C_11  and  O_12
REMARK    8  A    between atoms: O_12  and  C_13
REMARK                            x       y       z     vdW  Elec       q    Type
REMARK                         _______ _______ _______ _____ _____    ______ ____
ROOT
ATOM      1  C   UNL     1       0.389  -0.401  -1.222  0.00  0.00    +0.162 A 
ATOM      2  C   UNL     1       0.900   0.326  -2.278  0.00  0.00    +0.057 A 
ATOM      3  C   UNL     1       1.727  -0.301  -3.220  0.00  0.00    -0.021 A 
ATOM      4  C   UNL     1       2.029  -1.664  -3.084  0.00  0.00    +0.012 A 
ATOM      5  C   UNL     1       1.513  -2.380  -2.028  0.00  0.00    +0.050 A 
ATOM      6  C   UNL     1       0.698  -1.755  -1.092  0.00  0.00    +0.162 A 
ENDROOT
BRANCH   3   7
ATOM      7  C   UNL     1       2.274   0.464  -4.343  0.00  0.00    +0.024 C 
ATOM      8  C   UNL     1       2.476  -0.148  -5.560  0.00  0.00    +0.081 C 
ATOM      9  C   UNL     1       1.987  -1.529  -5.835  0.00  0.00    +0.153 C 
ATOM     10  N   UNL     1       0.891  -2.018  -5.318  0.00  0.00    -0.283 NA
ATOM     11  N   UNL     1       2.823  -2.255  -6.709  0.00  0.00    -0.150 N 
ATOM     12  C   UNL     1       3.634  -1.535  -7.558  0.00  0.00    +0.182 C 
ATOM     13  N   UNL     1       3.802  -0.236  -7.592  0.00  0.00    -0.152 NA
ATOM     14  C   UNL     1       3.187   0.534  -6.670  0.00  0.00    +0.273 C 
ATOM     15  O   UNL     1       3.218   1.752  -6.743  0.00  0.00    -0.268 OA
ATOM     16  S   UNL     1       4.377  -2.812  -8.538  0.00  0.00    -0.018 S 
ATOM     17  C   UNL     1       3.646  -4.210  -7.697  0.00  0.00    +0.182 C 
ATOM     18  N   UNL     1       2.892  -3.629  -6.798  0.00  0.00    -0.149 NA
ATOM     19  N   UNL     1       3.830  -5.562  -7.936  0.00  0.00    -0.308 N 
ATOM     20  C   UNL     1       3.182  -6.658  -7.200  0.00  0.00    +0.107 C 
ATOM     21  C   UNL     1       3.706  -7.982  -7.795  0.00  0.00    +0.020 C 
ATOM     22  C   UNL     1       5.046  -7.561  -8.454  0.00  0.00    +0.020 C 
ATOM     23  C   UNL     1       4.702  -6.141  -8.975  0.00  0.00    +0.107 C 
ATOM     24  H   UNL     1       0.618  -2.924  -5.531  0.00  0.00    +0.188 HD
ENDBRANCH   3   7
BRANCH   1  26
ATOM     25  C   UNL     1      -0.689   1.593  -0.501  0.00  0.00    +0.277 C 
ATOM     26  O   UNL     1      -0.414   0.204  -0.306  0.00  0.00    -0.491 OA
ENDBRANCH   1  26
BRANCH   6  27
ATOM     27  O   UNL     1       0.197  -2.466  -0.050  0.00  0.00    -0.485 OA
BRANCH  27  28
ATOM     28  C   UNL     1       0.553  -3.848   0.024  0.00  0.00    +0.270 C 
BRANCH  28  29
ATOM     29  C   UNL     1      -0.100  -4.478   1.255  0.00  0.00    +0.270 C 
BRANCH  29  30
ATOM     30  O   UNL     1      -1.521  -4.462   1.101  0.00  0.00    -0.489 OA
BRANCH  30  31
ATOM     31  C   UNL     1      -2.257  -4.989   2.115  0.00  0.00    +0.121 A 
ATOM     32  C   UNL     1      -1.626  -5.506   3.237  0.00  0.00    +0.045 A 
ATOM     33  C   UNL     1      -2.377  -6.041   4.266  0.00  0.00    +0.004 A 
ATOM     34  C   UNL     1      -3.756  -6.061   4.178  0.00  0.00    +0.000 A 
ATOM     35  C   UNL     1      -4.388  -5.547   3.060  0.00  0.00    +0.004 A 
ATOM     36  C   UNL     1      -3.642  -5.006   2.031  0.00  0.00    +0.045 A 
ENDBRANCH  30  31
ENDBRANCH  29  30
ENDBRANCH  28  29
ENDBRANCH  27  28
ENDBRANCH   6  27
TORSDOF 7
