REMARK  Name = ZINC09915638
REMARK  12 active torsions:
REMARK  status: ('A' for Active; 'I' for Inactive)
REMARK    1  A    between atoms: C_1  and  C_2
REMARK    2  A    between atoms: C_2  and  C_26
REMARK    3  A    between atoms: C_3  and  C_24
REMARK    4  A    between atoms: C_3  and  O_25
REMARK    5  A    between atoms: C_4  and  C_22
REMARK    6  A    between atoms: C_4  and  O_23
REMARK    7  A    between atoms: C_5  and  C_20
REMARK    8  A    between atoms: C_5  and  O_21
REMARK    9  A    between atoms: C_6  and  C_8
REMARK   10  A    between atoms: C_6  and  O_9
REMARK   11  A    between atoms: O_9  and  C_10
REMARK   12  A    between atoms: C_26  and  O_27
REMARK                            x       y       z     vdW  Elec       q    Type
REMARK                         _______ _______ _______ _____ _____    ______ ____
ROOT
ATOM      1  C   UNL     1      -0.884   1.232  -2.855  0.00  0.00    +0.047 C 
ATOM      2  C   UNL     1      -2.288   0.741  -2.480  0.00  0.00    +0.125 C 
ATOM      3  C   UNL     1      -3.320   1.812  -2.797  0.00  0.00    +0.125 C 
ATOM      4  C   UNL     1      -3.570   2.810  -1.677  0.00  0.00    +0.129 C 
ATOM      5  C   UNL     1      -3.587   2.169  -0.295  0.00  0.00    +0.159 C 
ATOM      6  C   UNL     1      -2.386   1.246  -0.091  0.00  0.00    +0.242 C 
ATOM      7  O   UNL     1      -2.317   0.298  -1.139  0.00  0.00    -0.326 OA
ATOM      8  C   UNL     1      -2.581   0.493   1.239  0.00  0.00    +0.092 C 
ATOM      9  C   UNL     1      -3.548   3.275   0.770  0.00  0.00    +0.051 C 
ATOM     10  C   UNL     1      -2.549   3.951  -1.729  0.00  0.00    +0.047 C 
ATOM     11  C   UNL     1      -4.645   1.133  -3.182  0.00  0.00    +0.047 C 
ENDROOT
BRANCH   5  12
ATOM     12  O   UNL     1      -4.793   1.417  -0.120  0.00  0.00    -0.379 OA
ATOM     13  H   UNL     1      -4.884   1.017   0.755  0.00  0.00    +0.211 HD
ENDBRANCH   5  12
BRANCH   4  14
ATOM     14  O   UNL     1      -4.873   3.398  -1.899  0.00  0.00    -0.383 OA
ATOM     15  H   UNL     1      -5.113   4.077  -1.252  0.00  0.00    +0.210 HD
ENDBRANCH   4  14
BRANCH   3  16
ATOM     16  O   UNL     1      -2.863   2.543  -3.955  0.00  0.00    -0.383 OA
ATOM     17  H   UNL     1      -2.678   1.986  -4.723  0.00  0.00    +0.210 HD
ENDBRANCH   3  16
BRANCH   6  18
ATOM     18  O   UNL     1      -1.181   2.003   0.006  0.00  0.00    -0.458 OA
BRANCH  18  19
ATOM     19  C   UNL     1      -0.018   1.305   0.081  0.00  0.00    +0.132 A 
ATOM     20  C   UNL     1      -0.032  -0.061   0.037  0.00  0.00    +0.046 A 
ATOM     21  C   UNL     1       1.151  -0.791   0.106  0.00  0.00    +0.004 A 
ATOM     22  C   UNL     1       2.356  -0.167   0.220  0.00  0.00    +0.009 A 
ATOM     23  C   UNL     1       2.413   1.236   0.269  0.00  0.00    -0.014 A 
ATOM     24  C   UNL     1       1.211   1.984   0.198  0.00  0.00    +0.024 A 
ATOM     25  C   UNL     1       1.268   3.386   0.249  0.00  0.00    +0.012 A 
ATOM     26  C   UNL     1       2.474   4.008   0.363  0.00  0.00    +0.001 A 
ATOM     27  C   UNL     1       3.656   3.273   0.432  0.00  0.00    +0.001 A 
ATOM     28  C   UNL     1       3.639   1.913   0.387  0.00  0.00    +0.008 A 
ENDBRANCH  18  19
ENDBRANCH   6  18
BRANCH   2  29
ATOM     29  C   UNL     1      -2.593  -0.479  -3.381  0.00  0.00    +0.193 C 
BRANCH  29  30
ATOM     30  O   UNL     1      -1.645  -1.516  -3.117  0.00  0.00    -0.392 OA
ATOM     31  H   UNL     1      -1.776  -2.313  -3.647  0.00  0.00    +0.210 HD
ENDBRANCH  29  30
ENDBRANCH   2  29
TORSDOF 7
