REMARK  Name = ZINC62565259
REMARK  4 active torsions:
REMARK  status: ('A' for Active; 'I' for Inactive)
REMARK    1  A    between atoms: C_4  and  C_7
REMARK    2  A    between atoms: C_13  and  C_18
REMARK    3  A    between atoms: C_13  and  N_20
REMARK    4  A    between atoms: C_18  and  N_19
REMARK                            x       y       z     vdW  Elec       q    Type
REMARK                         _______ _______ _______ _____ _____    ______ ____
ROOT
ATOM      1  C   UNL     1       4.008  -0.660   0.486  0.00  0.00    -0.017 A 
ATOM      2  C   UNL     1       5.258  -0.044   0.497  0.00  0.00    +0.012 A 
ATOM      3  C   UNL     1       6.394  -0.802   0.320  0.00  0.00    +0.046 A 
ATOM      4  C   UNL     1       6.301  -2.179   0.132  0.00  0.00    +0.125 A 
ATOM      5  C   UNL     1       5.063  -2.795   0.125  0.00  0.00    +0.013 A 
ATOM      6  C   UNL     1       3.918  -2.037   0.304  0.00  0.00    +0.017 A 
ATOM      7  C   UNL     1       4.907  -4.282  -0.062  0.00  0.00    +0.035 C 
ATOM      8  C   UNL     1       6.129  -5.028   0.473  0.00  0.00    +0.028 C 
ATOM      9  C   UNL     1       7.154  -5.178  -0.660  0.00  0.00    +0.043 C 
ATOM     10  C   UNL     1       7.523  -3.775  -1.156  0.00  0.00    +0.229 C 
ATOM     11  O   UNL     1       7.450  -2.881  -0.042  0.00  0.00    -0.492 OA
ENDROOT
BRANCH   1  15
ATOM     12  C   UNL     1       0.482   1.655   1.024  0.00  0.00    +0.000 A 
ATOM     13  C   UNL     1       1.720   2.273   1.030  0.00  0.00    +0.001 A 
ATOM     14  C   UNL     1       2.868   1.526   0.856  0.00  0.00    +0.008 A 
ATOM     15  C   UNL     1       2.778   0.147   0.674  0.00  0.00    -0.018 A 
ATOM     16  C   UNL     1       1.528  -0.469   0.668  0.00  0.00    +0.008 A 
ATOM     17  C   UNL     1       0.387   0.287   0.843  0.00  0.00    +0.001 A 
ENDBRANCH   1  15
BRANCH   7  18
ATOM     18  N   UNL     1       4.750  -4.576  -1.493  0.00  0.00    -0.294 NA
ATOM     19  C   UNL     1       4.376  -5.997  -1.707  0.00  0.00    +0.085 C 
ATOM     20  C   UNL     1       3.756  -5.991  -3.127  0.00  0.00    +0.017 C 
ATOM     21  C   UNL     1       2.990  -4.648  -3.163  0.00  0.00    +0.017 C 
ATOM     22  C   UNL     1       3.653  -3.777  -2.081  0.00  0.00    +0.085 C 
ENDBRANCH   7  18
BRANCH   7  23
ATOM     23  C   UNL     1       3.660  -4.756   0.687  0.00  0.00    -0.059 C 
BRANCH  23  24
ATOM     24  N   UNL     1       3.758  -4.360   2.099  0.00  0.00    +0.380 N 
ATOM     25  H   UNL     1       2.983  -4.753   2.612  0.00  0.00    -0.090 HD
ATOM     26  H   UNL     1       4.625  -4.701   2.485  0.00  0.00    -0.090 HD
ATOM     27  H   UNL     1       3.731  -3.354   2.168  0.00  0.00    -0.090 HD
ENDBRANCH  23  24
ENDBRANCH   7  23
TORSDOF 4
