REMARK  Name = ZINC01421433
REMARK  3 active torsions:
REMARK  status: ('A' for Active; 'I' for Inactive)
REMARK    1  A    between atoms: C_11  and  C_27
REMARK    2  A    between atoms: C_17  and  C_22
REMARK    3  A    between atoms: C_31  and  O_33
REMARK                            x       y       z     vdW  Elec       q    Type
REMARK                         _______ _______ _______ _____ _____    ______ ____
ROOT
ATOM      1  C   UNL     1      -2.441   5.198   0.052  0.00  0.00    +0.001 A 
ATOM      2  C   UNL     1      -1.242   5.909   0.053  0.00  0.00    +0.001 A 
ATOM      3  C   UNL     1      -0.044   5.262   0.042  0.00  0.00    +0.009 A 
ATOM      4  C   UNL     1      -0.013   3.857   0.028  0.00  0.00    -0.012 A 
ATOM      5  C   UNL     1      -1.232   3.134   0.031  0.00  0.00    -0.017 A 
ATOM      6  C   UNL     1      -2.449   3.837   0.041  0.00  0.00    +0.008 A 
ATOM      7  C   UNL     1      -1.204   1.728   0.017  0.00  0.00    +0.010 A 
ATOM      8  C   UNL     1      -0.013   1.076   0.008  0.00  0.00    +0.024 A 
ATOM      9  C   UNL     1       1.198   1.782   0.000  0.00  0.00    +0.036 A 
ATOM     10  C   UNL     1       1.207   3.159   0.010  0.00  0.00    -0.007 A 
ATOM     11  C   UNL     1       2.503   3.917  -0.003  0.00  0.00    +0.086 C 
ATOM     12  C   UNL     1       3.661   3.042   0.401  0.00  0.00    +0.024 C 
ATOM     13  C   UNL     1       3.566   1.694   0.368  0.00  0.00    +0.016 C 
ATOM     14  N   UNL     1       2.406   1.085  -0.016  0.00  0.00    -0.317 N 
ATOM     15  C   UNL     1       4.737   0.822   0.750  0.00  0.00    +0.062 C 
ATOM     16  C   UNL     1       5.583   1.531   1.809  0.00  0.00    +0.068 C 
ATOM     17  C   UNL     1       6.050   2.874   1.238  0.00  0.00    +0.091 C 
ATOM     18  C   UNL     1       4.847   3.671   0.815  0.00  0.00    +0.162 C 
ATOM     19  O   UNL     1       4.901   4.885   0.832  0.00  0.00    -0.292 OA
ATOM     20  H   UNL     1       2.423   0.159  -0.303  0.00  0.00    +0.152 HD
ENDROOT
BRANCH  11  21
ATOM     21  C   UNL     1       2.748   4.446  -1.393  0.00  0.00    -0.032 A 
ATOM     22  C   UNL     1       2.902   3.568  -2.450  0.00  0.00    +0.005 A 
ATOM     23  C   UNL     1       3.122   4.051  -3.726  0.00  0.00    +0.004 A 
ATOM     24  C   UNL     1       3.198   5.412  -3.947  0.00  0.00    +0.045 A 
ATOM     25  C   UNL     1       3.049   6.295  -2.888  0.00  0.00    +0.117 A 
ATOM     26  C   UNL     1       2.823   5.809  -1.609  0.00  0.00    +0.050 A 
BRANCH  25  27
ATOM     27  O   UNL     1       3.123   7.635  -3.103  0.00  0.00    -0.507 OA
ATOM     28  H   UNL     1       4.016   7.998  -3.021  0.00  0.00    +0.292 HD
ENDBRANCH  25  27
ENDBRANCH  11  21
BRANCH  16  29
ATOM     29  C   UNL     1       6.780   0.685   2.157  0.00  0.00    +0.109 A 
ATOM     30  C   UNL     1       7.081   0.212   3.380  0.00  0.00    +0.045 A 
ATOM     31  C   UNL     1       8.280  -0.525   3.250  0.00  0.00    +0.041 A 
ATOM     32  C   UNL     1       8.640  -0.460   1.956  0.00  0.00    +0.195 A 
ATOM     33  O   UNL     1       7.725   0.270   1.297  0.00  0.00    -0.468 OA
ENDBRANCH  16  29
TORSDOF 3
