REMARK  Name = ZINC00709443
REMARK  4 active torsions:
REMARK  status: ('A' for Active; 'I' for Inactive)
REMARK    1  A    between atoms: C_4  and  C_7
REMARK    2  A    between atoms: C_7  and  C_9
REMARK    3  A    between atoms: C_9  and  S_10
REMARK    4  A    between atoms: S_10  and  C_11
REMARK                            x       y       z     vdW  Elec       q    Type
REMARK                         _______ _______ _______ _____ _____    ______ ____
ROOT
ATOM      1  C   UNL     1       1.118   2.298   4.955  0.00  0.00    +0.191 A 
ATOM      2  N   UNL     1       1.892   1.883   3.959  0.00  0.00    -0.207 NA
ATOM      3  C   UNL     1       1.398   1.533   2.784  0.00  0.00    +0.129 A 
ATOM      4  C   UNL     1      -0.008   1.601   2.573  0.00  0.00    +0.051 A 
ATOM      5  C   UNL     1      -0.769   1.260   1.361  0.00  0.00    -0.025 A 
ATOM      6  C   UNL     1      -2.102   1.429   1.418  0.00  0.00    -0.004 A 
ATOM      7  S   UNL     1      -2.431   2.013   3.061  0.00  0.00    -0.073 S 
ATOM      8  C   UNL     1      -0.766   2.051   3.670  0.00  0.00    +0.115 A 
ATOM      9  N   UNL     1      -0.199   2.382   4.814  0.00  0.00    -0.215 NA
ATOM     10  C   UNL     1      -3.103   1.181   0.332  0.00  0.00    +0.043 C 
ATOM     11  C   UNL     1      -2.858  -0.205  -0.279  0.00  0.00    +0.005 C 
ATOM     12  C   UNL     1      -1.871  -0.053  -1.431  0.00  0.00    +0.001 C 
ATOM     13  C   UNL     1      -0.882   1.072  -1.127  0.00  0.00    +0.005 C 
ATOM     14  C   UNL     1      -0.062   0.739   0.113  0.00  0.00    +0.037 C 
ATOM     15  N   UNL     1       2.237   1.105   1.771  0.00  0.00    -0.343 N 
ATOM     16  H   UNL     1       1.908   0.494   1.094  0.00  0.00    +0.144 HD
ATOM     17  H   UNL     1       3.155   1.416   1.738  0.00  0.00    +0.144 HD
ENDROOT
BRANCH   1  18
ATOM     18  S   UNL     1       1.853   2.747   6.492  0.00  0.00    -0.078 S 
BRANCH  18  19
ATOM     19  C   UNL     1       3.595   2.442   6.108  0.00  0.00    +0.157 C 
BRANCH  19  20
ATOM     20  C   UNL     1       4.439   2.768   7.313  0.00  0.00    +0.173 C 
ATOM     21  O   UNL     1       3.915   3.166   8.331  0.00  0.00    -0.291 OA
BRANCH  20  25
ATOM     22  C   UNL     1       8.651   2.289   7.144  0.00  0.00    +0.000 A 
ATOM     23  C   UNL     1       8.056   2.744   8.308  0.00  0.00    +0.001 A 
ATOM     24  C   UNL     1       6.688   2.902   8.370  0.00  0.00    +0.011 A 
ATOM     25  C   UNL     1       5.901   2.602   7.254  0.00  0.00    +0.018 A 
ATOM     26  C   UNL     1       6.509   2.137   6.083  0.00  0.00    +0.011 A 
ATOM     27  C   UNL     1       7.879   1.990   6.035  0.00  0.00    +0.001 A 
ENDBRANCH  20  25
ENDBRANCH  19  20
ENDBRANCH  18  19
ENDBRANCH   1  18
TORSDOF 4
