REMARK  Name = ZINC16712402
REMARK  7 active torsions:
REMARK  status: ('A' for Active; 'I' for Inactive)
REMARK    1  A    between atoms: C_1  and  C_2
REMARK    2  A    between atoms: C_2  and  C_27
REMARK    3  A    between atoms: N_3  and  N_4
REMARK    4  A    between atoms: C_5  and  C_7
REMARK    5  A    between atoms: C_7  and  S_8
REMARK    6  A    between atoms: S_8  and  C_9
REMARK    7  A    between atoms: N_19  and  C_20
REMARK                            x       y       z     vdW  Elec       q    Type
REMARK                         _______ _______ _______ _____ _____    ______ ____
ROOT
ATOM      1  C   UNL     1      -2.952  -1.658  -4.381  0.00  0.00    +0.177 A 
ATOM      2  N   UNL     1      -2.865  -0.399  -4.030  0.00  0.00    -0.223 NA
ATOM      3  C   UNL     1      -1.676   0.230  -3.942  0.00  0.00    +0.079 A 
ATOM      4  C   UNL     1      -1.584   1.574  -3.567  0.00  0.00    +0.028 A 
ATOM      5  C   UNL     1      -0.358   2.172  -3.490  0.00  0.00    +0.002 A 
ATOM      6  C   UNL     1       0.802   1.465  -3.779  0.00  0.00    +0.001 A 
ATOM      7  C   UNL     1       0.745   0.149  -4.148  0.00  0.00    +0.015 A 
ATOM      8  C   UNL     1      -0.493  -0.486  -4.235  0.00  0.00    +0.065 A 
ATOM      9  C   UNL     1      -0.615  -1.897  -4.626  0.00  0.00    +0.267 A 
ATOM     10  O   UNL     1       0.367  -2.566  -4.889  0.00  0.00    -0.267 OA
ATOM     11  N   UNL     1      -1.860  -2.425  -4.681  0.00  0.00    -0.255 N 
ENDROOT
BRANCH  11  12
ATOM     12  C   UNL     1      -2.031  -3.766  -5.048  0.00  0.00    +0.052 A 
ATOM     13  C   UNL     1      -2.013  -4.760  -4.078  0.00  0.00    +0.027 A 
ATOM     14  C   UNL     1      -2.188  -6.081  -4.442  0.00  0.00    +0.017 A 
ATOM     15  C   UNL     1      -2.369  -6.416  -5.772  0.00  0.00    +0.018 A 
ATOM     16  C   UNL     1      -2.381  -5.428  -6.741  0.00  0.00    +0.017 A 
ATOM     17  C   UNL     1      -2.213  -4.105  -6.382  0.00  0.00    +0.027 A 
ATOM     18 BR   UNL     1      -2.599  -8.226  -6.268  0.00  0.00    -0.050 Br
ENDBRANCH  11  12
BRANCH   1  19
ATOM     19  S   UNL     1      -4.548  -2.398  -4.470  0.00  0.00    -0.078 S 
BRANCH  19  20
ATOM     20  C   UNL     1      -5.576  -0.986  -3.993  0.00  0.00    +0.174 C 
BRANCH  20  22
ATOM     21  N   UNL     1      -7.981  -0.501  -3.674  0.00  0.00    -0.206 N 
ATOM     22  C   UNL     1      -7.026  -1.396  -3.999  0.00  0.00    +0.242 C 
ATOM     23  O   UNL     1      -7.335  -2.530  -4.298  0.00  0.00    -0.273 OA
ATOM     24  H   UNL     1      -7.734   0.406  -3.435  0.00  0.00    +0.177 HD
BRANCH  21  27
ATOM     25  C   UNL     1     -11.687  -0.430  -3.299  0.00  0.00    +0.068 C 
ATOM     26  C   UNL     1     -10.254   0.003  -3.468  0.00  0.00    +0.063 C 
ATOM     27  N   UNL     1      -9.329  -0.882  -3.680  0.00  0.00    -0.185 NA
BRANCH  26  28
ATOM     28  C   UNL     1      -9.902   1.434  -3.393  0.00  0.00    -0.003 A 
ATOM     29  C   UNL     1     -10.569   2.274  -2.497  0.00  0.00    +0.010 A 
ATOM     30  C   UNL     1     -10.231   3.609  -2.428  0.00  0.00    +0.001 A 
ATOM     31  C   UNL     1      -9.242   4.120  -3.251  0.00  0.00    +0.000 A 
ATOM     32  C   UNL     1      -8.582   3.295  -4.144  0.00  0.00    +0.001 A 
ATOM     33  C   UNL     1      -8.905   1.956  -4.220  0.00  0.00    +0.010 A 
ENDBRANCH  26  28
ENDBRANCH  21  27
ENDBRANCH  20  22
ENDBRANCH  19  20
ENDBRANCH   1  19
TORSDOF 6
