REMARK  Name = ZINC14479312
REMARK  6 active torsions:
REMARK  status: ('A' for Active; 'I' for Inactive)
REMARK    1  A    between atoms: C_1  and  O_2
REMARK    2  A    between atoms: O_2  and  C_3
REMARK    3  A    between atoms: C_6  and  C_11
REMARK    4  A    between atoms: C_8  and  O_9
REMARK    5  A    between atoms: O_9  and  C_10
REMARK    6  A    between atoms: C_24  and  N_27
REMARK                            x       y       z     vdW  Elec       q    Type
REMARK                         _______ _______ _______ _____ _____    ______ ____
ROOT
ATOM      1  C   UNL     1       1.143   3.595   0.011  0.00  0.00    +0.105 C 
ATOM      2  C   UNL     1       0.843   4.099   1.407  0.00  0.00    +0.029 C 
ATOM      3  C   UNL     1       1.862   3.805   2.513  0.00  0.00    +0.033 C 
ATOM      4  C   UNL     1       1.656   5.003   3.444  0.00  0.00    -0.030 C 
ATOM      5  C   UNL     1       1.185   6.036   2.754  0.00  0.00    -0.023 C 
ATOM      6  C   UNL     1       1.074   5.640   1.328  0.00  0.00    +0.049 C 
ATOM      7  C   UNL     1       0.031   6.181   0.429  0.00  0.00    -0.017 A 
ATOM      8  C   UNL     1      -0.496   7.442   0.606  0.00  0.00    +0.006 A 
ATOM      9  C   UNL     1      -1.443   7.936  -0.272  0.00  0.00    +0.003 A 
ATOM     10  C   UNL     1      -1.863   7.156  -1.334  0.00  0.00    +0.034 A 
ATOM     11  C   UNL     1      -1.348   5.892  -1.512  0.00  0.00    +0.147 A 
ATOM     12  C   UNL     1      -0.396   5.377  -0.631  0.00  0.00    +0.062 A 
ATOM     13  N   UNL     1       0.066   4.083  -0.866  0.00  0.00    -0.335 N 
ATOM     14  H   UNL     1      -0.699   3.426  -0.899  0.00  0.00    +0.147 HD
ENDROOT
BRANCH   1  18
ATOM     15  C   UNL     1       1.211  -0.680  -0.013  0.00  0.00    +0.162 A 
ATOM     16  C   UNL     1       0.002  -0.004   0.002  0.00  0.00    +0.050 A 
ATOM     17  C   UNL     1      -0.017   1.378   0.010  0.00  0.00    +0.009 A 
ATOM     18  C   UNL     1       1.169   2.089   0.002  0.00  0.00    -0.023 A 
ATOM     19  C   UNL     1       2.379   1.420  -0.013  0.00  0.00    +0.055 A 
ATOM     20  C   UNL     1       2.405   0.035  -0.021  0.00  0.00    +0.162 A 
BRANCH  15  22
ATOM     21  C   UNL     1      -0.032  -2.708  -0.011  0.00  0.00    +0.277 C 
ATOM     22  O   UNL     1       1.232  -2.040  -0.020  0.00  0.00    -0.491 OA
ENDBRANCH  15  22
BRANCH  20  23
ATOM     23  O   UNL     1       3.594  -0.625  -0.035  0.00  0.00    -0.491 OA
ATOM     24  C   UNL     1       4.779   0.174  -0.042  0.00  0.00    +0.277 C 
ENDBRANCH  20  23
ENDBRANCH   1  18
BRANCH  11  25
ATOM     25  N   UNL     1      -1.810   5.069  -2.653  0.00  0.00    +0.058 N 
ATOM     26  O   UNL     1      -2.640   5.512  -3.426  0.00  0.00    -0.126 OA
ATOM     27  O   UNL     1      -1.359   3.950  -2.818  0.00  0.00    -0.126 OA
ENDBRANCH  11  25
TORSDOF 4
