REMARK  Name = ZINC22758461
REMARK  5 active torsions:
REMARK  status: ('A' for Active; 'I' for Inactive)
REMARK    1  A    between atoms: C_3  and  C_10
REMARK    2  A    between atoms: C_5  and  N_7
REMARK    3  A    between atoms: N_15  and  C_16
REMARK    4  A    between atoms: C_16  and  N_18
REMARK    5  A    between atoms: C_19  and  C_21
REMARK                            x       y       z     vdW  Elec       q    Type
REMARK                         _______ _______ _______ _____ _____    ______ ____
ROOT
ATOM      1  C   UNL     1      -0.070   5.327   0.030  0.00  0.00    +0.055 A 
ATOM      2  C   UNL     1      -1.260   6.001   0.040  0.00  0.00    +0.074 A 
ATOM      3  S   UNL     1      -0.682   7.693   0.049  0.00  0.00    -0.060 S 
ATOM      4  C   UNL     1       1.069   7.331   0.030  0.00  0.00    +0.162 A 
ATOM      5  N   UNL     1       1.064   6.011   0.023  0.00  0.00    -0.335 N 
ATOM      6  N   UNL     1       2.147   8.207   0.024  0.00  0.00    -0.169 NA
ATOM      7  H   UNL     1       2.027   5.479   0.011  0.00  0.00    +0.168 HD
ENDROOT
BRANCH   1  10
ATOM      8  C   UNL     1      -1.221   1.748   0.017  0.00  0.00    +0.003 A 
ATOM      9  C   UNL     1      -1.246   3.128   0.030  0.00  0.00    +0.010 A 
ATOM     10  C   UNL     1      -0.050   3.844   0.022  0.00  0.00    +0.001 A 
ATOM     11  C   UNL     1       1.165   3.161   0.007  0.00  0.00    +0.042 A 
ATOM     12  C   UNL     1       1.178   1.781   0.000  0.00  0.00    +0.127 A 
ATOM     13  C   UNL     1      -0.013   1.076   0.008  0.00  0.00    +0.033 A 
BRANCH  12  14
ATOM     14  N   UNL     1       2.467   1.054  -0.015  0.00  0.00    +0.056 N 
ATOM     15  O   UNL     1       2.479  -0.164  -0.021  0.00  0.00    -0.126 OA
ATOM     16  O   UNL     1       3.515   1.674  -0.021  0.00  0.00    -0.126 OA
ENDBRANCH  12  14
ENDBRANCH   1  10
BRANCH   6  17
ATOM     17  C   UNL     1       1.934   9.537   0.034  0.00  0.00    +0.163 C 
ATOM     18  S   UNL     1       0.335  10.149   0.053  0.00  0.00    -0.016 S 
BRANCH  17  19
ATOM     19  N   UNL     1       2.981  10.387   0.028  0.00  0.00    -0.262 N 
ATOM     20  C   UNL     1       2.768  11.718   0.037  0.00  0.00    +0.251 C 
ATOM     21  O   UNL     1       1.633  12.152   0.051  0.00  0.00    -0.270 OA
ATOM     22  H   UNL     1       4.008   9.994   0.015  0.00  0.00    +0.157 HD
BRANCH  20  23
ATOM     23  C   UNL     1       3.915  12.649   0.031  0.00  0.00    +0.056 A 
ATOM     24  C   UNL     1       5.221  12.153   0.021  0.00  0.00    +0.029 A 
ATOM     25  C   UNL     1       6.287  13.029   0.009  0.00  0.00    +0.019 A 
ATOM     26  C   UNL     1       6.066  14.396   0.019  0.00  0.00    +0.017 A 
ATOM     27  C   UNL     1       4.776  14.894   0.034  0.00  0.00    +0.022 A 
ATOM     28  C   UNL     1       3.698  14.029   0.040  0.00  0.00    +0.053 A 
ATOM     29 CL   UNL     1       2.080  14.656   0.059  0.00  0.00    -0.083 Cl
ATOM     30 BR   UNL     1       8.056  12.360  -0.011  0.00  0.00    -0.050 Br
ENDBRANCH  20  23
ENDBRANCH  17  19
ENDBRANCH   6  17
TORSDOF 5
