REMARK  Name = ZINC03345046
REMARK  10 active torsions:
REMARK  status: ('A' for Active; 'I' for Inactive)
REMARK    1  A    between atoms: C_1  and  O_2
REMARK    2  A    between atoms: O_2  and  C_3
REMARK    3  A    between atoms: C_6  and  C_11
REMARK    4  A    between atoms: C_8  and  O_9
REMARK    5  A    between atoms: O_9  and  C_10
REMARK    6  A    between atoms: C_12  and  C_13
REMARK    7  A    between atoms: N_15  and  C_16
REMARK    8  A    between atoms: C_16  and  C_17
REMARK    9  A    between atoms: C_17  and  C_19
REMARK   10  A    between atoms: C_17  and  C_26
REMARK                            x       y       z     vdW  Elec       q    Type
REMARK                         _______ _______ _______ _____ _____    ______ ____
ROOT
ATOM      1  C   UNL     1       1.650   4.252   0.009  0.00  0.00    +0.069 C 
ENDROOT
BRANCH   1   2
ATOM      2  C   UNL     1       0.730   3.058   0.011  0.00  0.00    -0.013 A 
ATOM      3  C   UNL     1       1.098   1.767   0.001  0.00  0.00    +0.088 A 
ATOM      4  N   UNL     1      -0.011   0.966   0.007  0.00  0.00    -0.360 N 
ATOM      5  H   UNL     1       0.002  -0.004   0.002  0.00  0.00    +0.165 HD
ATOM      6  C   UNL     1      -1.149   1.741   0.016  0.00  0.00    +0.047 A 
ATOM      7  C   UNL     1      -0.734   3.086   0.024  0.00  0.00    +0.003 A 
ATOM      8  C   UNL     1      -1.685   4.108   0.038  0.00  0.00    +0.010 A 
ATOM      9  C   UNL     1      -3.016   3.796   0.048  0.00  0.00    +0.001 A 
ATOM     10  C   UNL     1      -3.430   2.472   0.045  0.00  0.00    +0.002 A 
ATOM     11  C   UNL     1      -2.508   1.447   0.032  0.00  0.00    +0.026 A 
ENDBRANCH   1   2
BRANCH   1  12
ATOM     12  C   UNL     1       2.508   4.223  -1.230  0.00  0.00    -0.020 A 
ATOM     13  C   UNL     1       3.355   3.155  -1.459  0.00  0.00    +0.006 A 
ATOM     14  C   UNL     1       4.139   3.126  -2.598  0.00  0.00    +0.000 A 
ATOM     15  C   UNL     1       4.083   4.170  -3.502  0.00  0.00    +0.001 A 
ATOM     16  C   UNL     1       3.241   5.241  -3.272  0.00  0.00    +0.020 A 
ATOM     17  C   UNL     1       2.452   5.268  -2.135  0.00  0.00    +0.045 A 
ATOM     18 CL   UNL     1       1.394   6.613  -1.844  0.00  0.00    -0.083 Cl
ENDBRANCH   1  12
BRANCH   1  19
ATOM     19  C   UNL     1       2.544   4.210   1.249  0.00  0.00    +0.117 C 
BRANCH  19  22
ATOM     20  C   UNL     1       4.221   5.612   2.325  0.00  0.00    +0.237 C 
ATOM     21  O   UNL     1       4.332   4.764   3.191  0.00  0.00    -0.271 OA
ATOM     22  N   UNL     1       3.353   5.429   1.310  0.00  0.00    -0.311 N 
ATOM     23  H   UNL     1       3.265   6.105   0.620  0.00  0.00    +0.149 HD
BRANCH  20  25
ATOM     24  C   UNL     1       5.898   7.013   3.402  0.00  0.00    +0.013 C 
ATOM     25  C   UNL     1       5.029   6.830   2.385  0.00  0.00    +0.068 C 
BRANCH  24  29
ATOM     26  C   UNL     1       8.241  10.549   3.572  0.00  0.00    +0.162 A 
ATOM     27  C   UNL     1       7.346  10.359   2.527  0.00  0.00    +0.050 A 
ATOM     28  C   UNL     1       6.584   9.213   2.468  0.00  0.00    +0.012 A 
ATOM     29  C   UNL     1       6.710   8.237   3.463  0.00  0.00    -0.021 A 
ATOM     30  C   UNL     1       7.608   8.432   4.519  0.00  0.00    +0.057 A 
ATOM     31  C   UNL     1       8.372   9.581   4.568  0.00  0.00    +0.162 A 
BRANCH  26  33
ATOM     32  C   UNL     1       8.805  12.631   2.574  0.00  0.00    +0.277 C 
ATOM     33  O   UNL     1       8.990  11.681   3.626  0.00  0.00    -0.491 OA
ENDBRANCH  26  33
BRANCH  31  34
ATOM     34  O   UNL     1       9.249   9.771   5.590  0.00  0.00    -0.491 OA
ATOM     35  C   UNL     1       9.332   8.739   6.574  0.00  0.00    +0.277 C 
ENDBRANCH  31  34
ENDBRANCH  24  29
ENDBRANCH  20  25
ENDBRANCH  19  22
ENDBRANCH   1  19
TORSDOF 8
