REMARK  Name = ZINC00645710
REMARK  5 active torsions:
REMARK  status: ('A' for Active; 'I' for Inactive)
REMARK    1  A    between atoms: C_1  and  C_2
REMARK    2  A    between atoms: C_2  and  C_29
REMARK    3  A    between atoms: C_8  and  N_17
REMARK    4  A    between atoms: N_17  and  S_18
REMARK    5  A    between atoms: S_18  and  C_21
REMARK                            x       y       z     vdW  Elec       q    Type
REMARK                         _______ _______ _______ _____ _____    ______ ____
ROOT
ATOM      1  C   UNL     1       0.984   7.398   2.761  0.00  0.00    +0.012 C 
ATOM      2  C   UNL     1       0.482   7.678   1.344  0.00  0.00    -0.021 C 
ATOM      3  C   UNL     1      -0.410   6.520   0.887  0.00  0.00    +0.082 C 
ATOM      4  C   UNL     1       0.430   5.277   0.718  0.00  0.00    +0.117 A 
ATOM      5  C   UNL     1       1.792   5.322   0.547  0.00  0.00    +0.066 A 
ATOM      6  C   UNL     1       2.245   3.936   0.424  0.00  0.00    +0.033 A 
ATOM      7  C   UNL     1       3.493   3.323   0.238  0.00  0.00    +0.037 A 
ATOM      8  C   UNL     1       3.600   1.967   0.155  0.00  0.00    +0.057 A 
ATOM      9  C   UNL     1       2.444   1.158   0.256  0.00  0.00    +0.008 A 
ATOM     10  C   UNL     1       2.532  -0.240   0.170  0.00  0.00    +0.010 A 
ATOM     11  C   UNL     1       1.403  -0.996   0.271  0.00  0.00    +0.001 A 
ATOM     12  C   UNL     1       0.158  -0.402   0.459  0.00  0.00    +0.001 A 
ATOM     13  C   UNL     1       0.036   0.952   0.547  0.00  0.00    +0.012 A 
ATOM     14  C   UNL     1       1.179   1.762   0.447  0.00  0.00    +0.027 A 
ATOM     15  C   UNL     1       1.084   3.168   0.531  0.00  0.00    +0.144 A 
ATOM     16  O   UNL     1       0.038   4.006   0.705  0.00  0.00    -0.458 OA
ATOM     17  C   UNL     1       2.537   6.583   0.508  0.00  0.00    +0.168 C 
ATOM     18  O   UNL     1       3.749   6.624   0.556  0.00  0.00    -0.292 OA
ATOM     19  C   UNL     1       1.682   7.837   0.405  0.00  0.00    +0.086 C 
ATOM     20  C   UNL     1      -0.334   8.972   1.344  0.00  0.00    +0.012 C 
ENDROOT
BRANCH   8  21
ATOM     21  N   UNL     1       4.851   1.375  -0.029  0.00  0.00    -0.215 N 
ATOM     22  H   UNL     1       4.935   0.577  -0.573  0.00  0.00    +0.174 HD
BRANCH  21  23
ATOM     23  S   UNL     1       6.193   2.038   0.681  0.00  0.00    +0.079 S 
ATOM     24  O   UNL     1       7.269   1.145   0.427  0.00  0.00    -0.149 OA
ATOM     25  O   UNL     1       6.227   3.403   0.289  0.00  0.00    -0.149 OA
BRANCH  23  26
ATOM     26  C   UNL     1       5.923   2.021   2.422  0.00  0.00    +0.146 A 
ATOM     27  C   UNL     1       6.233   1.058   3.324  0.00  0.00    +0.036 A 
ATOM     28  C   UNL     1       5.925   1.263   4.656  0.00  0.00    +0.010 A 
ATOM     29  C   UNL     1       5.322   2.421   5.020  0.00  0.00    +0.047 A 
ATOM     30  S   UNL     1       5.178   3.270   3.457  0.00  0.00    -0.077 S 
ENDBRANCH  23  26
ENDBRANCH  21  23
ENDBRANCH   8  21
TORSDOF 3
