REMARK  Name = ZINC53148793
REMARK  5 active torsions:
REMARK  status: ('A' for Active; 'I' for Inactive)
REMARK    1  A    between atoms: C_5  and  O_7
REMARK    2  A    between atoms: O_7  and  C_8
REMARK    3  A    between atoms: C_8  and  C_10
REMARK    4  A    between atoms: C_13  and  N_16
REMARK    5  A    between atoms: C_20  and  C_23
REMARK                            x       y       z     vdW  Elec       q    Type
REMARK                         _______ _______ _______ _____ _____    ______ ____
ROOT
ATOM      1  C   UNL     1       0.040  -4.161   0.197  0.00  0.00    +0.060 A 
ATOM      2  C   UNL     1       1.238  -4.882   0.169  0.00  0.00    +0.017 A 
ATOM      3  C   UNL     1       1.215  -6.249   0.269  0.00  0.00    +0.024 A 
ATOM      4  C   UNL     1       0.002  -6.920   0.398  0.00  0.00    +0.030 A 
ATOM      5  C   UNL     1      -1.193  -6.205   0.425  0.00  0.00    +0.024 A 
ATOM      6  C   UNL     1      -1.177  -4.837   0.331  0.00  0.00    +0.017 A 
ENDROOT
BRANCH   4   7
ATOM      7  N   UNL     1      -0.017  -8.306   0.499  0.00  0.00    -0.329 N 
ATOM      8  C   UNL     1      -1.290  -9.039   0.500  0.00  0.00    +0.105 C 
ATOM      9  C   UNL     1      -1.241 -10.114  -0.591  0.00  0.00    +0.020 C 
ATOM     10  C   UNL     1      -0.008 -10.995  -0.377  0.00  0.00    +0.016 C 
ATOM     11  C   UNL     1       1.257 -10.140  -0.484  0.00  0.00    +0.092 C 
ATOM     12  C   UNL     1       1.236  -9.066   0.602  0.00  0.00    +0.117 C 
BRANCH  11  13
ATOM     13  C   UNL     1       2.472 -11.015  -0.306  0.00  0.00    +0.215 C 
ATOM     14  O   UNL     1       3.246 -10.799   0.602  0.00  0.00    -0.276 OA
ATOM     15  N   UNL     1       2.697 -12.036  -1.156  0.00  0.00    -0.329 N 
ATOM     16  H   UNL     1       2.077 -12.208  -1.882  0.00  0.00    +0.145 HD
ATOM     17  H   UNL     1       3.479 -12.599  -1.042  0.00  0.00    +0.145 HD
ENDBRANCH  11  13
ENDBRANCH   4   7
BRANCH   1  18
ATOM     18  C   UNL     1       0.060  -2.691   0.090  0.00  0.00    +0.344 C 
ATOM     19  O   UNL     1      -0.982  -2.065   0.118  0.00  0.00    -0.245 OA
BRANCH  18  20
ATOM     20  O   UNL     1       1.233  -2.041  -0.040  0.00  0.00    -0.421 OA
BRANCH  20  25
ATOM     21  C   UNL     1       1.251   1.405  -1.208  0.00  0.00    +0.004 A 
ATOM     22  C   UNL     1       1.177   2.085  -0.006  0.00  0.00    +0.002 A 
ATOM     23  C   UNL     1       1.121   1.385   1.185  0.00  0.00    +0.024 A 
ATOM     24  C   UNL     1       1.140   0.003   1.176  0.00  0.00    +0.083 A 
ATOM     25  C   UNL     1       1.214  -0.682  -0.029  0.00  0.00    +0.150 A 
ATOM     26  C   UNL     1       1.269   0.024  -1.222  0.00  0.00    +0.048 A 
ATOM     27 CL   UNL     1       1.071  -0.876   2.672  0.00  0.00    -0.080 Cl
ENDBRANCH  20  25
ENDBRANCH  18  20
ENDBRANCH   1  18
TORSDOF 5
