REMARK  Name = ZINC06609152
REMARK  9 active torsions:
REMARK  status: ('A' for Active; 'I' for Inactive)
REMARK    1  A    between atoms: C_1  and  C_2
REMARK    2  A    between atoms: C_6  and  C_8
REMARK    3  A    between atoms: C_8  and  S_9
REMARK    4  A    between atoms: S_9  and  C_10
REMARK    5  A    between atoms: C_13  and  S_16
REMARK    6  A    between atoms: N_14  and  N_15
REMARK    7  A    between atoms: S_16  and  C_17
REMARK    8  A    between atoms: C_17  and  C_18
REMARK    9  A    between atoms: C_22  and  C_24
REMARK                            x       y       z     vdW  Elec       q    Type
REMARK                         _______ _______ _______ _____ _____    ______ ____
ROOT
ATOM      1  C   UNL     1      -0.117   7.713  -1.501  0.00  0.00    +0.209 A 
ATOM      2  N   UNL     1      -0.115   8.373  -0.369  0.00  0.00    -0.120 NA
ATOM      3  N   UNL     1      -0.137   9.742  -0.666  0.00  0.00    -0.120 NA
ATOM      4  C   UNL     1      -0.151   9.874  -1.970  0.00  0.00    +0.209 A 
ATOM      5  N   UNL     1      -0.134   8.623  -2.521  0.00  0.00    -0.219 N 
ENDROOT
BRANCH   5   6
ATOM      6  N   UNL     1      -0.136   8.333  -3.856  0.00  0.00    -0.294 N 
ATOM      7  H   UNL     1      -1.079   8.244  -4.205  0.00  0.00    +0.163 HD
ATOM      8  H   UNL     1       0.379   9.027  -4.377  0.00  0.00    +0.163 HD
ENDBRANCH   5   6
BRANCH   1   9
ATOM      9  S   UNL     1      -0.095   5.960  -1.677  0.00  0.00    -0.080 S 
BRANCH   9  10
ATOM     10  C   UNL     1      -0.070   5.347   0.030  0.00  0.00    +0.112 C 
BRANCH  10  16
ATOM     11  C   UNL     1      -2.514   0.980   0.019  0.00  0.00    +0.044 C 
ATOM     12  C   UNL     1      -1.219   1.751   0.017  0.00  0.00    -0.050 A 
ATOM     13  C   UNL     1      -0.013   1.076   0.008  0.00  0.00    +0.003 A 
ATOM     14  C   UNL     1       1.175   1.783   0.000  0.00  0.00    +0.001 A 
ATOM     15  C   UNL     1       1.156   3.165   0.008  0.00  0.00    +0.004 A 
ATOM     16  C   UNL     1      -0.050   3.840   0.022  0.00  0.00    -0.037 A 
ATOM     17  C   UNL     1      -1.238   3.133   0.030  0.00  0.00    +0.007 A 
ENDBRANCH  10  16
ENDBRANCH   9  10
ENDBRANCH   1   9
BRANCH   4  18
ATOM     18  S   UNL     1      -0.181  11.396  -2.857  0.00  0.00    -0.080 S 
BRANCH  18  19
ATOM     19  C   UNL     1      -0.185  12.661  -1.558  0.00  0.00    +0.112 C 
BRANCH  19  20
ATOM     20  C   UNL     1      -0.210  14.030  -2.189  0.00  0.00    -0.037 A 
ATOM     21  C   UNL     1      -1.418  14.641  -2.466  0.00  0.00    +0.004 A 
ATOM     22  C   UNL     1      -1.441  15.896  -3.045  0.00  0.00    +0.001 A 
ATOM     23  C   UNL     1      -0.255  16.540  -3.346  0.00  0.00    +0.003 A 
ATOM     24  C   UNL     1       0.953  15.928  -3.069  0.00  0.00    -0.050 A 
ATOM     25  C   UNL     1       0.976  14.675  -2.486  0.00  0.00    +0.007 A 
ATOM     26  C   UNL     1       2.245  16.631  -3.397  0.00  0.00    +0.044 C 
ENDBRANCH  19  20
ENDBRANCH  18  19
ENDBRANCH   4  18
TORSDOF 7
