REMARK  Name = ZINC06567652
REMARK  3 active torsions:
REMARK  status: ('A' for Active; 'I' for Inactive)
REMARK    1  A    between atoms: C_16  and  O_26
REMARK    2  A    between atoms: C_20  and  O_25
REMARK    3  A    between atoms: C_23  and  O_24
REMARK                            x       y       z     vdW  Elec       q    Type
REMARK                         _______ _______ _______ _____ _____    ______ ____
ROOT
ATOM      1  C   UNL     1      -0.461   1.363  -0.992  0.00  0.00    +0.004 A 
ATOM      2  C   UNL     1       0.750   1.987  -0.990  0.00  0.00    +0.009 A 
ATOM      3  C   UNL     1       0.822   3.373  -0.763  0.00  0.00    -0.011 A 
ATOM      4  C   UNL     1       2.043   4.067  -0.748  0.00  0.00    +0.009 A 
ATOM      5  C   UNL     1       2.056   5.411  -0.519  0.00  0.00    +0.004 A 
ATOM      6  C   UNL     1       0.878   6.123  -0.299  0.00  0.00    +0.046 A 
ATOM      7  C   UNL     1      -0.334   5.480  -0.310  0.00  0.00    +0.137 A 
ATOM      8  C   UNL     1      -0.374   4.090  -0.543  0.00  0.00    +0.066 A 
ATOM      9  C   UNL     1      -1.615   3.421  -0.553  0.00  0.00    +0.137 A 
ATOM     10  C   UNL     1      -1.645   2.068  -0.781  0.00  0.00    +0.046 A 
ATOM     11  O   UNL     1      -2.741   4.151  -0.345  0.00  0.00    -0.446 OA
ATOM     12  C   UNL     1      -2.584   5.350   0.427  0.00  0.00    +0.284 C 
ATOM     13  O   UNL     1      -1.508   6.133  -0.107  0.00  0.00    -0.446 OA
ATOM     14  C   UNL     1      -2.270   4.980   1.875  0.00  0.00    +0.101 C 
ATOM     15  C   UNL     1      -3.518   4.337   2.491  0.00  0.00    +0.044 C 
ATOM     16  C   UNL     1      -4.583   5.418   2.662  0.00  0.00    +0.149 C 
ATOM     17  C   UNL     1      -4.778   6.178   1.376  0.00  0.00    +0.036 A 
ATOM     18  C   UNL     1      -3.859   6.150   0.352  0.00  0.00    +0.086 A 
ATOM     19  C   UNL     1      -4.097   6.883  -0.809  0.00  0.00    +0.128 A 
ATOM     20  C   UNL     1      -5.253   7.633  -0.943  0.00  0.00    +0.049 A 
ATOM     21  C   UNL     1      -6.178   7.656   0.082  0.00  0.00    +0.049 A 
ATOM     22  C   UNL     1      -5.942   6.931   1.238  0.00  0.00    +0.123 A 
ENDROOT
BRANCH  22  23
ATOM     23  O   UNL     1      -6.854   6.955   2.246  0.00  0.00    -0.506 OA
ATOM     24  H   UNL     1      -6.708   7.659   2.893  0.00  0.00    +0.292 HD
ENDBRANCH  22  23
BRANCH  19  25
ATOM     25  O   UNL     1      -3.187   6.861  -1.819  0.00  0.00    -0.506 OA
ATOM     26  H   UNL     1      -2.512   7.551  -1.756  0.00  0.00    +0.292 HD
ENDBRANCH  19  25
BRANCH  16  27
ATOM     27  O   UNL     1      -5.818   4.808   3.041  0.00  0.00    -0.387 OA
ATOM     28  H   UNL     1      -5.797   4.385   3.910  0.00  0.00    +0.210 HD
ENDBRANCH  16  27
TORSDOF 3
