REMARK  Name = ZINC02459997
REMARK  6 active torsions:
REMARK  status: ('A' for Active; 'I' for Inactive)
REMARK    1  A    between atoms: C_1  and  C_2
REMARK    2  A    between atoms: C_5  and  S_23
REMARK    3  A    between atoms: C_10  and  C_11
REMARK    4  A    between atoms: N_13  and  C_14
REMARK    5  A    between atoms: C_20  and  C_22
REMARK    6  A    between atoms: S_23  and  N_26
REMARK                            x       y       z     vdW  Elec       q    Type
REMARK                         _______ _______ _______ _____ _____    ______ ____
ROOT
ATOM      1  C   UNL     1       2.102   6.064  -4.247  0.00  0.00    +0.048 C 
ATOM      2  C   UNL     1       1.158   4.980  -4.699  0.00  0.00    +0.008 A 
ATOM      3  C   UNL     1       0.252   5.024  -5.846  0.00  0.00    +0.026 A 
ATOM      4  C   UNL     1      -0.033   5.979  -6.825  0.00  0.00    +0.040 A 
ATOM      5  C   UNL     1      -0.965   5.707  -7.786  0.00  0.00    +0.106 A 
ATOM      6  C   UNL     1      -1.631   4.488  -7.794  0.00  0.00    +0.032 A 
ATOM      7  C   UNL     1      -1.365   3.533  -6.837  0.00  0.00    +0.049 A 
ATOM      8  C   UNL     1      -0.420   3.788  -5.850  0.00  0.00    +0.136 A 
ATOM      9  O   UNL     1       0.044   3.070  -4.808  0.00  0.00    -0.450 OA
ATOM     10  C   UNL     1       0.978   3.763  -4.124  0.00  0.00    +0.193 A 
ENDROOT
BRANCH  10  11
ATOM     11  C   UNL     1       1.689   3.276  -2.933  0.00  0.00    +0.280 C 
ATOM     12  O   UNL     1       2.516   3.981  -2.388  0.00  0.00    -0.267 OA
ATOM     13  N   UNL     1       1.424   2.047  -2.446  0.00  0.00    -0.306 N 
ATOM     14  H   UNL     1       0.765   1.484  -2.881  0.00  0.00    +0.149 HD
BRANCH  13  15
ATOM     15  C   UNL     1       2.133   1.562  -1.259  0.00  0.00    +0.076 C 
ATOM     16  C   UNL     1       1.417   2.055  -0.000  0.00  0.00    +0.022 C 
ATOM     17  C   UNL     1      -0.019   1.526   0.010  0.00  0.00    +0.002 C 
ATOM     18  C   UNL     1       0.002  -0.004   0.002  0.00  0.00    +0.000 C 
ATOM     19  C   UNL     1       0.718  -0.497  -1.257  0.00  0.00    +0.005 C 
ATOM     20  C   UNL     1       2.154   0.032  -1.268  0.00  0.00    +0.006 C 
ATOM     21  C   UNL     1       2.870  -0.461  -2.526  0.00  0.00    +0.009 C 
ENDBRANCH  13  15
ENDBRANCH  10  11
BRANCH   5  22
ATOM     22  S   UNL     1      -1.325   6.909  -9.022  0.00  0.00    +0.061 S 
ATOM     23  O   UNL     1      -2.635   6.626  -9.494  0.00  0.00    -0.153 OA
ATOM     24  O   UNL     1      -0.968   8.172  -8.477  0.00  0.00    -0.153 OA
BRANCH  22  25
ATOM     25  N   UNL     1      -0.296   6.632 -10.289  0.00  0.00    -0.177 NA
ATOM     26  C   UNL     1       1.034   7.235 -10.460  0.00  0.00    +0.109 C 
ATOM     27  C   UNL     1       1.610   6.705 -11.790  0.00  0.00    +0.018 C 
ATOM     28  C   UNL     1       0.339   6.284 -12.574  0.00  0.00    +0.018 C 
ATOM     29  C   UNL     1      -0.563   5.745 -11.436  0.00  0.00    +0.109 C 
ENDBRANCH  22  25
ENDBRANCH   5  22
TORSDOF 4
