REMARK  Name = ZINC52005627
REMARK  4 active torsions:
REMARK  status: ('A' for Active; 'I' for Inactive)
REMARK    1  A    between atoms: C_4  and  S_8
REMARK    2  A    between atoms: S_8  and  N_11
REMARK    3  A    between atoms: N_11  and  C_12
REMARK    4  A    between atoms: C_18  and  O_20
REMARK                            x       y       z     vdW  Elec       q    Type
REMARK                         _______ _______ _______ _____ _____    ______ ____
ROOT
ATOM      1  S   UNL     1       3.936  -0.832  -0.042  0.00  0.00    +0.062 S 
ATOM      2  O   UNL     1       3.677  -2.114  -0.597  0.00  0.00    -0.153 OA
ATOM      3  O   UNL     1       4.892   0.060  -0.597  0.00  0.00    -0.153 OA
ENDROOT
BRANCH   1   7
ATOM      4  C   UNL     1      -0.017   1.378   0.010  0.00  0.00    +0.003 A 
ATOM      5  C   UNL     1       1.171   2.086   0.002  0.00  0.00    +0.022 A 
ATOM      6  C   UNL     1       2.378   1.411  -0.013  0.00  0.00    +0.069 A 
ATOM      7  C   UNL     1       2.398   0.028  -0.021  0.00  0.00    +0.142 A 
ATOM      8  C   UNL     1       1.209  -0.680  -0.013  0.00  0.00    +0.069 A 
ATOM      9  C   UNL     1       0.002  -0.004   0.002  0.00  0.00    +0.022 A 
ATOM     10 CL   UNL     1       1.233  -2.416  -0.023  0.00  0.00    -0.081 Cl
ATOM     11 CL   UNL     1       3.869   2.300  -0.024  0.00  0.00    -0.081 Cl
ENDBRANCH   1   7
BRANCH   1  12
ATOM     12  N   UNL     1       4.379  -1.079   1.535  0.00  0.00    -0.184 NA
ATOM     13  H   UNL     1       5.176  -0.652   1.887  0.00  0.00    +0.148 HD
BRANCH  12  14
ATOM     14  C   UNL     1       3.569  -1.943   2.397  0.00  0.00    +0.105 C 
ATOM     15  C   UNL     1       2.580  -1.087   3.192  0.00  0.00    +0.023 C 
ATOM     16  C   UNL     1       3.351  -0.086   4.053  0.00  0.00    +0.002 C 
ATOM     17  C   UNL     1       4.264  -0.841   5.021  0.00  0.00    +0.003 C 
ATOM     18  C   UNL     1       5.253  -1.697   4.226  0.00  0.00    +0.033 C 
ATOM     19  C   UNL     1       4.482  -2.699   3.364  0.00  0.00    +0.133 C 
BRANCH  19  20
ATOM     20  O   UNL     1       5.405  -3.498   2.622  0.00  0.00    -0.390 OA
ATOM     21  H   UNL     1       6.017  -4.006   3.172  0.00  0.00    +0.210 HD
ENDBRANCH  19  20
ENDBRANCH  12  14
ENDBRANCH   1  12
TORSDOF 4
