REMARK  Name = ZINC14608010
REMARK  7 active torsions:
REMARK  status: ('A' for Active; 'I' for Inactive)
REMARK    1  A    between atoms: C_1  and  C_2
REMARK    2  A    between atoms: C_12  and  C_14
REMARK    3  A    between atoms: C_17  and  O_20
REMARK    4  A    between atoms: O_20  and  C_21
REMARK    5  A    between atoms: C_23  and  C_25
REMARK    6  A    between atoms: C_25  and  S_26
REMARK    7  A    between atoms: S_26  and  C_27
REMARK                            x       y       z     vdW  Elec       q    Type
REMARK                         _______ _______ _______ _____ _____    ______ ____
ROOT
ATOM      1  C   UNL     1      -1.179   0.764  -2.293  0.00  0.00    +0.062 C 
ATOM      2  C   UNL     1      -0.643   1.680  -1.224  0.00  0.00    +0.031 C 
ATOM      3  N   UNL     1      -0.731   2.942  -1.383  0.00  0.00    -0.254 NA
ATOM      4  C   UNL     1      -0.320   3.884  -0.489  0.00  0.00    +0.089 A 
ATOM      5  C   UNL     1      -1.155   4.997  -0.309  0.00  0.00    +0.030 A 
ATOM      6  C   UNL     1      -0.814   5.995   0.575  0.00  0.00    +0.002 A 
ATOM      7  C   UNL     1       0.364   5.910   1.299  0.00  0.00    +0.002 A 
ATOM      8  C   UNL     1       1.198   4.828   1.139  0.00  0.00    +0.030 A 
ATOM      9  C   UNL     1       0.869   3.798   0.243  0.00  0.00    +0.091 A 
ATOM     10  N   UNL     1       1.748   2.764   0.143  0.00  0.00    -0.234 NA
ATOM     11  C   UNL     1       1.428   1.523   0.052  0.00  0.00    +0.115 C 
ATOM     12  C   UNL     1      -0.013   1.086   0.008  0.00  0.00    +0.127 C 
ATOM     13  N   UNL     1       2.422   0.575  -0.007  0.00  0.00    -0.272 N 
ATOM     14  C   UNL     1       3.716   0.951   0.031  0.00  0.00    +0.228 C 
ATOM     15  O   UNL     1       4.003   2.126   0.117  0.00  0.00    -0.275 OA
ATOM     16  H   UNL     1       2.192  -0.365  -0.076  0.00  0.00    +0.156 HD
ENDROOT
BRANCH  12  17
ATOM     17  C   UNL     1      -0.732   1.579   1.237  0.00  0.00    -0.032 A 
ATOM     18  C   UNL     1      -0.044   1.725   2.428  0.00  0.00    +0.008 A 
ATOM     19  C   UNL     1      -0.699   2.182   3.554  0.00  0.00    +0.046 A 
ATOM     20  C   UNL     1      -2.052   2.483   3.494  0.00  0.00    +0.120 A 
ATOM     21  C   UNL     1      -2.742   2.330   2.300  0.00  0.00    +0.046 A 
ATOM     22  C   UNL     1      -2.080   1.879   1.174  0.00  0.00    +0.008 A 
BRANCH  20  23
ATOM     23  O   UNL     1      -2.701   2.928   4.602  0.00  0.00    -0.495 OA
ATOM     24  C   UNL     1      -1.927   3.061   5.796  0.00  0.00    +0.277 C 
ENDBRANCH  20  23
ENDBRANCH  12  17
BRANCH  14  25
ATOM     25  C   UNL     1       4.805  -0.089  -0.033  0.00  0.00    +0.172 C 
BRANCH  25  26
ATOM     26  S   UNL     1       6.423   0.726   0.039  0.00  0.00    -0.088 S 
BRANCH  26  27
ATOM     27  C   UNL     1       7.575  -0.605  -0.046  0.00  0.00    +0.160 A 
ATOM     28  N   UNL     1       7.349  -1.901  -0.134  0.00  0.00    -0.133 NA
ATOM     29  N   UNL     1       8.408  -2.778  -0.193  0.00  0.00    -0.125 NA
ATOM     30  C   UNL     1       9.643  -2.319  -0.150  0.00  0.00    +0.180 A 
ATOM     31  S   UNL     1       9.361  -0.560  -0.027  0.00  0.00    -0.025 S 
ATOM     32  N   UNL     1      10.844  -3.018  -0.188  0.00  0.00    -0.336 N 
ATOM     33  H   UNL     1      11.686  -2.538  -0.147  0.00  0.00    +0.144 HD
ATOM     34  H   UNL     1      10.840  -3.986  -0.257  0.00  0.00    +0.144 HD
ENDBRANCH  26  27
ENDBRANCH  25  26
ENDBRANCH  14  25
TORSDOF 5
