REMARK  Name = ZINC39387708
REMARK  9 active torsions:
REMARK  status: ('A' for Active; 'I' for Inactive)
REMARK    1  A    between atoms: C_1  and  N_2
REMARK    2  A    between atoms: N_2  and  C_3
REMARK    3  A    between atoms: N_2  and  C_4
REMARK    4  A    between atoms: C_7  and  C_10
REMARK    5  A    between atoms: C_10  and  N_11
REMARK    6  A    between atoms: C_18  and  C_22
REMARK    7  A    between atoms: C_22  and  N_23
REMARK    8  A    between atoms: C_27  and  C_30
REMARK    9  A    between atoms: C_30  and  O_31
REMARK                            x       y       z     vdW  Elec       q    Type
REMARK                         _______ _______ _______ _____ _____    ______ ____
ROOT
ATOM      1  N   UNL     1      -1.392  -3.069  -5.340  0.00  0.00    +0.387 N 
ATOM      2  C   UNL     1      -2.063  -1.795  -5.576  0.00  0.00    -0.036 C 
ATOM      3  C   UNL     1      -3.557  -1.915  -5.776  0.00  0.00    +0.210 C 
ATOM      4  O   UNL     1      -3.855  -2.628  -6.983  0.00  0.00    -0.494 OA
ATOM      5  C   UNL     1      -3.868  -3.985  -6.866  0.00  0.00    +0.122 A 
ATOM      6  C   UNL     1      -5.061  -4.684  -6.986  0.00  0.00    +0.046 A 
ATOM      7  C   UNL     1      -5.064  -6.059  -6.846  0.00  0.00    +0.005 A 
ATOM      8  C   UNL     1      -3.886  -6.735  -6.585  0.00  0.00    -0.064 A 
ATOM      9  C   UNL     1      -2.696  -6.037  -6.473  0.00  0.00    +0.007 A 
ATOM     10  C   UNL     1      -2.691  -4.665  -6.623  0.00  0.00    -0.022 A 
ATOM     11  C   UNL     1      -1.385  -3.898  -6.550  0.00  0.00    -0.039 C 
ATOM     12  H   UNL     1      -1.872  -3.563  -4.603  0.00  0.00    -0.081 HD
ENDROOT
BRANCH   1  13
ATOM     13  C   UNL     1      -0.006  -2.813  -4.924  0.00  0.00    -0.042 C 
BRANCH  13  17
ATOM     14  C   UNL     1       0.000  -0.696  -1.211  0.00  0.00    +0.029 A 
ATOM     15  C   UNL     1       0.013  -2.085  -1.221  0.00  0.00    +0.023 A 
ATOM     16  C   UNL     1       0.010  -2.766  -2.422  0.00  0.00    +0.003 A 
ATOM     17  C   UNL     1      -0.005  -2.066  -3.615  0.00  0.00    -0.064 A 
ATOM     18  C   UNL     1      -0.018  -0.684  -3.609  0.00  0.00    +0.003 A 
ATOM     19  C   UNL     1      -0.021   0.004  -2.411  0.00  0.00    +0.023 A 
BRANCH  14  21
ATOM     20  C   UNL     1      -0.018   1.461   0.010  0.00  0.00    +0.129 C 
ATOM     21  N   UNL     1       0.002  -0.004   0.002  0.00  0.00    -0.336 N 
ATOM     22  C   UNL     1       0.024  -0.743   1.267  0.00  0.00    +0.129 C 
ENDBRANCH  14  21
ENDBRANCH  13  17
ENDBRANCH   1  13
BRANCH   8  23
ATOM     23  C   UNL     1      -3.898  -8.233  -6.423  0.00  0.00    -0.043 C 
BRANCH  23  24
ATOM     24  N   UNL     1      -3.686  -8.868  -7.731  0.00  0.00    +0.383 N 
ATOM     25  C   UNL     1      -4.816  -8.556  -8.614  0.00  0.00    -0.078 C 
ATOM     26  C   UNL     1      -4.563  -9.148 -10.002  0.00  0.00    -0.018 C 
ATOM     27  C   UNL     1      -4.411 -10.667  -9.883  0.00  0.00    +0.002 C 
ATOM     28  C   UNL     1      -3.278 -10.982  -8.902  0.00  0.00    -0.002 C 
ATOM     29  C   UNL     1      -3.579 -10.322  -7.555  0.00  0.00    -0.073 C 
ATOM     30  H   UNL     1      -2.834  -8.516  -8.141  0.00  0.00    -0.081 HD
BRANCH  28  31
ATOM     31  C   UNL     1      -3.168 -12.496  -8.717  0.00  0.00    +0.157 C 
BRANCH  31  32
ATOM     32  O   UNL     1      -2.777 -13.100  -9.952  0.00  0.00    -0.395 OA
ATOM     33  H   UNL     1      -2.688 -14.062  -9.909  0.00  0.00    +0.209 HD
ENDBRANCH  31  32
ENDBRANCH  28  31
ENDBRANCH  23  24
ENDBRANCH   8  23
TORSDOF 7
