REMARK  Name = ZINC35674832
REMARK  16 active torsions:
REMARK  status: ('A' for Active; 'I' for Inactive)
REMARK    1  A    between atoms: C_1  and  C_2
REMARK    2  A    between atoms: C_2  and  C_3
REMARK    3  A    between atoms: C_3  and  C_5
REMARK    4  A    between atoms: C_3  and  N_28
REMARK    5  A    between atoms: C_9  and  O_26
REMARK    6  A    between atoms: C_10  and  O_24
REMARK    7  A    between atoms: N_15  and  C_16
REMARK    8  A    between atoms: C_16  and  C_17
REMARK    9  A    between atoms: C_22  and  C_23
REMARK   10  A    between atoms: O_24  and  C_25
REMARK   11  A    between atoms: O_26  and  C_27
REMARK   12  A    between atoms: N_28  and  C_29
REMARK   13  A    between atoms: C_29  and  N_31
REMARK   14  A    between atoms: N_31  and  C_32
REMARK   15  A    between atoms: C_32  and  C_33
REMARK   16  A    between atoms: C_32  and  C_34
REMARK                            x       y       z     vdW  Elec       q    Type
REMARK                         _______ _______ _______ _____ _____    ______ ____
ROOT
ATOM      1  C   UNL     1       0.458  -1.939   1.459  0.00  0.00    -0.016 C 
ATOM      2  C   UNL     1       1.054  -2.438   2.749  0.00  0.00    -0.052 A 
ATOM      3  C   UNL     1       2.256  -1.892   3.177  0.00  0.00    +0.051 A 
ATOM      4  C   UNL     1       2.841  -2.323   4.354  0.00  0.00    +0.162 A 
ATOM      5  C   UNL     1       2.218  -3.310   5.113  0.00  0.00    +0.162 A 
ATOM      6  C   UNL     1       1.020  -3.851   4.683  0.00  0.00    +0.053 A 
ATOM      7  C   UNL     1       0.438  -3.414   3.503  0.00  0.00    -0.044 A 
ATOM      8  C   UNL     1      -0.873  -4.025   3.076  0.00  0.00    +0.017 C 
ATOM      9  C   UNL     1      -1.132  -3.718   1.601  0.00  0.00    -0.073 C 
ATOM     10  N   UNL     1      -0.968  -2.272   1.388  0.00  0.00    +0.388 N 
ATOM     11  H   UNL     1      -1.469  -1.766   2.102  0.00  0.00    -0.080 HD
ENDROOT
BRANCH   5  12
ATOM     12  O   UNL     1       2.786  -3.741   6.271  0.00  0.00    -0.491 OA
ATOM     13  C   UNL     1       2.090  -4.756   6.997  0.00  0.00    +0.277 C 
ENDBRANCH   5  12
BRANCH   4  14
ATOM     14  O   UNL     1       4.018  -1.784   4.769  0.00  0.00    -0.491 OA
ATOM     15  C   UNL     1       4.598  -0.776   3.938  0.00  0.00    +0.277 C 
ENDBRANCH   4  14
BRANCH   1  16
ATOM     16  C   UNL     1       0.625  -0.420   1.381  0.00  0.00    +0.062 C 
BRANCH  16  18
ATOM     17  C   UNL     1       1.928   1.367   0.219  0.00  0.00    +0.005 C 
ATOM     18  C   UNL     1       1.950  -0.088   0.690  0.00  0.00    +0.017 C 
ENDBRANCH  16  18
BRANCH  16  19
ATOM     19  N   UNL     1       0.626   0.142   2.733  0.00  0.00    -0.325 N 
ATOM     20  H   UNL     1       1.041  -0.346   3.461  0.00  0.00    +0.148 HD
BRANCH  19  21
ATOM     21  C   UNL     1       0.049   1.337   2.967  0.00  0.00    +0.131 C 
ATOM     22  S   UNL     1      -0.684   2.199   1.682  0.00  0.00    -0.019 S 
BRANCH  21  23
ATOM     23  N   UNL     1       0.049   1.855   4.211  0.00  0.00    -0.324 N 
ATOM     24  H   UNL     1       0.464   1.366   4.939  0.00  0.00    +0.148 HD
BRANCH  23  25
ATOM     25  C   UNL     1      -0.578   3.154   4.465  0.00  0.00    +0.066 C 
ATOM     26  C   UNL     1      -2.076   2.959   4.704  0.00  0.00    +0.027 C 
ATOM     27  C   UNL     1       0.057   3.794   5.701  0.00  0.00    +0.027 C 
ENDBRANCH  23  25
ENDBRANCH  21  23
ENDBRANCH  19  21
ENDBRANCH  16  19
ENDBRANCH   1  16
BRANCH  10  28
ATOM     28  C   UNL     1      -1.492  -1.908   0.065  0.00  0.00    -0.042 C 
BRANCH  28  29
ATOM     29  C   UNL     1      -2.979  -2.148   0.030  0.00  0.00    -0.061 A 
ATOM     30  C   UNL     1      -3.481  -3.296  -0.554  0.00  0.00    +0.002 A 
ATOM     31  C   UNL     1      -4.846  -3.516  -0.585  0.00  0.00    +0.000 A 
ATOM     32  C   UNL     1      -5.708  -2.587  -0.032  0.00  0.00    +0.000 A 
ATOM     33  C   UNL     1      -5.206  -1.440   0.553  0.00  0.00    +0.003 A 
ATOM     34  C   UNL     1      -3.841  -1.222   0.588  0.00  0.00    -0.049 A 
ATOM     35  C   UNL     1      -3.294   0.026   1.230  0.00  0.00    +0.044 C 
ENDBRANCH  28  29
ENDBRANCH  10  28
TORSDOF 10
