REMARK  Name = ZINC40225465
REMARK  8 active torsions:
REMARK  status: ('A' for Active; 'I' for Inactive)
REMARK    1  A    between atoms: C_1  and  C_2
REMARK    2  A    between atoms: C_2  and  C_3
REMARK    3  A    between atoms: C_3  and  C_4
REMARK    4  A    between atoms: C_7  and  S_10
REMARK    5  A    between atoms: S_10  and  N_13
REMARK    6  A    between atoms: N_13  and  C_14
REMARK    7  A    between atoms: C_14  and  C_20
REMARK    8  A    between atoms: C_20  and  N_21
REMARK                            x       y       z     vdW  Elec       q    Type
REMARK                         _______ _______ _______ _____ _____    ______ ____
ROOT
ATOM      1  N   UNL     1       0.159  -7.093   0.155  0.00  0.00    -0.186 NA
ATOM      2  H   UNL     1       0.735  -7.338   0.896  0.00  0.00    +0.149 HD
ENDROOT
BRANCH   1   3
ATOM      3  C   UNL     1      -1.269  -6.857   0.382  0.00  0.00    +0.025 C 
ATOM      4  C   UNL     1      -1.624  -7.230   1.823  0.00  0.00    +0.022 C 
ATOM      5  C   UNL     1      -0.805  -6.372   2.789  0.00  0.00    +0.002 C 
ATOM      6  C   UNL     1      -1.121  -4.894   2.552  0.00  0.00    +0.000 C 
ATOM      7  C   UNL     1      -0.766  -4.521   1.111  0.00  0.00    +0.002 C 
ATOM      8  C   UNL     1      -1.585  -5.379   0.145  0.00  0.00    +0.022 C 
BRANCH   3   9
ATOM      9  C   UNL     1      -2.088  -7.716  -0.584  0.00  0.00    -0.062 C 
BRANCH   9  10
ATOM     10  N   UNL     1      -1.645  -9.113  -0.493  0.00  0.00    +0.379 N 
ATOM     11  H   UNL     1      -2.115  -9.662  -1.198  0.00  0.00    -0.090 HD
ATOM     12  H   UNL     1      -0.647  -9.160  -0.641  0.00  0.00    -0.090 HD
ATOM     13  H   UNL     1      -1.867  -9.478   0.421  0.00  0.00    -0.090 HD
ENDBRANCH   9  10
ENDBRANCH   3   9
ENDBRANCH   1   3
BRANCH   1  14
ATOM     14  S   UNL     1       0.791  -6.944  -1.369  0.00  0.00    +0.059 S 
ATOM     15  O   UNL     1      -0.096  -7.625  -2.245  0.00  0.00    -0.153 OA
ATOM     16  O   UNL     1       2.169  -7.274  -1.271  0.00  0.00    -0.153 OA
BRANCH  14  20
ATOM     17  C   UNL     1       0.590  -2.559  -2.478  0.00  0.00    -0.047 A 
ATOM     18  C   UNL     1       1.610  -3.021  -1.668  0.00  0.00    +0.005 A 
ATOM     19  C   UNL     1       1.671  -4.360  -1.329  0.00  0.00    +0.029 A 
ATOM     20  C   UNL     1       0.712  -5.237  -1.800  0.00  0.00    +0.105 A 
ATOM     21  C   UNL     1      -0.309  -4.775  -2.609  0.00  0.00    +0.029 A 
ATOM     22  C   UNL     1      -0.373  -3.435  -2.944  0.00  0.00    +0.005 A 
BRANCH  17  23
ATOM     23  C   UNL     1       0.523  -1.100  -2.847  0.00  0.00    +0.035 C 
BRANCH  23  25
ATOM     24  C   UNL     1      -0.371   1.135  -2.177  0.00  0.00    +0.004 C 
ATOM     25  C   UNL     1      -0.303  -0.347  -1.802  0.00  0.00    +0.001 C 
ENDBRANCH  23  25
ENDBRANCH  17  23
ENDBRANCH  14  20
ENDBRANCH   1  14
TORSDOF 7
