REMARK  Name = ZINC16996141
REMARK  7 active torsions:
REMARK  status: ('A' for Active; 'I' for Inactive)
REMARK    1  A    between atoms: C_1  and  C_2
REMARK    2  A    between atoms: C_2  and  C_3
REMARK    3  A    between atoms: C_3  and  C_4
REMARK    4  A    between atoms: C_4  and  N_5
REMARK    5  A    between atoms: C_7  and  C_13
REMARK    6  A    between atoms: C_19  and  O_25
REMARK    7  A    between atoms: O_25  and  C_26
REMARK                            x       y       z     vdW  Elec       q    Type
REMARK                         _______ _______ _______ _____ _____    ______ ____
ROOT
ATOM      1  C   UNL     1      -0.611   4.508   3.529  0.00  0.00    +0.018 C 
ATOM      2  C   UNL     1      -1.779   5.461   3.445  0.00  0.00    +0.011 A 
ATOM      3  C   UNL     1      -2.166   6.242   4.484  0.00  0.00    -0.022 A 
ATOM      4  C   UNL     1      -3.310   7.006   4.039  0.00  0.00    +0.006 A 
ATOM      5  C   UNL     1      -4.117   7.961   4.667  0.00  0.00    +0.056 A 
ATOM      6  C   UNL     1      -5.152   8.497   3.915  0.00  0.00    +0.121 A 
ATOM      7  C   UNL     1      -5.380   8.107   2.600  0.00  0.00    +0.047 A 
ATOM      8  C   UNL     1      -4.592   7.165   1.963  0.00  0.00    +0.030 A 
ATOM      9  C   UNL     1      -3.546   6.611   2.697  0.00  0.00    +0.047 A 
ATOM     10  N   UNL     1      -2.600   5.676   2.376  0.00  0.00    -0.359 N 
ATOM     11  H   UNL     1      -2.438   5.124   1.438  0.00  0.00    +0.166 HD
ATOM     12  C   UNL     1      -1.472   6.252   5.822  0.00  0.00    +0.018 C 
ATOM     13  C   UNL     1      -0.105   5.574   5.653  0.00  0.00    -0.076 C 
ATOM     14  N   UNL     1      -0.277   4.296   4.947  0.00  0.00    +0.388 N 
ATOM     15  H   UNL     1      -1.087   3.734   5.434  0.00  0.00    -0.084 HD
ATOM     16  H   UNL     1       0.661   3.727   5.021  0.00  0.00    -0.084 HD
ENDROOT
BRANCH   1  19
ATOM     17  N   UNL     1      -0.698   1.558   1.213  0.00  0.00    -0.288 N 
ATOM     18  C   UNL     1      -0.339   2.756   1.776  0.00  0.00    +0.260 A 
ATOM     19  C   UNL     1      -0.985   3.192   2.895  0.00  0.00    +0.073 A 
ATOM     20  C   UNL     1      -1.999   2.395   3.453  0.00  0.00    +0.258 A 
ATOM     21  O   UNL     1      -2.587   2.762   4.456  0.00  0.00    -0.267 OA
ATOM     22  N   UNL     1      -2.318   1.221   2.871  0.00  0.00    -0.302 N 
ATOM     23  C   UNL     1      -1.673   0.811   1.764  0.00  0.00    +0.163 A 
ATOM     24  S   UNL     1      -2.097  -0.684   1.046  0.00  0.00    -0.013 S 
ATOM     25  O   UNL     1       0.642   3.501   1.223  0.00  0.00    -0.267 OA
ATOM     26  H   UNL     1      -3.112   0.598   3.308  0.00  0.00    +0.171 HD
BRANCH  17  27
ATOM     27  C   UNL     1      -0.013   1.086   0.008  0.00  0.00    +0.127 C 
BRANCH  27  28
ATOM     28  C   UNL     1      -0.753   1.593  -1.232  0.00  0.00    +0.021 C 
BRANCH  28  30
ATOM     29  C   UNL     1      -0.777   1.606  -3.730  0.00  0.00    +0.004 C 
ATOM     30  C   UNL     1      -0.037   1.099  -2.490  0.00  0.00    -0.002 C 
ENDBRANCH  28  30
ENDBRANCH  27  28
ENDBRANCH  17  27
ENDBRANCH   1  19
BRANCH   6  31
ATOM     31  O   UNL     1      -5.966   9.428   4.479  0.00  0.00    -0.495 OA
ATOM     32  C   UNL     1      -7.018   9.950   3.664  0.00  0.00    +0.277 C 
ENDBRANCH   6  31
TORSDOF 5
