REMARK  Name = ZINC08738085
REMARK  10 active torsions:
REMARK  status: ('A' for Active; 'I' for Inactive)
REMARK    1  A    between atoms: C_1  and  C_2
REMARK    2  A    between atoms: C_8  and  C_9
REMARK    3  A    between atoms: C_8  and  N_76
REMARK    4  A    between atoms: C_9  and  C_10
REMARK    5  A    between atoms: C_10  and  N_11
REMARK    6  A    between atoms: N_11  and  C_12
REMARK    7  A    between atoms: C_33  and  C_37
REMARK    8  A    between atoms: C_37  and  C_38
REMARK    9  A    between atoms: C_37  and  C_39
REMARK   10  A    between atoms: C_37  and  C_40
REMARK                            x       y       z     vdW  Elec       q    Type
REMARK                         _______ _______ _______ _____ _____    ______ ____
ROOT
ATOM      1  C   UNL     1      -5.135   7.576  -2.480  0.00  0.00    +0.042 A 
ATOM      2  C   UNL     1      -4.748   8.697  -1.745  0.00  0.00    +0.072 A 
ATOM      3  C   UNL     1      -5.323   9.928  -1.987  0.00  0.00    +0.154 A 
ATOM      4  C   UNL     1      -6.317  10.061  -2.974  0.00  0.00    +0.094 A 
ATOM      5  C   UNL     1      -6.721   8.950  -3.714  0.00  0.00    +0.062 A 
ATOM      6  C   UNL     1      -6.123   7.691  -3.466  0.00  0.00    +0.056 A 
ATOM      7  C   UNL     1      -6.539   6.515  -4.237  0.00  0.00    +0.196 A 
ATOM      8  O   UNL     1      -6.025   5.433  -4.023  0.00  0.00    -0.287 OA
ATOM      9  C   UNL     1      -7.582   6.645  -5.275  0.00  0.00    +0.033 A 
ATOM     10  C   UNL     1      -7.982   5.533  -6.012  0.00  0.00    +0.012 A 
ATOM     11  C   UNL     1      -8.959   5.664  -6.981  0.00  0.00    +0.001 A 
ATOM     12  C   UNL     1      -9.544   6.894  -7.225  0.00  0.00    +0.001 A 
ATOM     13  C   UNL     1      -9.160   8.008  -6.503  0.00  0.00    +0.012 A 
ATOM     14  C   UNL     1      -8.177   7.895  -5.523  0.00  0.00    +0.033 A 
ATOM     15  C   UNL     1      -7.759   9.080  -4.746  0.00  0.00    +0.197 A 
ATOM     16  O   UNL     1      -8.272  10.162  -4.961  0.00  0.00    -0.287 OA
ATOM     17  N   UNL     1      -6.893  11.301  -3.205  0.00  0.00    -0.349 N 
ATOM     18  H   UNL     1      -7.579  11.407  -3.882  0.00  0.00    +0.166 HD
ATOM     19  C   UNL     1      -6.469  12.399  -2.447  0.00  0.00    +0.083 A 
ATOM     20  C   UNL     1      -7.027  13.651  -2.657  0.00  0.00    +0.029 A 
ATOM     21  C   UNL     1      -6.602  14.729  -1.903  0.00  0.00    +0.006 A 
ATOM     22  C   UNL     1      -5.623  14.562  -0.942  0.00  0.00    -0.038 A 
ATOM     23  C   UNL     1      -5.062  13.317  -0.727  0.00  0.00    +0.052 A 
ATOM     24  C   UNL     1      -5.481  12.229  -1.478  0.00  0.00    +0.152 A 
ATOM     25  O   UNL     1      -4.930  11.007  -1.266  0.00  0.00    -0.452 OA
ENDROOT
BRANCH  22  26
ATOM     26  C   UNL     1      -5.165  15.742  -0.124  0.00  0.00    -0.013 C 
ATOM     27  C   UNL     1      -5.936  16.991  -0.554  0.00  0.00    +0.015 C 
ATOM     28  C   UNL     1      -5.425  15.467   1.358  0.00  0.00    +0.015 C 
ATOM     29  C   UNL     1      -3.667  15.966  -0.346  0.00  0.00    +0.015 C 
ENDBRANCH  22  26
BRANCH   1  30
ATOM     30  N   UNL     1      -4.546   6.347  -2.230  0.00  0.00    -0.343 N 
ATOM     31  H   UNL     1      -4.745   5.588  -2.801  0.00  0.00    +0.146 HD
BRANCH  30  32
ATOM     32  C   UNL     1      -3.620   6.194  -1.105  0.00  0.00    +0.100 C 
BRANCH  32  33
ATOM     33  C   UNL     1      -3.116   4.750  -1.053  0.00  0.00    +0.000 C 
BRANCH  33  34
ATOM     34  C   UNL     1      -2.149   4.590   0.123  0.00  0.00    -0.077 C 
BRANCH  34  41
ATOM     35  C   UNL     1      -1.825   3.321   2.613  0.00  0.00    -0.013 C 
ATOM     36  C   UNL     1      -0.939   2.945   1.423  0.00  0.00    -0.072 C 
ATOM     37  C   UNL     1      -0.576   1.461   1.507  0.00  0.00    -0.016 C 
ATOM     38  C   UNL     1       0.292   1.084   0.302  0.00  0.00    -0.003 C 
ATOM     39  C   UNL     1      -0.467   1.409  -0.987  0.00  0.00    -0.019 C 
ATOM     40  C   UNL     1      -0.833   2.895  -0.997  0.00  0.00    -0.078 C 
ATOM     41  N   UNL     1      -1.689   3.187   0.172  0.00  0.00    +0.381 N 
ATOM     42  H   UNL     1      -2.507   2.567   0.149  0.00  0.00    -0.081 HD
ENDBRANCH  34  41
ENDBRANCH  33  34
ENDBRANCH  32  33
ENDBRANCH  30  32
ENDBRANCH   1  30
TORSDOF 6
