REMARK  Name = ZINC35779864
REMARK  6 active torsions:
REMARK  status: ('A' for Active; 'I' for Inactive)
REMARK    1  A    between atoms: C_1  and  C_2
REMARK    2  A    between atoms: C_2  and  N_3
REMARK    3  A    between atoms: C_5  and  N_8
REMARK    4  A    between atoms: N_8  and  C_9
REMARK    5  A    between atoms: C_13  and  C_20
REMARK    6  A    between atoms: C_13  and  C_21
REMARK                            x       y       z     vdW  Elec       q    Type
REMARK                         _______ _______ _______ _____ _____    ______ ____
ROOT
ATOM      1  C   UNL     1       3.371  -2.421  -4.466  0.00  0.00    +0.101 C 
ATOM      2  C   UNL     1       4.835  -2.785  -4.705  0.00  0.00    +0.028 C 
ATOM      3  C   UNL     1       5.018  -3.099  -6.194  0.00  0.00    +0.013 C 
ATOM      4  C   UNL     1       4.307  -4.415  -6.500  0.00  0.00    -0.009 C 
ATOM      5  C   UNL     1       2.890  -4.383  -5.988  0.00  0.00    -0.037 A 
ATOM      6  C   UNL     1       2.462  -3.471  -5.051  0.00  0.00    -0.024 A 
ATOM      7  C   UNL     1       1.144  -3.500  -4.615  0.00  0.00    +0.006 A 
ATOM      8  C   UNL     1       0.261  -4.434  -5.117  0.00  0.00    +0.000 A 
ATOM      9  C   UNL     1       0.691  -5.348  -6.060  0.00  0.00    +0.000 A 
ATOM     10  C   UNL     1       1.999  -5.321  -6.493  0.00  0.00    +0.004 A 
ATOM     11  C   UNL     1       5.061  -5.564  -5.828  0.00  0.00    +0.016 C 
ATOM     12  C   UNL     1       4.291  -4.640  -8.014  0.00  0.00    +0.016 C 
ENDROOT
BRANCH   1  13
ATOM     13  N   UNL     1       3.127  -2.320  -3.025  0.00  0.00    -0.335 N 
ATOM     14  H   UNL     1       3.686  -2.811  -2.403  0.00  0.00    +0.147 HD
BRANCH  13  17
ATOM     15  N   UNL     1       0.688  -0.476  -1.203  0.00  0.00    -0.270 N 
ATOM     16  C   UNL     1       1.748  -1.327  -1.240  0.00  0.00    +0.131 A 
ATOM     17  C   UNL     1       2.081  -1.510  -2.542  0.00  0.00    +0.066 A 
ATOM     18  C   UNL     1       1.200  -0.749  -3.323  0.00  0.00    +0.157 A 
ATOM     19  N   UNL     1       0.364  -0.137  -2.523  0.00  0.00    -0.178 NA
BRANCH  15  21
ATOM     20  C   UNL     1      -0.019   1.526   0.010  0.00  0.00    +0.029 C 
ATOM     21  C   UNL     1       0.002  -0.004   0.002  0.00  0.00    +0.140 C 
ENDBRANCH  15  21
ENDBRANCH  13  17
ENDBRANCH   1  13
TORSDOF 3
