REMARK  Name = ZINC05573324
REMARK  3 active torsions:
REMARK  status: ('A' for Active; 'I' for Inactive)
REMARK    1  A    between atoms: C_11  and  C_13
REMARK    2  A    between atoms: N_15  and  C_16
REMARK    3  A    between atoms: C_21  and  N_22
REMARK                            x       y       z     vdW  Elec       q    Type
REMARK                         _______ _______ _______ _____ _____    ______ ____
ROOT
ATOM      1  C   UNL     1       0.195   9.491   0.051  0.00  0.00    +0.255 C 
ATOM      2  O   UNL     1       1.194  10.185   0.030  0.00  0.00    -0.269 OA
ATOM      3  N   UNL     1      -1.024  10.066   0.070  0.00  0.00    -0.279 N 
ATOM      4  H   UNL     1      -1.821   9.516   0.005  0.00  0.00    +0.155 HD
ENDROOT
BRANCH   1  15
ATOM      5  C   UNL     1      -1.222   1.758   0.104  0.00  0.00    +0.001 A 
ATOM      6  C   UNL     1      -0.013   1.075   0.091  0.00  0.00    +0.001 A 
ATOM      7  C   UNL     1       1.170   1.787   0.067  0.00  0.00    +0.016 A 
ATOM      8  C   UNL     1       1.134   3.167   0.061  0.00  0.00    +0.021 A 
ATOM      9  C   UNL     1      -0.077   3.881   0.080  0.00  0.00    +0.004 A 
ATOM     10  C   UNL     1      -1.268   3.118   0.104  0.00  0.00    +0.010 A 
ATOM     11  C   UNL     1       0.055   5.340   0.071  0.00  0.00    +0.035 A 
ATOM     12  C   UNL     1       1.340   5.877   0.046  0.00  0.00    +0.028 A 
ATOM     13  S   UNL     1       2.384   4.423   0.034  0.00  0.00    -0.088 S 
ATOM     14  C   UNL     1       1.459   7.258   0.038  0.00  0.00    +0.036 A 
ATOM     15  C   UNL     1       0.316   8.031   0.055  0.00  0.00    +0.076 A 
ATOM     16  S   UNL     1      -0.975   6.802   0.083  0.00  0.00    -0.083 S 
ENDBRANCH   1  15
BRANCH   3  17
ATOM     17  C   UNL     1      -1.141  11.455   0.182  0.00  0.00    +0.064 A 
ATOM     18  C   UNL     1      -0.128  12.192   0.783  0.00  0.00    +0.027 A 
ATOM     19  C   UNL     1      -0.245  13.563   0.893  0.00  0.00    +0.022 A 
ATOM     20  C   UNL     1      -1.371  14.204   0.406  0.00  0.00    +0.043 A 
ATOM     21  C   UNL     1      -2.381  13.473  -0.193  0.00  0.00    +0.054 A 
ATOM     22  C   UNL     1      -2.267  12.101  -0.311  0.00  0.00    +0.149 A 
ATOM     23 CL   UNL     1      -1.516  15.928   0.546  0.00  0.00    -0.083 Cl
BRANCH  22  24
ATOM     24  N   UNL     1      -3.345  11.320  -0.957  0.00  0.00    +0.058 N 
ATOM     25  O   UNL     1      -4.290  11.894  -1.470  0.00  0.00    -0.126 OA
ATOM     26  O   UNL     1      -3.288  10.104  -0.977  0.00  0.00    -0.126 OA
ENDBRANCH  22  24
ENDBRANCH   3  17
TORSDOF 3
