REMARK  Name = ZINC49573693
REMARK  7 active torsions:
REMARK  status: ('A' for Active; 'I' for Inactive)
REMARK    1  A    between atoms: C_4  and  C_7
REMARK    2  A    between atoms: C_10  and  C_12
REMARK    3  A    between atoms: C_17  and  S_27
REMARK    4  A    between atoms: C_18  and  C_25
REMARK    5  A    between atoms: S_27  and  C_28
REMARK    6  A    between atoms: C_28  and  C_29
REMARK    7  A    between atoms: N_31  and  C_32
REMARK                            x       y       z     vdW  Elec       q    Type
REMARK                         _______ _______ _______ _____ _____    ______ ____
ROOT
ATOM      1  C   UNL     1       5.130  -4.139  -0.294  0.00  0.00    +0.119 C 
ATOM      2  C   UNL     1       5.860  -4.423  -1.581  0.00  0.00    +0.132 C 
ATOM      3  N   UNL     1       5.638  -3.672  -2.618  0.00  0.00    -0.285 NA
ATOM      4  N   UNL     1       6.734  -5.434  -1.676  0.00  0.00    -0.229 NA
ATOM      5  C   UNL     1       7.016  -6.229  -0.684  0.00  0.00    +0.094 C 
ATOM      6  C   UNL     1       6.364  -6.075   0.665  0.00  0.00    +0.154 C 
ATOM      7  C   UNL     1       5.994  -4.605   0.883  0.00  0.00    +0.008 C 
ATOM      8  C   UNL     1       5.207  -4.459   2.185  0.00  0.00    +0.009 C 
ATOM      9  C   UNL     1       4.834  -2.989   2.394  0.00  0.00    +0.001 C 
ATOM     10  C   UNL     1       6.108  -2.146   2.466  0.00  0.00    +0.000 C 
ATOM     11  C   UNL     1       6.892  -2.291   1.160  0.00  0.00    +0.001 C 
ATOM     12  C   UNL     1       7.266  -3.760   0.951  0.00  0.00    +0.009 C 
ATOM     13  H   UNL     1       5.007  -2.938  -2.559  0.00  0.00    +0.188 HD
ENDROOT
BRANCH   1  17
ATOM     14  C   UNL     1       3.827  -0.732   0.506  0.00  0.00    +0.078 A 
ATOM     15  C   UNL     1       4.759  -0.043  -0.224  0.00  0.00    +0.075 A 
ATOM     16  S   UNL     1       5.729  -1.393  -0.877  0.00  0.00    -0.079 S 
ATOM     17  C   UNL     1       4.872  -2.659  -0.175  0.00  0.00    +0.090 A 
ATOM     18  N   UNL     1       3.931  -2.053   0.501  0.00  0.00    -0.243 NA
BRANCH  14  22
ATOM     19  C   UNL     1       0.769   1.264   2.683  0.00  0.00    +0.000 A 
ATOM     20  C   UNL     1       1.623   1.990   1.873  0.00  0.00    +0.001 A 
ATOM     21  C   UNL     1       2.618   1.347   1.164  0.00  0.00    +0.010 A 
ATOM     22  C   UNL     1       2.760  -0.036   1.266  0.00  0.00    +0.001 A 
ATOM     23  C   UNL     1       1.897  -0.762   2.084  0.00  0.00    +0.010 A 
ATOM     24  C   UNL     1       0.906  -0.108   2.788  0.00  0.00    +0.001 A 
ENDBRANCH  14  22
ENDBRANCH   1  17
BRANCH   6  25
ATOM     25  C   UNL     1       5.147  -6.901   0.720  0.00  0.00    +0.073 C 
ATOM     26  N   UNL     1       4.208  -7.538   0.762  0.00  0.00    -0.196 NA
ENDBRANCH   6  25
BRANCH   5  27
ATOM     27  S   UNL     1       8.123  -7.445  -0.912  0.00  0.00    -0.100 S 
BRANCH  27  28
ATOM     28  C   UNL     1       8.633  -7.254  -2.643  0.00  0.00    +0.171 C 
BRANCH  28  29
ATOM     29  C   UNL     1       9.651  -8.311  -2.985  0.00  0.00    +0.227 C 
ATOM     30  O   UNL     1       9.998  -9.114  -2.145  0.00  0.00    -0.275 OA
ATOM     31  N   UNL     1      10.176  -8.364  -4.226  0.00  0.00    -0.285 N 
ATOM     32  H   UNL     1       9.958  -7.677  -4.875  0.00  0.00    +0.155 HD
BRANCH  31  33
ATOM     33  C   UNL     1      11.036  -9.411  -4.577  0.00  0.00    +0.033 A 
ATOM     34  C   UNL     1      12.097  -9.179  -5.442  0.00  0.00    +0.023 A 
ATOM     35  C   UNL     1      12.944 -10.214  -5.788  0.00  0.00    +0.002 A 
ATOM     36  C   UNL     1      12.735 -11.480  -5.273  0.00  0.00    +0.000 A 
ATOM     37  C   UNL     1      11.679 -11.715  -4.412  0.00  0.00    +0.002 A 
ATOM     38  C   UNL     1      10.832 -10.683  -4.058  0.00  0.00    +0.023 A 
ENDBRANCH  31  33
ENDBRANCH  28  29
ENDBRANCH  27  28
ENDBRANCH   5  27
TORSDOF 7
