REMARK  Name = ZINC09343794
REMARK  8 active torsions:
REMARK  status: ('A' for Active; 'I' for Inactive)
REMARK    1  A    between atoms: C_1  and  N_46
REMARK    2  A    between atoms: C_2  and  N_46
REMARK    3  A    between atoms: C_3  and  C_4
REMARK    4  A    between atoms: C_3  and  N_46
REMARK    5  A    between atoms: C_4  and  N_5
REMARK    6  A    between atoms: C_16  and  C_18
REMARK    7  A    between atoms: C_18  and  S_19
REMARK    8  A    between atoms: S_19  and  C_20
REMARK                            x       y       z     vdW  Elec       q    Type
REMARK                         _______ _______ _______ _____ _____    ______ ____
ROOT
ATOM      1  N   UNL     1      -0.242   1.246   2.466  0.00  0.00    -0.252 N 
ATOM      2  C   UNL     1      -0.890   1.693   3.606  0.00  0.00    +0.168 A 
ATOM      3  N   UNL     1      -1.969   2.434   3.702  0.00  0.00    -0.224 NA
ATOM      4  C   UNL     1      -2.497   2.797   4.891  0.00  0.00    +0.080 A 
ATOM      5  C   UNL     1      -3.646   3.586   5.132  0.00  0.00    +0.030 A 
ATOM      6  C   UNL     1      -4.048   3.864   6.412  0.00  0.00    +0.017 A 
ATOM      7  C   UNL     1      -3.350   3.385   7.512  0.00  0.00    +0.019 A 
ATOM      8  C   UNL     1      -2.222   2.609   7.313  0.00  0.00    +0.032 A 
ATOM      9  C   UNL     1      -1.811   2.327   6.034  0.00  0.00    +0.042 A 
ATOM     10  S   UNL     1      -0.475   1.400   5.319  0.00  0.00    -0.052 S 
ATOM     11 BR   UNL     1      -3.936   3.787   9.264  0.00  0.00    -0.050 Br
ATOM     12  C   UNL     1      -0.718   1.572   1.248  0.00  0.00    +0.231 C 
ATOM     13  O   UNL     1      -1.714   2.256   1.150  0.00  0.00    -0.274 OA
ENDROOT
BRANCH   1  14
ATOM     14  C   UNL     1       0.962   0.419   2.584  0.00  0.00    +0.097 C 
BRANCH  14  15
ATOM     15  C   UNL     1       2.198   1.321   2.624  0.00  0.00    -0.060 C 
BRANCH  15  18
ATOM     16  C   UNL     1       3.605  -0.323   1.537  0.00  0.00    -0.097 C 
ATOM     17  C   UNL     1       4.586   1.319   3.022  0.00  0.00    -0.097 C 
ATOM     18  N   UNL     1       3.401   0.474   2.765  0.00  0.00    +0.377 N 
ATOM     19  H   UNL     1       3.269  -0.165   3.558  0.00  0.00    -0.083 HD
ENDBRANCH  15  18
ENDBRANCH  14  15
ENDBRANCH   1  14
BRANCH  12  20
ATOM     20  C   UNL     1      -0.013   1.086   0.008  0.00  0.00    +0.170 C 
BRANCH  20  21
ATOM     21  S   UNL     1      -0.890   1.687  -1.462  0.00  0.00    -0.116 S 
BRANCH  21  22
ATOM     22  C   UNL     1       0.045   1.043  -2.809  0.00  0.00    +0.008 A 
ATOM     23  C   UNL     1       1.176   0.273  -2.567  0.00  0.00    +0.016 A 
ATOM     24  C   UNL     1       1.904  -0.234  -3.625  0.00  0.00    +0.021 A 
ATOM     25  C   UNL     1       1.514   0.032  -4.926  0.00  0.00    +0.041 A 
ATOM     26  C   UNL     1       0.391   0.803  -5.170  0.00  0.00    +0.021 A 
ATOM     27  C   UNL     1      -0.344   1.309  -4.116  0.00  0.00    +0.016 A 
ATOM     28 CL   UNL     1       2.435  -0.603  -6.254  0.00  0.00    -0.084 Cl
ENDBRANCH  21  22
ENDBRANCH  20  21
ENDBRANCH  12  20
TORSDOF 6
