REMARK  Name = ZINC62940021
REMARK  5 active torsions:
REMARK  status: ('A' for Active; 'I' for Inactive)
REMARK    1  A    between atoms: C_1  and  C_2
REMARK    2  A    between atoms: C_2  and  C_4
REMARK    3  A    between atoms: C_2  and  N_23
REMARK    4  A    between atoms: C_4  and  C_6
REMARK    5  A    between atoms: C_4  and  N_12
REMARK                            x       y       z     vdW  Elec       q    Type
REMARK                         _______ _______ _______ _____ _____    ______ ____
ROOT
ATOM      1  C   UNL     1       0.752  -0.494   1.297  0.00  0.00    +0.079 C 
ENDROOT
BRANCH   1   2
ATOM      2  N   UNL     1       0.678  -1.960   1.364  0.00  0.00    -0.298 NA
ATOM      3  C   UNL     1      -0.695  -2.426   1.162  0.00  0.00    +0.083 C 
ATOM      4  C   UNL     1      -0.935  -3.892   1.494  0.00  0.00    -0.003 C 
ATOM      5  C   UNL     1       0.227  -4.756   0.962  0.00  0.00    -0.077 C 
ATOM      6  N   UNL     1       1.194  -4.879   2.019  0.00  0.00    +0.382 N 
ATOM      7  C   UNL     1       2.044  -6.066   2.062  0.00  0.00    -0.078 C 
ATOM      8  C   UNL     1       3.200  -5.704   3.032  0.00  0.00    -0.020 C 
ATOM      9  C   UNL     1       2.925  -4.233   3.458  0.00  0.00    -0.016 C 
ATOM     10  C   UNL     1       2.006  -3.741   2.325  0.00  0.00    -0.054 C 
ATOM     11  C   UNL     1       1.263  -2.462   2.623  0.00  0.00    +0.070 C 
ATOM     12  H   UNL     1       0.631  -4.985   2.849  0.00  0.00    -0.081 HD
ENDBRANCH   1   2
BRANCH   1  13
ATOM     13  C   UNL     1       2.192  -0.058   1.390  0.00  0.00    +0.007 A 
ATOM     14  C   UNL     1       2.724   0.989   2.065  0.00  0.00    +0.014 A 
ATOM     15  C   UNL     1       4.090   1.200   2.007  0.00  0.00    +0.028 A 
ATOM     16  C   UNL     1       4.855   0.351   1.276  0.00  0.00    +0.078 A 
ATOM     17  S   UNL     1       3.639  -0.794   0.647  0.00  0.00    -0.080 S 
ATOM     18 CL   UNL     1       6.572   0.369   1.025  0.00  0.00    -0.076 Cl
ENDBRANCH   1  13
BRANCH   1  20
ATOM     19  C   UNL     1       0.881  -0.699  -1.190  0.00  0.00    -0.012 C 
ATOM     20  C   UNL     1       0.158  -0.013  -0.029  0.00  0.00    -0.056 C 
BRANCH  20  21
ATOM     21  N   UNL     1       0.323   1.442  -0.140  0.00  0.00    +0.381 N 
ATOM     22  H   UNL     1      -0.152   1.772  -0.966  0.00  0.00    -0.090 HD
ATOM     23  H   UNL     1      -0.070   1.889   0.675  0.00  0.00    -0.090 HD
ATOM     24  H   UNL     1       1.305   1.665  -0.205  0.00  0.00    -0.090 HD
ENDBRANCH  20  21
ENDBRANCH   1  20
TORSDOF 4
