REMARK  Name = ZINC26805384
REMARK  8 active torsions:
REMARK  status: ('A' for Active; 'I' for Inactive)
REMARK    1  A    between atoms: C_1  and  C_2
REMARK    2  A    between atoms: C_3  and  N_15
REMARK    3  A    between atoms: N_6  and  C_9
REMARK    4  A    between atoms: N_7  and  C_8
REMARK    5  A    between atoms: C_16  and  C_18
REMARK    6  A    between atoms: C_18  and  N_27
REMARK    7  A    between atoms: C_19  and  C_20
REMARK    8  A    between atoms: C_28  and  C_30
REMARK                            x       y       z     vdW  Elec       q    Type
REMARK                         _______ _______ _______ _____ _____    ______ ____
ROOT
ATOM      1  C   UNL     1       0.621  -3.270  -1.591  0.00  0.00    +0.097 C 
ATOM      2  C   UNL     1      -0.648  -3.186  -1.129  0.00  0.00    +0.036 C 
ENDROOT
BRANCH   2   3
ATOM      3  C   UNL     1      -1.515  -4.375  -1.138  0.00  0.00    -0.023 A 
ATOM      4  C   UNL     1      -1.257  -5.426  -2.025  0.00  0.00    +0.009 A 
ATOM      5  C   UNL     1      -2.070  -6.539  -2.024  0.00  0.00    +0.020 A 
ATOM      6  C   UNL     1      -3.147  -6.613  -1.156  0.00  0.00    +0.041 A 
ATOM      7  C   UNL     1      -3.412  -5.574  -0.279  0.00  0.00    +0.020 A 
ATOM      8  C   UNL     1      -2.604  -4.457  -0.265  0.00  0.00    +0.009 A 
ATOM      9 CL   UNL     1      -4.169  -8.017  -1.166  0.00  0.00    -0.084 Cl
ENDBRANCH   2   3
BRANCH   1  11
ATOM     10  N   UNL     1       0.901  -0.850  -1.441  0.00  0.00    -0.275 N 
ATOM     11  C   UNL     1       1.427  -2.052  -1.752  0.00  0.00    +0.263 C 
ATOM     12  O   UNL     1       2.568  -2.128  -2.168  0.00  0.00    -0.268 OA
ATOM     13  H   UNL     1      -0.105  -0.787  -1.002  0.00  0.00    +0.155 HD
BRANCH  10  16
ATOM     14  C   UNL     1       1.736   1.155   0.727  0.00  0.00    +0.067 C 
ATOM     15  C   UNL     1       2.026   1.230  -0.750  0.00  0.00    +0.059 A 
ATOM     16  C   UNL     1       1.641   0.324  -1.677  0.00  0.00    +0.122 A 
ATOM     17  C   UNL     1       2.131   0.795  -2.974  0.00  0.00    +0.293 A 
ATOM     18  O   UNL     1       1.977   0.247  -4.050  0.00  0.00    -0.264 OA
ATOM     19  N   UNL     1       2.785   1.954  -2.749  0.00  0.00    -0.216 N 
ATOM     20  N   UNL     1       2.727   2.226  -1.377  0.00  0.00    -0.282 N 
ATOM     21  C   UNL     1       3.317   3.394  -0.718  0.00  0.00    +0.171 C 
BRANCH  19  22
ATOM     22  C   UNL     1       3.412   2.744  -3.717  0.00  0.00    +0.067 A 
ATOM     23  C   UNL     1       3.138   4.104  -3.790  0.00  0.00    +0.028 A 
ATOM     24  C   UNL     1       3.763   4.883  -4.744  0.00  0.00    +0.002 A 
ATOM     25  C   UNL     1       4.652   4.308  -5.633  0.00  0.00    +0.000 A 
ATOM     26  C   UNL     1       4.923   2.953  -5.567  0.00  0.00    +0.002 A 
ATOM     27  C   UNL     1       4.306   2.170  -4.612  0.00  0.00    +0.028 A 
ENDBRANCH  19  22
ENDBRANCH  10  16
ENDBRANCH   1  11
BRANCH   1  28
ATOM     28  N   UNL     1       1.166  -4.516  -1.914  0.00  0.00    -0.277 N 
ATOM     29  C   UNL     1       1.653  -4.739  -3.151  0.00  0.00    +0.248 C 
ATOM     30  O   UNL     1       1.698  -3.831  -3.958  0.00  0.00    -0.270 OA
ATOM     31  H   UNL     1       1.196  -5.316  -1.159  0.00  0.00    +0.155 HD
BRANCH  29  32
ATOM     32  C   UNL     1       2.133  -6.085  -3.525  0.00  0.00    +0.037 A 
ATOM     33  C   UNL     1       1.984  -7.154  -2.639  0.00  0.00    +0.013 A 
ATOM     34  C   UNL     1       2.430  -8.410  -2.997  0.00  0.00    +0.001 A 
ATOM     35  C   UNL     1       3.033  -8.609  -4.226  0.00  0.00    +0.000 A 
ATOM     36  C   UNL     1       3.188  -7.553  -5.107  0.00  0.00    +0.001 A 
ATOM     37  C   UNL     1       2.742  -6.293  -4.764  0.00  0.00    +0.013 A 
ENDBRANCH  29  32
ENDBRANCH   1  28
TORSDOF 6
