REMARK  Name = ZINC12654320
REMARK  8 active torsions:
REMARK  status: ('A' for Active; 'I' for Inactive)
REMARK    1  A    between atoms: C_1  and  C_2
REMARK    2  A    between atoms: C_4  and  C_31
REMARK    3  A    between atoms: C_9  and  C_13
REMARK    4  A    between atoms: C_9  and  C_14
REMARK    5  A    between atoms: N_17  and  C_19
REMARK    6  A    between atoms: C_19  and  C_20
REMARK    7  A    between atoms: C_20  and  C_21
REMARK    8  A    between atoms: C_23  and  C_26
REMARK                            x       y       z     vdW  Elec       q    Type
REMARK                         _______ _______ _______ _____ _____    ______ ____
ROOT
ATOM      1  C   UNL     1      -0.018   1.503   0.010  0.00  0.00    +0.062 C 
ATOM      2  C   UNL     1       0.002  -0.004   0.002  0.00  0.00    +0.026 C 
ATOM      3  C   UNL     1      -1.080  -0.802   0.003  0.00  0.00    +0.022 C 
ATOM      4  C   UNL     1      -2.571  -0.541   0.011  0.00  0.00    +0.089 C 
ATOM      5  C   UNL     1      -3.455  -1.774   0.010  0.00  0.00    +0.026 C 
ATOM      6  C   UNL     1      -2.847  -3.013  -0.003  0.00  0.00    +0.025 C 
ATOM      7  C   UNL     1      -3.695  -4.264  -0.011  0.00  0.00    +0.060 C 
ATOM      8  C   UNL     1      -5.011  -3.995   0.721  0.00  0.00    -0.023 C 
ATOM      9  C   UNL     1      -5.736  -2.837   0.028  0.00  0.00    +0.086 C 
ATOM     10  C   UNL     1      -4.835  -1.630   0.022  0.00  0.00    +0.162 C 
ATOM     11  O   UNL     1      -5.322  -0.515   0.028  0.00  0.00    -0.292 OA
ATOM     12  C   UNL     1      -5.888  -5.248   0.676  0.00  0.00    +0.011 C 
ATOM     13  C   UNL     1      -4.722  -3.621   2.176  0.00  0.00    +0.011 C 
ATOM     14  N   UNL     1      -1.528  -3.141  -0.010  0.00  0.00    -0.345 N 
ATOM     15  C   UNL     1      -0.654  -2.149  -0.007  0.00  0.00    +0.121 C 
ATOM     16  N   UNL     1       0.723  -2.128  -0.014  0.00  0.00    -0.238 N 
ATOM     17  N   UNL     1       1.123  -0.784  -0.013  0.00  0.00    -0.267 N 
ATOM     18  H   UNL     1       2.038  -0.464  -0.021  0.00  0.00    +0.170 HD
ATOM     19  H   UNL     1      -1.171  -4.043  -0.016  0.00  0.00    +0.167 HD
ENDROOT
BRANCH   4  20
ATOM     20  C   UNL     1      -2.913   0.281  -1.204  0.00  0.00    -0.035 A 
ATOM     21  C   UNL     1      -2.654  -0.214  -2.469  0.00  0.00    +0.004 A 
ATOM     22  C   UNL     1      -2.967   0.540  -3.584  0.00  0.00    +0.000 A 
ATOM     23  C   UNL     1      -3.540   1.790  -3.435  0.00  0.00    +0.000 A 
ATOM     24  C   UNL     1      -3.799   2.285  -2.170  0.00  0.00    +0.000 A 
ATOM     25  C   UNL     1      -3.490   1.529  -1.055  0.00  0.00    +0.004 A 
ENDBRANCH   4  20
BRANCH  16  26
ATOM     26  C   UNL     1       1.608  -3.296  -0.024  0.00  0.00    +0.136 C 
BRANCH  26  27
ATOM     27  C   UNL     1       1.909  -3.694  -1.470  0.00  0.00    +0.083 C 
BRANCH  27  28
ATOM     28  C   UNL     1       2.820  -4.895  -1.480  0.00  0.00    +0.081 A 
ATOM     29  N   UNL     1       2.490  -6.160  -1.491  0.00  0.00    -0.241 NA
ATOM     30  C   UNL     1       3.412  -7.114  -1.500  0.00  0.00    +0.113 A 
ATOM     31  C   UNL     1       4.719  -6.699  -1.498  0.00  0.00    +0.078 A 
ATOM     32  S   UNL     1       4.502  -4.927  -1.489  0.00  0.00    -0.080 S 
BRANCH  30  33
ATOM     33  C   UNL     1       3.050  -8.547  -1.511  0.00  0.00    +0.153 A 
ATOM     34  C   UNL     1       3.917  -9.590  -1.420  0.00  0.00    +0.051 A 
ATOM     35  C   UNL     1       3.143 -10.768  -1.470  0.00  0.00    +0.042 A 
ATOM     36  C   UNL     1       1.856 -10.389  -1.589  0.00  0.00    +0.196 A 
ATOM     37  O   UNL     1       1.803  -9.046  -1.608  0.00  0.00    -0.461 OA
ENDBRANCH  30  33
ENDBRANCH  27  28
ENDBRANCH  26  27
ENDBRANCH  16  26
TORSDOF 5
