REMARK  Name = ZINC08781443
REMARK  13 active torsions:
REMARK  status: ('A' for Active; 'I' for Inactive)
REMARK    1  A    between atoms: C_1  and  C_2
REMARK    2  A    between atoms: C_2  and  O_3
REMARK    3  A    between atoms: O_3  and  C_4
REMARK    4  A    between atoms: C_4  and  C_6
REMARK    5  A    between atoms: C_10  and  N_11
REMARK    6  A    between atoms: C_12  and  C_14
REMARK    7  A    between atoms: C_14  and  N_16
REMARK    8  A    between atoms: N_16  and  C_17
REMARK    9  A    between atoms: C_17  and  C_18
REMARK   10  A    between atoms: C_18  and  C_19
REMARK   11  A    between atoms: C_19  and  N_20
REMARK   12  A    between atoms: N_20  and  C_21
REMARK   13  A    between atoms: C_24  and  N_27
REMARK                            x       y       z     vdW  Elec       q    Type
REMARK                         _______ _______ _______ _____ _____    ______ ____
ROOT
ATOM      1  N   UNL     1       5.185  -9.668  -0.097  0.00  0.00    -0.274 N 
ATOM      2  C   UNL     1       4.146  -8.809  -0.083  0.00  0.00    +0.270 C 
ATOM      3  O   UNL     1       3.008  -9.232  -0.074  0.00  0.00    -0.268 OA
ATOM      4  H   UNL     1       6.094  -9.329  -0.104  0.00  0.00    +0.156 HD
ENDROOT
BRANCH   1   9
ATOM      5  C   UNL     1       5.882 -12.064  -0.122  0.00  0.00    +0.091 A 
ATOM      6  C   UNL     1       5.375 -13.430  -0.115  0.00  0.00    -0.021 A 
ATOM      7  C   UNL     1       4.029 -13.538  -0.107  0.00  0.00    -0.004 A 
ATOM      8  S   UNL     1       3.437 -11.867  -0.092  0.00  0.00    -0.077 S 
ATOM      9  C   UNL     1       4.954 -11.032  -0.102  0.00  0.00    +0.087 A 
ATOM     10  C   UNL     1       3.212 -14.791  -0.123  0.00  0.00    +0.043 C 
ATOM     11  C   UNL     1       3.743 -15.757   0.945  0.00  0.00    +0.005 C 
ATOM     12  C   UNL     1       4.824 -16.628   0.313  0.00  0.00    +0.001 C 
ATOM     13  C   UNL     1       5.584 -15.835  -0.749  0.00  0.00    +0.005 C 
ATOM     14  C   UNL     1       6.295 -14.644  -0.116  0.00  0.00    +0.037 C 
BRANCH   5  15
ATOM     15  C   UNL     1       7.320 -11.789  -0.145  0.00  0.00    +0.342 C 
ATOM     16  O   UNL     1       7.936 -11.680   0.898  0.00  0.00    -0.245 OA
BRANCH  15  17
ATOM     17  O   UNL     1       7.963 -11.658  -1.324  0.00  0.00    -0.461 OA
BRANCH  17  19
ATOM     18  C   UNL     1       9.938 -11.270  -2.694  0.00  0.00    +0.048 C 
ATOM     19  C   UNL     1       9.388 -11.386  -1.271  0.00  0.00    +0.229 C 
ENDBRANCH  17  19
ENDBRANCH  15  17
ENDBRANCH   5  15
ENDBRANCH   1   9
BRANCH   2  20
ATOM     20  C   UNL     1       4.394  -7.344  -0.078  0.00  0.00    +0.135 C 
ATOM     21  S   UNL     1       5.999  -6.748  -0.090  0.00  0.00    -0.030 S 
BRANCH  20  22
ATOM     22  N   UNL     1       3.356  -6.485  -0.063  0.00  0.00    -0.334 N 
ATOM     23  H   UNL     1       2.447  -6.824  -0.056  0.00  0.00    +0.147 HD
BRANCH  22  24
ATOM     24  C   UNL     1       3.600  -5.041  -0.059  0.00  0.00    +0.103 C 
BRANCH  24  25
ATOM     25  C   UNL     1       2.263  -4.298  -0.042  0.00  0.00    +0.037 C 
BRANCH  25  26
ATOM     26  C   UNL     1       2.518  -2.789  -0.037  0.00  0.00    +0.103 C 
BRANCH  26  27
ATOM     27  N   UNL     1       1.238  -2.077  -0.021  0.00  0.00    -0.344 N 
ATOM     28  H   UNL     1       0.406  -2.576  -0.015  0.00  0.00    +0.146 HD
BRANCH  27  29
ATOM     29  C   UNL     1       1.215  -0.681  -0.013  0.00  0.00    +0.027 A 
ATOM     30  C   UNL     1       0.002  -0.004   0.002  0.00  0.00    +0.025 A 
ATOM     31  C   UNL     1      -0.017   1.377   0.010  0.00  0.00    +0.034 A 
ATOM     32  C   UNL     1       1.171   2.086   0.002  0.00  0.00    +0.126 A 
ATOM     33  C   UNL     1       2.380   1.416  -0.013  0.00  0.00    +0.034 A 
ATOM     34  C   UNL     1       2.406   0.035  -0.021  0.00  0.00    +0.025 A 
BRANCH  32  35
ATOM     35  N   UNL     1       1.147   3.566   0.010  0.00  0.00    +0.056 N 
ATOM     36  O   UNL     1       0.082   4.158   0.023  0.00  0.00    -0.126 OA
ATOM     37  O   UNL     1       2.191   4.192   0.003  0.00  0.00    -0.126 OA
ENDBRANCH  32  35
ENDBRANCH  27  29
ENDBRANCH  26  27
ENDBRANCH  25  26
ENDBRANCH  24  25
ENDBRANCH  22  24
ENDBRANCH  20  22
ENDBRANCH   2  20
TORSDOF 12
