REMARK  Name = ZINC27904566
REMARK  5 active torsions:
REMARK  status: ('A' for Active; 'I' for Inactive)
REMARK    1  A    between atoms: C_5  and  C_7
REMARK    2  A    between atoms: C_7  and  O_9
REMARK    3  A    between atoms: O_9  and  C_10
REMARK    4  A    between atoms: C_14  and  C_16
REMARK    5  A    between atoms: C_26  and  C_28
REMARK                            x       y       z     vdW  Elec       q    Type
REMARK                         _______ _______ _______ _____ _____    ______ ____
ROOT
ATOM      1  C   UNL     1      -2.442  -6.998  -0.248  0.00  0.00    +0.024 C 
ATOM      2  C   UNL     1      -3.483  -6.462  -0.950  0.00  0.00    +0.081 C 
ATOM      3  C   UNL     1      -3.398  -5.108  -1.570  0.00  0.00    +0.153 C 
ATOM      4  N   UNL     1      -2.292  -4.607  -2.050  0.00  0.00    -0.283 NA
ATOM      5  N   UNL     1      -4.632  -4.423  -1.589  0.00  0.00    -0.152 N 
ATOM      6  C   UNL     1      -5.782  -5.180  -1.528  0.00  0.00    +0.181 C 
ATOM      7  N   UNL     1      -5.878  -6.475  -1.358  0.00  0.00    -0.152 NA
ATOM      8  C   UNL     1      -4.759  -7.198  -1.143  0.00  0.00    +0.273 C 
ATOM      9  O   UNL     1      -4.793  -8.417  -1.105  0.00  0.00    -0.268 OA
ATOM     10  S   UNL     1      -7.046  -3.951  -1.714  0.00  0.00    -0.029 S 
ATOM     11  C   UNL     1      -5.977  -2.519  -1.757  0.00  0.00    +0.202 C 
ATOM     12  N   UNL     1      -4.793  -3.056  -1.674  0.00  0.00    -0.160 NA
ATOM     13  H   UNL     1      -2.276  -3.695  -2.379  0.00  0.00    +0.188 HD
ENDROOT
BRANCH   1  18
ATOM     14  C   UNL     1      -0.325  -4.067   0.751  0.00  0.00    +0.133 A 
ATOM     15  C   UNL     1       0.947  -4.621   0.675  0.00  0.00    +0.046 A 
ATOM     16  C   UNL     1       1.113  -5.942   0.301  0.00  0.00    +0.004 A 
ATOM     17  C   UNL     1       0.016  -6.721  -0.001  0.00  0.00    +0.008 A 
ATOM     18  C   UNL     1      -1.271  -6.174   0.072  0.00  0.00    -0.021 A 
ATOM     19  C   UNL     1      -1.435  -4.838   0.457  0.00  0.00    +0.054 A 
BRANCH  14  20
ATOM     20  O   UNL     1      -0.479  -2.768   1.120  0.00  0.00    -0.422 OA
BRANCH  20  21
ATOM     21  C   UNL     1      -0.229  -1.815   0.200  0.00  0.00    +0.347 C 
ATOM     22  O   UNL     1       0.209  -2.123  -0.890  0.00  0.00    -0.244 OA
BRANCH  21  27
ATOM     23  C   UNL     1      -1.231   1.287   2.060  0.00  0.00    +0.001 A 
ATOM     24  C   UNL     1      -0.973   2.265   1.114  0.00  0.00    +0.003 A 
ATOM     25  C   UNL     1      -0.474   1.921  -0.128  0.00  0.00    +0.039 A 
ATOM     26  C   UNL     1      -0.229   0.594  -0.434  0.00  0.00    +0.137 A 
ATOM     27  C   UNL     1      -0.487  -0.398   0.517  0.00  0.00    +0.094 A 
ATOM     28  C   UNL     1      -0.991  -0.039   1.770  0.00  0.00    +0.018 A 
ATOM     29  F   UNL     1       0.258   0.258  -1.649  0.00  0.00    -0.205 F 
ENDBRANCH  21  27
ENDBRANCH  20  21
ENDBRANCH  14  20
ENDBRANCH   1  18
BRANCH  11  30
ATOM     30  C   UNL     1      -6.349  -1.063  -1.863  0.00  0.00    +0.442 C 
ATOM     31  F   UNL     1      -5.188  -0.283  -1.862  0.00  0.00    -0.164 F 
ATOM     32  F   UNL     1      -7.055  -0.847  -3.052  0.00  0.00    -0.164 F 
ATOM     33  F   UNL     1      -7.151  -0.706  -0.774  0.00  0.00    -0.164 F 
ENDBRANCH  11  30
TORSDOF 5
