REMARK  Name = ZINC21235277
REMARK  5 active torsions:
REMARK  status: ('A' for Active; 'I' for Inactive)
REMARK    1  A    between atoms: C_1  and  C_2
REMARK    2  A    between atoms: C_2  and  C_3
REMARK    3  A    between atoms: C_6  and  C_9
REMARK    4  A    between atoms: C_14  and  C_20
REMARK    5  A    between atoms: C_24  and  O_26
REMARK                            x       y       z     vdW  Elec       q    Type
REMARK                         _______ _______ _______ _____ _____    ______ ____
ROOT
ATOM      1  C   UNL     1      -2.382  -0.004  -0.693  0.00  0.00    +0.032 C 
ATOM      2  C   UNL     1      -1.282  -0.795   0.020  0.00  0.00    +0.059 C 
ATOM      3  C   UNL     1       0.002  -0.004   0.002  0.00  0.00    +0.018 C 
ATOM      4  C   UNL     1      -0.016   1.345   0.009  0.00  0.00    +0.020 C 
ATOM      5  C   UNL     1       1.283   2.116   0.001  0.00  0.00    +0.063 C 
ATOM      6  C   UNL     1       2.315   1.362  -0.841  0.00  0.00    +0.109 C 
ATOM      7  C   UNL     1       2.328  -0.086  -0.424  0.00  0.00    +0.218 C 
ATOM      8  O   UNL     1       3.364  -0.715  -0.455  0.00  0.00    -0.275 OA
ATOM      9  N   UNL     1       1.194  -0.683  -0.019  0.00  0.00    -0.289 N 
ATOM     10  C   UNL     1      -1.225   2.061   0.019  0.00  0.00    +0.162 C 
ATOM     11  O   UNL     1      -1.202   3.275   0.037  0.00  0.00    -0.292 OA
ATOM     12  C   UNL     1      -2.550   1.345   0.013  0.00  0.00    +0.088 C 
ATOM     13  H   UNL     1       1.233  -1.735   0.299  0.00  0.00    +0.155 HD
ENDROOT
BRANCH   1  17
ATOM     14  C   UNL     1      -6.054  -2.180  -0.518  0.00  0.00    -0.048 A 
ATOM     15  C   UNL     1      -5.495  -1.865  -1.742  0.00  0.00    +0.004 A 
ATOM     16  C   UNL     1      -4.307  -1.160  -1.799  0.00  0.00    +0.004 A 
ATOM     17  C   UNL     1      -3.678  -0.772  -0.631  0.00  0.00    -0.043 A 
ATOM     18  C   UNL     1      -4.234  -1.093   0.593  0.00  0.00    +0.004 A 
ATOM     19  C   UNL     1      -5.424  -1.792   0.650  0.00  0.00    +0.004 A 
BRANCH  14  21
ATOM     20  C   UNL     1      -7.052  -4.448  -0.420  0.00  0.00    +0.009 C 
ATOM     21  C   UNL     1      -7.349  -2.948  -0.456  0.00  0.00    +0.032 C 
ENDBRANCH  14  21
ENDBRANCH   1  17
BRANCH   5  22
ATOM     22  C   UNL     1       1.792   2.258   1.412  0.00  0.00    -0.036 A 
ATOM     23  C   UNL     1       2.071   1.131   2.163  0.00  0.00    +0.004 A 
ATOM     24  C   UNL     1       2.544   1.258   3.456  0.00  0.00    +0.004 A 
ATOM     25  C   UNL     1       2.727   2.513   4.005  0.00  0.00    +0.045 A 
ATOM     26  C   UNL     1       2.443   3.645   3.256  0.00  0.00    +0.117 A 
ATOM     27  C   UNL     1       1.974   3.514   1.957  0.00  0.00    +0.049 A 
BRANCH  26  28
ATOM     28  O   UNL     1       2.622   4.880   3.795  0.00  0.00    -0.507 OA
ATOM     29  H   UNL     1       2.396   5.777   3.200  0.00  0.00    +0.292 HD
ENDBRANCH  26  28
ENDBRANCH   5  22
TORSDOF 4
