REMARK  Name = ZINC39291643
REMARK  5 active torsions:
REMARK  status: ('A' for Active; 'I' for Inactive)
REMARK    1  A    between atoms: C_1  and  C_2
REMARK    2  A    between atoms: C_2  and  C_16
REMARK    3  A    between atoms: N_3  and  C_4
REMARK    4  A    between atoms: C_5  and  C_13
REMARK    5  A    between atoms: C_16  and  C_17
REMARK                            x       y       z     vdW  Elec       q    Type
REMARK                         _______ _______ _______ _____ _____    ______ ____
ROOT
ATOM      1  C   UNL     1      -0.073   1.500   0.013  0.00  0.00    +0.061 C 
ATOM      2  C   UNL     1      -0.019  -0.006   0.003  0.00  0.00    +0.024 C 
ATOM      3  N   UNL     1       0.119  -0.656   1.114  0.00  0.00    -0.248 NA
ENDROOT
BRANCH   3   4
ATOM      4  C   UNL     1       0.121   0.015   2.300  0.00  0.00    +0.114 A 
ATOM      5  C   UNL     1       1.187   0.627   2.963  0.00  0.00    +0.072 A 
ATOM      6  C   UNL     1       0.938   1.266   4.191  0.00  0.00    -0.023 A 
ATOM      7  C   UNL     1      -0.338   1.240   4.648  0.00  0.00    -0.004 A 
ATOM      8  S   UNL     1      -1.238   0.348   3.408  0.00  0.00    -0.073 S 
ATOM      9  C   UNL     1      -0.863   1.839   5.915  0.00  0.00    +0.043 C 
ATOM     10  C   UNL     1       0.330   2.179   6.820  0.00  0.00    +0.005 C 
ATOM     11  C   UNL     1       1.379   2.924   5.989  0.00  0.00    +0.005 C 
ATOM     12  C   UNL     1       2.033   1.964   4.994  0.00  0.00    +0.037 C 
BRANCH   5  13
ATOM     13  C   UNL     1       2.539   0.603   2.392  0.00  0.00    +0.244 C 
ATOM     14  O   UNL     1       2.900   1.494   1.645  0.00  0.00    -0.270 OA
ATOM     15  N   UNL     1       3.381  -0.406   2.693  0.00  0.00    -0.325 N 
ATOM     16  H   UNL     1       3.093  -1.116   3.288  0.00  0.00    +0.145 HD
ATOM     17  H   UNL     1       4.274  -0.422   2.316  0.00  0.00    +0.145 HD
ENDBRANCH   5  13
ENDBRANCH   3   4
BRANCH   2  18
ATOM     18  C   UNL     1      -0.126  -0.756  -1.300  0.00  0.00    +0.124 C 
BRANCH  18  19
ATOM     19  C   UNL     1      -1.491  -0.532  -1.898  0.00  0.00    +0.129 C 
ATOM     20  N   UNL     1      -2.335   0.235  -1.250  0.00  0.00    -0.161 NA
ATOM     21  C   UNL     1      -3.569   0.491  -1.696  0.00  0.00    +0.271 C 
ATOM     22  O   UNL     1      -4.327   1.213  -1.070  0.00  0.00    -0.268 OA
ATOM     23  C   UNL     1      -3.990  -0.135  -2.990  0.00  0.00    +0.071 C 
ATOM     24  C   UNL     1      -5.193  -0.067  -3.588  0.00  0.00    -0.042 C 
ATOM     25  C   UNL     1      -6.432   0.551  -2.944  0.00  0.00    +0.033 C 
ATOM     26  C   UNL     1      -7.529  -0.521  -2.978  0.00  0.00    +0.004 C 
ATOM     27  C   UNL     1      -7.705  -1.053  -4.399  0.00  0.00    +0.002 C 
ATOM     28  C   UNL     1      -6.430  -1.752  -4.880  0.00  0.00    +0.019 C 
ATOM     29  C   UNL     1      -5.307  -0.715  -4.964  0.00  0.00    +0.079 C 
ATOM     30  S   UNL     1      -3.687  -1.557  -5.123  0.00  0.00    -0.097 S 
ATOM     31  C   UNL     1      -2.946  -0.966  -3.623  0.00  0.00    +0.111 C 
ATOM     32  N   UNL     1      -1.774  -1.115  -3.052  0.00  0.00    -0.227 NA
ENDBRANCH  18  19
ENDBRANCH   2  18
TORSDOF 4
