REMARK  Name = ZINC39946666
REMARK  7 active torsions:
REMARK  status: ('A' for Active; 'I' for Inactive)
REMARK    1  A    between atoms: C_1  and  N_2
REMARK    2  A    between atoms: N_2  and  C_3
REMARK    3  A    between atoms: C_9  and  C_11
REMARK    4  A    between atoms: C_11  and  S_12
REMARK    5  A    between atoms: S_12  and  C_13
REMARK    6  A    between atoms: C_17  and  C_26
REMARK    7  A    between atoms: N_18  and  C_19
REMARK                            x       y       z     vdW  Elec       q    Type
REMARK                         _______ _______ _______ _____ _____    ______ ____
ROOT
ATOM      1  C   UNL     1      -0.113   0.079  -4.819  0.00  0.00    +0.241 C 
ATOM      2  N   UNL     1       1.026   1.011  -4.854  0.00  0.00    -0.237 N 
ATOM      3  N   UNL     1       0.579   2.161  -5.515  0.00  0.00    -0.169 NA
ATOM      4  C   UNL     1      -0.671   2.043  -5.879  0.00  0.00    +0.151 C 
ATOM      5  N   UNL     1      -1.198   0.800  -5.504  0.00  0.00    -0.254 N 
ATOM      6  H   UNL     1       1.912   0.859  -4.490  0.00  0.00    +0.171 HD
ENDROOT
BRANCH   4   7
ATOM      7  C   UNL     1      -1.394   3.034  -6.562  0.00  0.00    +0.022 C 
ATOM      8  C   UNL     1      -0.906   4.244  -7.055  0.00  0.00    +0.006 A 
ATOM      9  C   UNL     1       0.376   4.834  -7.036  0.00  0.00    +0.010 A 
ATOM     10  C   UNL     1       0.566   6.051  -7.608  0.00  0.00    +0.001 A 
ATOM     11  C   UNL     1      -0.481   6.743  -8.219  0.00  0.00    +0.002 A 
ATOM     12  C   UNL     1      -1.737   6.237  -8.274  0.00  0.00    +0.026 A 
ATOM     13  C   UNL     1      -2.013   4.969  -7.699  0.00  0.00    +0.043 A 
ATOM     14  N   UNL     1      -3.129   4.271  -7.622  0.00  0.00    -0.380 N 
ATOM     15  C   UNL     1      -2.863   3.010  -6.922  0.00  0.00    +0.152 C 
ATOM     16  H   UNL     1      -3.989   4.546  -7.975  0.00  0.00    +0.160 HD
ENDBRANCH   4   7
BRANCH   5  17
ATOM     17  C   UNL     1      -2.496   0.336  -5.732  0.00  0.00    +0.038 A 
ATOM     18  C   UNL     1      -2.778  -0.408  -6.871  0.00  0.00    +0.025 A 
ATOM     19  C   UNL     1      -4.062  -0.866  -7.094  0.00  0.00    +0.022 A 
ATOM     20  C   UNL     1      -5.067  -0.583  -6.186  0.00  0.00    +0.041 A 
ATOM     21  C   UNL     1      -4.788   0.159  -5.051  0.00  0.00    +0.022 A 
ATOM     22  C   UNL     1      -3.505   0.614  -4.819  0.00  0.00    +0.025 A 
ATOM     23 CL   UNL     1      -6.679  -1.159  -6.470  0.00  0.00    -0.084 Cl
ENDBRANCH   5  17
BRANCH   1  24
ATOM     24  S   UNL     1      -0.579  -0.289  -3.105  0.00  0.00    -0.108 S 
BRANCH  24  25
ATOM     25  C   UNL     1      -0.921   1.340  -2.384  0.00  0.00    +0.168 C 
BRANCH  25  28
ATOM     26  C   UNL     1      -1.567   3.596  -0.795  0.00  0.00    +0.132 C 
ATOM     27  N   UNL     1      -1.629   2.259  -0.199  0.00  0.00    -0.301 N 
ATOM     28  C   UNL     1      -1.326   1.176  -0.941  0.00  0.00    +0.226 C 
ATOM     29  O   UNL     1      -1.378   0.069  -0.448  0.00  0.00    -0.275 OA
BRANCH  27  30
ATOM     30  C   UNL     1      -2.022   2.100   1.203  0.00  0.00    +0.076 C 
ATOM     31  C   UNL     1      -3.432   2.661   1.405  0.00  0.00    +0.022 C 
ATOM     32  C   UNL     1      -3.842   2.495   2.869  0.00  0.00    +0.002 C 
ATOM     33  C   UNL     1      -2.858   3.252   3.764  0.00  0.00    +0.000 C 
ATOM     34  C   UNL     1      -1.450   2.691   3.562  0.00  0.00    +0.002 C 
ATOM     35  C   UNL     1      -1.039   2.857   2.097  0.00  0.00    +0.022 C 
ENDBRANCH  27  30
ENDBRANCH  25  28
ENDBRANCH  24  25
ENDBRANCH   1  24
TORSDOF 6
