REMARK  Name = ZINC38597834
REMARK  10 active torsions:
REMARK  status: ('A' for Active; 'I' for Inactive)
REMARK    1  A    between atoms: C_1  and  C_2
REMARK    2  A    between atoms: C_2  and  O_3
REMARK    3  A    between atoms: O_3  and  C_4
REMARK    4  A    between atoms: C_7  and  S_11
REMARK    5  A    between atoms: S_11  and  N_14
REMARK    6  A    between atoms: N_14  and  C_15
REMARK    7  A    between atoms: C_15  and  C_16
REMARK    8  A    between atoms: C_16  and  C_18
REMARK    9  A    between atoms: C_16  and  N_23
REMARK   10  A    between atoms: N_26  and  C_29
REMARK                            x       y       z     vdW  Elec       q    Type
REMARK                         _______ _______ _______ _____ _____    ______ ____
ROOT
ATOM      1  C   UNL     1      -3.067  -7.304   3.629  0.00  0.00    +0.015 C 
ENDROOT
BRANCH   1   2
ATOM      2  N   UNL     1      -1.753  -7.150   4.266  0.00  0.00    +0.389 N 
ATOM      3  C   UNL     1      -1.631  -8.110   5.371  0.00  0.00    -0.059 C 
ATOM      4  C   UNL     1      -0.309  -7.874   6.108  0.00  0.00    +0.086 C 
ATOM      5  N   UNL     1       0.788  -7.931   5.130  0.00  0.00    -0.333 N 
ATOM      6  C   UNL     1       0.670  -7.120   3.908  0.00  0.00    +0.086 C 
ATOM      7  C   UNL     1      -0.698  -7.393   3.274  0.00  0.00    -0.059 C 
ATOM      8  H   UNL     1      -1.664  -6.212   4.628  0.00  0.00    -0.081 HD
BRANCH   5   9
ATOM      9  C   UNL     1       1.910  -8.735   5.354  0.00  0.00    +0.030 A 
ATOM     10  C   UNL     1       2.876  -8.872   4.365  0.00  0.00    +0.026 A 
ATOM     11  C   UNL     1       3.984  -9.666   4.589  0.00  0.00    +0.040 A 
ATOM     12  C   UNL     1       4.132 -10.324   5.799  0.00  0.00    +0.124 A 
ATOM     13  C   UNL     1       3.171 -10.188   6.786  0.00  0.00    +0.040 A 
ATOM     14  C   UNL     1       2.064  -9.391   6.568  0.00  0.00    +0.026 A 
ATOM     15  F   UNL     1       5.217 -11.100   6.016  0.00  0.00    -0.205 F 
ENDBRANCH   5   9
ENDBRANCH   1   2
BRANCH   1  16
ATOM     16  C   UNL     1      -4.150  -6.973   4.623  0.00  0.00    +0.093 A 
ATOM     17  C   UNL     1      -5.313  -7.633   4.769  0.00  0.00    +0.043 A 
ATOM     18  C   UNL     1      -6.022  -6.988   5.808  0.00  0.00    +0.041 A 
ATOM     19  C   UNL     1      -5.250  -5.973   6.236  0.00  0.00    +0.195 A 
ATOM     20  O   UNL     1      -4.115  -5.973   5.519  0.00  0.00    -0.469 OA
ENDBRANCH   1  16
BRANCH   1  21
ATOM     21  C   UNL     1      -3.168  -6.357   2.431  0.00  0.00    +0.098 C 
BRANCH  21  22
ATOM     22  N   UNL     1      -2.870  -4.990   2.864  0.00  0.00    -0.191 NA
ATOM     23  H   UNL     1      -2.892  -4.764   3.807  0.00  0.00    +0.148 HD
BRANCH  22  24
ATOM     24  S   UNL     1      -2.497  -3.829   1.743  0.00  0.00    +0.058 S 
ATOM     25  O   UNL     1      -1.505  -4.390   0.893  0.00  0.00    -0.153 OA
ATOM     26  O   UNL     1      -2.289  -2.622   2.462  0.00  0.00    -0.153 OA
BRANCH  24  30
ATOM     27  C   UNL     1      -6.185  -3.196  -0.809  0.00  0.00    +0.156 A 
ATOM     28  C   UNL     1      -5.996  -2.441   0.339  0.00  0.00    +0.050 A 
ATOM     29  C   UNL     1      -4.870  -2.637   1.116  0.00  0.00    +0.032 A 
ATOM     30  C   UNL     1      -3.931  -3.584   0.750  0.00  0.00    +0.108 A 
ATOM     31  C   UNL     1      -4.116  -4.338  -0.394  0.00  0.00    +0.070 A 
ATOM     32  C   UNL     1      -5.244  -4.151  -1.172  0.00  0.00    +0.167 A 
ATOM     33  F   UNL     1      -5.428  -4.892  -2.287  0.00  0.00    -0.202 F 
BRANCH  27  34
ATOM     34  O   UNL     1      -7.292  -3.005  -1.574  0.00  0.00    -0.489 OA
BRANCH  34  36
ATOM     35  C   UNL     1      -9.390  -1.936  -2.120  0.00  0.00    +0.048 C 
ATOM     36  C   UNL     1      -8.217  -2.006  -1.140  0.00  0.00    +0.226 C 
ENDBRANCH  34  36
ENDBRANCH  27  34
ENDBRANCH  24  30
ENDBRANCH  22  24
ENDBRANCH  21  22
ENDBRANCH   1  21
TORSDOF 9
