REMARK  Name = ZINC08915292
REMARK  9 active torsions:
REMARK  status: ('A' for Active; 'I' for Inactive)
REMARK    1  A    between atoms: C_1  and  C_2
REMARK    2  A    between atoms: C_3  and  C_33
REMARK    3  A    between atoms: N_9  and  C_30
REMARK    4  A    between atoms: C_10  and  C_12
REMARK    5  A    between atoms: C_12  and  C_13
REMARK    6  A    between atoms: C_13  and  C_14
REMARK    7  A    between atoms: C_14  and  N_15
REMARK    8  A    between atoms: C_30  and  C_31
REMARK    9  A    between atoms: C_31  and  O_32
REMARK                            x       y       z     vdW  Elec       q    Type
REMARK                         _______ _______ _______ _____ _____    ______ ____
ROOT
ATOM      1  C   UNL     1      -1.027  -0.879   2.607  0.00  0.00    +0.076 C 
ENDROOT
BRANCH   1  11
ATOM      2  C   UNL     1      -5.734   2.792  -0.446  0.00  0.00    +0.045 C 
ATOM      3  C   UNL     1      -5.667   1.489   0.309  0.00  0.00    -0.026 A 
ATOM      4  C   UNL     1      -6.776   0.757   0.499  0.00  0.00    -0.008 A 
ATOM      5  S   UNL     1      -6.188  -0.651   1.421  0.00  0.00    -0.073 S 
ATOM      6  C   UNL     1      -4.471  -0.214   1.524  0.00  0.00    +0.116 A 
ATOM      7  C   UNL     1      -4.404   1.012   0.840  0.00  0.00    +0.075 A 
ATOM      8  C   UNL     1      -3.104   1.612   0.770  0.00  0.00    +0.263 A 
ATOM      9  O   UNL     1      -2.944   2.678   0.201  0.00  0.00    -0.267 OA
ATOM     10  N   UNL     1      -2.062   0.977   1.338  0.00  0.00    -0.294 N 
ATOM     11  C   UNL     1      -2.223  -0.209   1.981  0.00  0.00    +0.114 A 
ATOM     12  N   UNL     1      -3.395  -0.778   2.065  0.00  0.00    -0.226 NA
ATOM     13  C   UNL     1      -8.181   1.053   0.042  0.00  0.00    +0.052 C 
BRANCH  10  14
ATOM     14  C   UNL     1      -0.729   1.579   1.267  0.00  0.00    +0.154 C 
BRANCH  14  15
ATOM     15  C   UNL     1      -0.013   1.086   0.008  0.00  0.00    +0.177 C 
BRANCH  15  16
ATOM     16  O   UNL     1      -0.704   1.559  -1.150  0.00  0.00    -0.393 OA
ATOM     17  H   UNL     1      -0.304   1.284  -1.986  0.00  0.00    +0.209 HD
ENDBRANCH  15  16
ENDBRANCH  14  15
ENDBRANCH  10  14
ENDBRANCH   1  11
BRANCH   1  18
ATOM     18  C   UNL     1      -1.464  -2.190   3.265  0.00  0.00    +0.027 C 
BRANCH  18  19
ATOM     19  C   UNL     1      -0.250  -2.870   3.900  0.00  0.00    +0.117 C 
BRANCH  19  20
ATOM     20  N   UNL     1      -0.668  -4.125   4.530  0.00  0.00    -0.234 N 
ATOM     21  C   UNL     1      -1.054  -4.106   5.820  0.00  0.00    +0.254 C 
ATOM     22  O   UNL     1      -1.050  -3.058   6.437  0.00  0.00    -0.270 OA
ATOM     23  C   UNL     1      -1.485  -5.345   6.485  0.00  0.00    +0.046 A 
ATOM     24  C   UNL     1      -1.894  -5.370   7.810  0.00  0.00    +0.014 A 
ATOM     25  C   UNL     1      -2.288  -6.567   8.397  0.00  0.00    +0.001 A 
ATOM     26  C   UNL     1      -2.285  -7.741   7.699  0.00  0.00    +0.008 A 
ATOM     27  C   UNL     1      -1.878  -7.758   6.354  0.00  0.00    -0.016 A 
ATOM     28  C   UNL     1      -1.476  -6.550   5.747  0.00  0.00    +0.006 A 
ATOM     29  C   UNL     1      -1.060  -6.535   4.396  0.00  0.00    +0.046 A 
ATOM     30  C   UNL     1      -1.053  -7.723   3.680  0.00  0.00    +0.014 A 
ATOM     31  C   UNL     1      -1.452  -8.907   4.289  0.00  0.00    +0.001 A 
ATOM     32  C   UNL     1      -1.857  -8.940   5.593  0.00  0.00    +0.008 A 
ATOM     33  C   UNL     1      -0.647  -5.256   3.799  0.00  0.00    +0.254 C 
ATOM     34  O   UNL     1      -0.285  -5.219   2.639  0.00  0.00    -0.270 OA
ENDBRANCH  19  20
ENDBRANCH  18  19
ENDBRANCH   1  18
TORSDOF 7
