REMARK  Name = ZINC19834329
REMARK  3 active torsions:
REMARK  status: ('A' for Active; 'I' for Inactive)
REMARK    1  A    between atoms: C_1  and  C_2
REMARK    2  A    between atoms: C_5  and  C_8
REMARK    3  A    between atoms: C_16  and  C_17
REMARK                            x       y       z     vdW  Elec       q    Type
REMARK                         _______ _______ _______ _____ _____    ______ ____
ROOT
ATOM      1  C   UNL     1      -0.376   3.354  -1.341  0.00  0.00    +0.183 A 
ATOM      2  N   UNL     1       0.919   3.197  -1.029  0.00  0.00    -0.200 NA
ATOM      3  C   UNL     1       1.150   1.940  -0.772  0.00  0.00    +0.200 A 
ATOM      4  N   UNL     1      -0.004   1.222  -0.910  0.00  0.00    -0.169 N 
ATOM      5  N   UNL     1      -0.977   2.191  -1.279  0.00  0.00    -0.141 NA
ATOM      6  C   UNL     1       0.024  -0.099  -0.687  0.00  0.00    +0.288 A 
ATOM      7  O   UNL     1      -0.980  -0.778  -0.798  0.00  0.00    -0.265 OA
ATOM      8  C   UNL     1       1.311  -0.700  -0.303  0.00  0.00    +0.082 A 
ATOM      9  C   UNL     1       1.611  -1.994  -0.023  0.00  0.00    +0.028 C 
ATOM     10  S   UNL     1       2.373   0.737  -0.304  0.00  0.00    -0.044 S 
ENDROOT
BRANCH   1  15
ATOM     11  C   UNL     1      -2.897   8.346  -2.717  0.00  0.00    +0.044 C 
ATOM     12  C   UNL     1      -2.237   7.040  -2.357  0.00  0.00    -0.050 A 
ATOM     13  C   UNL     1      -0.888   7.010  -2.053  0.00  0.00    +0.004 A 
ATOM     14  C   UNL     1      -0.279   5.816  -1.723  0.00  0.00    +0.012 A 
ATOM     15  C   UNL     1      -1.025   4.640  -1.695  0.00  0.00    +0.021 A 
ATOM     16  C   UNL     1      -2.383   4.675  -2.007  0.00  0.00    +0.012 A 
ATOM     17  C   UNL     1      -2.983   5.875  -2.332  0.00  0.00    +0.004 A 
ENDBRANCH   1  15
BRANCH   9  18
ATOM     18  C   UNL     1       0.535  -2.989   0.093  0.00  0.00    -0.024 A 
ATOM     19  C   UNL     1      -0.669  -2.652   0.722  0.00  0.00    +0.009 A 
ATOM     20  C   UNL     1      -1.675  -3.588   0.824  0.00  0.00    +0.015 A 
ATOM     21  C   UNL     1      -1.493  -4.863   0.314  0.00  0.00    +0.013 A 
ATOM     22  C   UNL     1      -0.302  -5.206  -0.305  0.00  0.00    +0.015 A 
ATOM     23  C   UNL     1       0.711  -4.279  -0.419  0.00  0.00    +0.009 A 
ATOM     24  I   UNL     1      -3.027  -6.281   0.480  0.00  0.00    -0.044 I 
ENDBRANCH   9  18
TORSDOF 2
