REMARK  Name = ZINC02136068
REMARK  9 active torsions:
REMARK  status: ('A' for Active; 'I' for Inactive)
REMARK    1  A    between atoms: C_1  and  C_2
REMARK    2  A    between atoms: C_5  and  O_9
REMARK    3  A    between atoms: C_6  and  C_8
REMARK    4  A    between atoms: O_9  and  C_10
REMARK    5  A    between atoms: C_10  and  C_11
REMARK    6  A    between atoms: N_13  and  N_14
REMARK    7  A    between atoms: N_14  and  C_15
REMARK    8  A    between atoms: C_15  and  N_17
REMARK    9  A    between atoms: C_18  and  C_20
REMARK                            x       y       z     vdW  Elec       q    Type
REMARK                         _______ _______ _______ _____ _____    ______ ____
ROOT
ATOM      1  C   UNL     1       0.079  -6.266  -1.108  0.00  0.00    +0.267 C 
ATOM      2  O   UNL     1       0.090  -6.735   0.010  0.00  0.00    -0.271 OA
ATOM      3  N   UNL     1       0.084  -7.081  -2.182  0.00  0.00    -0.232 N 
ATOM      4  H   UNL     1       0.074  -6.705  -3.076  0.00  0.00    +0.173 HD
ENDROOT
BRANCH   3   5
ATOM      5  N   UNL     1       0.103  -8.471  -2.006  0.00  0.00    -0.245 N 
ATOM      6  H   UNL     1       0.112  -8.846  -1.111  0.00  0.00    +0.172 HD
BRANCH   5   7
ATOM      7  C   UNL     1       0.108  -9.286  -3.079  0.00  0.00    +0.153 C 
ATOM      8  S   UNL     1       0.131 -10.984  -2.864  0.00  0.00    -0.017 S 
BRANCH   7   9
ATOM      9  N   UNL     1       0.095  -8.764  -4.322  0.00  0.00    -0.260 N 
ATOM     10  C   UNL     1       0.100  -9.579  -5.395  0.00  0.00    +0.285 C 
ATOM     11  O   UNL     1       0.116 -10.786  -5.242  0.00  0.00    -0.266 OA
ATOM     12  H   UNL     1       0.082  -7.802  -4.443  0.00  0.00    +0.157 HD
BRANCH  10  13
ATOM     13  C   UNL     1       0.086  -9.012  -6.745  0.00  0.00    +0.191 A 
ATOM     14  C   UNL     1       0.083  -9.721  -7.914  0.00  0.00    +0.056 A 
ATOM     15  C   UNL     1       0.068  -8.782  -8.955  0.00  0.00    +0.058 A 
ATOM     16  C   UNL     1       0.062  -7.554  -8.385  0.00  0.00    +0.171 A 
ATOM     17  O   UNL     1       0.067  -7.698  -7.053  0.00  0.00    -0.444 OA
ATOM     18 BR   UNL     1       0.043  -5.908  -9.315  0.00  0.00    -0.008 Br
ENDBRANCH  10  13
ENDBRANCH   7   9
ENDBRANCH   5   7
ENDBRANCH   3   5
BRANCH   1  19
ATOM     19  C   UNL     1       0.058  -4.771  -1.298  0.00  0.00    +0.326 C 
BRANCH  19  20
ATOM     20  O   UNL     1       0.057  -4.129  -0.021  0.00  0.00    -0.482 OA
BRANCH  20  25
ATOM     21  C   UNL     1      -0.018   1.503   0.010  0.00  0.00    +0.044 C 
ATOM     22  C   UNL     1       0.002  -0.004   0.002  0.00  0.00    -0.050 A 
ATOM     23  C   UNL     1       0.006  -0.688  -1.200  0.00  0.00    +0.007 A 
ATOM     24  C   UNL     1       0.024  -2.069  -1.210  0.00  0.00    +0.046 A 
ATOM     25  C   UNL     1       0.039  -2.770  -0.013  0.00  0.00    +0.124 A 
ATOM     26  C   UNL     1       0.036  -2.082   1.191  0.00  0.00    -0.009 A 
ATOM     27  C   UNL     1       0.023  -0.701   1.196  0.00  0.00    +0.010 A 
ATOM     28  C   UNL     1       0.052  -2.841   2.493  0.00  0.00    +0.047 C 
ENDBRANCH  20  25
ENDBRANCH  19  20
ENDBRANCH   1  19
TORSDOF 7
