REMARK  Name = ZINC39354620
REMARK  7 active torsions:
REMARK  status: ('A' for Active; 'I' for Inactive)
REMARK    1  A    between atoms: C_1  and  N_2
REMARK    2  A    between atoms: N_9  and  C_12
REMARK    3  A    between atoms: N_13  and  C_28
REMARK    4  A    between atoms: N_16  and  C_17
REMARK    5  A    between atoms: C_17  and  C_18
REMARK    6  A    between atoms: C_18  and  C_19
REMARK    7  A    between atoms: C_28  and  C_29
REMARK                            x       y       z     vdW  Elec       q    Type
REMARK                         _______ _______ _______ _____ _____    ______ ____
ROOT
ATOM      1  C   UNL     1      -0.018   1.461   0.010  0.00  0.00    +0.136 C 
ATOM      2  N   UNL     1       0.002  -0.004   0.002  0.00  0.00    -0.266 N 
ATOM      3  C   UNL     1      -1.203  -0.788   0.003  0.00  0.00    +0.203 C 
ATOM      4  C   UNL     1      -1.022  -1.897  -1.083  0.00  0.00    +0.203 C 
ATOM      5  C   UNL     1       0.107  -2.740  -0.591  0.00  0.00    +0.247 C 
ATOM      6  O   UNL     1       0.076  -3.952  -0.621  0.00  0.00    -0.273 OA
ATOM      7  N   UNL     1       1.176  -2.046  -0.105  0.00  0.00    -0.227 N 
ATOM      8  C   UNL     1       1.166  -0.717  -0.013  0.00  0.00    +0.312 C 
ATOM      9  O   UNL     1       2.225  -0.125   0.049  0.00  0.00    -0.252 OA
ATOM     10  C   UNL     1       2.364  -2.780   0.339  0.00  0.00    +0.143 C 
ATOM     11  N   UNL     1      -2.389  -2.411  -1.054  0.00  0.00    -0.286 N 
ATOM     12  C   UNL     1      -3.158  -1.248  -0.952  0.00  0.00    +0.159 C 
ATOM     13  N   UNL     1      -2.495  -0.269  -0.381  0.00  0.00    -0.341 N 
ATOM     14  N   UNL     1      -4.450  -1.140  -1.409  0.00  0.00    -0.318 N 
ATOM     15  H   UNL     1      -4.881  -1.900  -1.832  0.00  0.00    +0.149 HD
ATOM     16  H   UNL     1      -2.819   0.634  -0.240  0.00  0.00    +0.164 HD
ENDROOT
BRANCH  14  17
ATOM     17  C   UNL     1      -5.178   0.122  -1.257  0.00  0.00    +0.109 C 
BRANCH  17  18
ATOM     18  C   UNL     1      -6.583  -0.025  -1.843  0.00  0.00    +0.056 C 
BRANCH  18  19
ATOM     19  C   UNL     1      -7.331   1.274  -1.687  0.00  0.00    -0.021 A 
ATOM     20  C   UNL     1      -7.283   2.422  -2.595  0.00  0.00    +0.003 A 
ATOM     21  C   UNL     1      -6.607   2.689  -3.787  0.00  0.00    +0.010 A 
ATOM     22  C   UNL     1      -6.780   3.893  -4.411  0.00  0.00    +0.001 A 
ATOM     23  C   UNL     1      -7.622   4.853  -3.868  0.00  0.00    +0.002 A 
ATOM     24  C   UNL     1      -8.299   4.611  -2.693  0.00  0.00    +0.026 A 
ATOM     25  C   UNL     1      -8.139   3.392  -2.041  0.00  0.00    +0.047 A 
ATOM     26  N   UNL     1      -8.660   2.860  -0.884  0.00  0.00    -0.360 N 
ATOM     27  C   UNL     1      -8.173   1.596  -0.692  0.00  0.00    +0.087 A 
ATOM     28  H   UNL     1      -9.284   3.312  -0.294  0.00  0.00    +0.165 HD
ENDBRANCH  18  19
ENDBRANCH  17  18
ENDBRANCH  14  17
BRANCH  11  29
ATOM     29  C   UNL     1      -2.842  -3.803  -1.117  0.00  0.00    +0.145 C 
BRANCH  29  30
ATOM     30  C   UNL     1      -2.936  -4.364   0.279  0.00  0.00    -0.012 A 
ATOM     31  C   UNL     1      -1.921  -5.160   0.774  0.00  0.00    +0.006 A 
ATOM     32  C   UNL     1      -2.007  -5.675   2.054  0.00  0.00    +0.000 A 
ATOM     33  C   UNL     1      -3.109  -5.393   2.840  0.00  0.00    +0.001 A 
ATOM     34  C   UNL     1      -4.125  -4.597   2.346  0.00  0.00    +0.020 A 
ATOM     35  C   UNL     1      -4.037  -4.077   1.067  0.00  0.00    +0.046 A 
ATOM     36 CL   UNL     1      -5.310  -3.072   0.449  0.00  0.00    -0.083 Cl
ENDBRANCH  29  30
ENDBRANCH  11  29
TORSDOF 5
