REMARK  Name = ZINC32956285
REMARK  8 active torsions:
REMARK  status: ('A' for Active; 'I' for Inactive)
REMARK    1  A    between atoms: C_1  and  C_2
REMARK    2  A    between atoms: C_8  and  N_10
REMARK    3  A    between atoms: C_11  and  C_13
REMARK    4  A    between atoms: C_13  and  C_15
REMARK    5  A    between atoms: C_13  and  O_16
REMARK    6  A    between atoms: O_16  and  C_17
REMARK    7  A    between atoms: C_17  and  C_19
REMARK    8  A    between atoms: C_28  and  O_31
REMARK                            x       y       z     vdW  Elec       q    Type
REMARK                         _______ _______ _______ _____ _____    ______ ____
ROOT
ATOM      1  O   UNL     1       1.283   1.421   2.690  0.00  0.00    -0.452 OA
ENDROOT
BRANCH   1   2
ATOM      2  C   UNL     1       1.921   0.903   3.887  0.00  0.00    +0.258 C 
ATOM      3  C   UNL     1       1.720   1.890   5.039  0.00  0.00    +0.062 C 
BRANCH   2   5
ATOM      4  N   UNL     1       4.178   0.157   4.572  0.00  0.00    -0.309 N 
ATOM      5  C   UNL     1       3.396   0.723   3.632  0.00  0.00    +0.254 C 
ATOM      6  O   UNL     1       3.878   1.087   2.580  0.00  0.00    -0.272 OA
ATOM      7  H   UNL     1       3.740  -0.173   5.526  0.00  0.00    +0.149 HD
BRANCH   4  14
ATOM      8  C   UNL     1       5.397  -2.459   4.812  0.00  0.00    +0.009 C 
ATOM      9  C   UNL     1       6.139  -1.172   5.178  0.00  0.00    +0.006 C 
ATOM     10  C   UNL     1       5.912  -0.856   6.658  0.00  0.00    +0.005 C 
ATOM     11  C   UNL     1       6.655   0.430   7.024  0.00  0.00    +0.000 C 
ATOM     12  C   UNL     1       6.127   1.585   6.170  0.00  0.00    +0.002 C 
ATOM     13  C   UNL     1       6.353   1.269   4.690  0.00  0.00    +0.022 C 
ATOM     14  C   UNL     1       5.611  -0.018   4.324  0.00  0.00    +0.076 C 
ENDBRANCH   4  14
ENDBRANCH   2   5
ENDBRANCH   1   2
BRANCH   1  15
ATOM     15  C   UNL     1       0.000   1.080   2.488  0.00  0.00    +0.314 C 
ATOM     16  O   UNL     1      -0.570   0.373   3.285  0.00  0.00    -0.250 OA
BRANCH  15  17
ATOM     17  C   UNL     1      -0.729   1.579   1.267  0.00  0.00    +0.071 C 
ATOM     18  C   UNL     1      -2.164   1.050   1.278  0.00  0.00    +0.021 C 
ATOM     19  C   UNL     1      -2.904   1.556   0.038  0.00  0.00    -0.007 C 
ATOM     20  C   UNL     1      -2.188   1.063  -1.221  0.00  0.00    +0.007 C 
ATOM     21  C   UNL     1      -0.753   1.593  -1.232  0.00  0.00    -0.007 C 
ATOM     22  C   UNL     1      -0.013   1.086   0.008  0.00  0.00    +0.021 C 
ATOM     23  C   UNL     1      -0.773   3.123  -1.223  0.00  0.00    +0.038 C 
ATOM     24  C   UNL     1      -1.490   3.616   0.036  0.00  0.00    +0.068 C 
ATOM     25  C   UNL     1      -2.925   3.086   0.047  0.00  0.00    +0.038 C 
ATOM     26  C   UNL     1      -0.750   3.109   1.275  0.00  0.00    +0.052 C 
BRANCH  24  27
ATOM     27  O   UNL     1      -1.509   5.045   0.044  0.00  0.00    -0.389 OA
ATOM     28  H   UNL     1      -1.985   5.584   0.876  0.00  0.00    +0.210 HD
ENDBRANCH  24  27
ENDBRANCH  15  17
ENDBRANCH   1  15
TORSDOF 6
