REMARK  Name = ZINC39273412
REMARK  3 active torsions:
REMARK  status: ('A' for Active; 'I' for Inactive)
REMARK    1  A    between atoms: C_8  and  C_11
REMARK    2  A    between atoms: C_13  and  C_17
REMARK    3  A    between atoms: N_19  and  N_20
REMARK                            x       y       z     vdW  Elec       q    Type
REMARK                         _______ _______ _______ _____ _____    ______ ____
ROOT
ATOM      1  C   UNL     1       0.159  -3.001   0.091  0.00  0.00    +0.092 C 
ATOM      2  C   UNL     1      -1.124  -2.595   0.185  0.00  0.00    +0.041 C 
ATOM      3  C   UNL     1      -1.921  -3.883   0.077  0.00  0.00    +0.240 C 
ATOM      4  N   UNL     1      -0.878  -4.912  -0.074  0.00  0.00    -0.170 NA
ATOM      5  N   UNL     1       0.219  -4.350  -0.062  0.00  0.00    -0.153 NA
ENDROOT
BRANCH   1  13
ATOM      6  C   UNL     1       4.259  -4.386   0.121  0.00  0.00    +0.001 A 
ATOM      7  C   UNL     1       5.308  -3.466   0.172  0.00  0.00    +0.004 A 
ATOM      8  C   UNL     1       5.049  -2.129   0.212  0.00  0.00    -0.039 A 
ATOM      9  C   UNL     1       3.719  -1.721   0.201  0.00  0.00    -0.011 A 
ATOM     10  C   UNL     1       3.538  -0.341   0.243  0.00  0.00    -0.039 A 
ATOM     11  C   UNL     1       2.264   0.143   0.234  0.00  0.00    +0.005 A 
ATOM     12  C   UNL     1       1.175  -0.725   0.185  0.00  0.00    +0.011 A 
ATOM     13  C   UNL     1       1.335  -2.103   0.143  0.00  0.00    +0.010 A 
ATOM     14  C   UNL     1       2.648  -2.630   0.150  0.00  0.00    -0.008 A 
ATOM     15  C   UNL     1       2.949  -3.998   0.110  0.00  0.00    +0.009 A 
ATOM     16  C   UNL     1       4.907   0.293   0.290  0.00  0.00    +0.040 C 
ATOM     17  C   UNL     1       5.903  -0.886   0.271  0.00  0.00    +0.040 C 
ENDBRANCH   1  13
BRANCH   3  18
ATOM     18  C   UNL     1      -2.821  -3.852  -1.131  0.00  0.00    +0.263 C 
ATOM     19  O   UNL     1      -2.492  -4.424  -2.148  0.00  0.00    -0.271 OA
ATOM     20  N   UNL     1      -3.993  -3.188  -1.081  0.00  0.00    -0.204 N 
ATOM     21  H   UNL     1      -4.257  -2.731  -0.267  0.00  0.00    +0.177 HD
BRANCH  20  22
ATOM     22  N   UNL     1      -4.831  -3.159  -2.204  0.00  0.00    -0.174 NA
ATOM     23  C   UNL     1      -5.916  -2.424  -2.193  0.00  0.00    +0.153 C 
ATOM     24  C   UNL     1      -6.338  -1.453  -1.157  0.00  0.00    +0.029 A 
ATOM     25  C   UNL     1      -5.773  -1.035   0.043  0.00  0.00    +0.027 A 
ATOM     26  C   UNL     1      -6.421  -0.089   0.813  0.00  0.00    +0.019 A 
ATOM     27  C   UNL     1      -7.630   0.440   0.390  0.00  0.00    +0.017 A 
ATOM     28  C   UNL     1      -8.198   0.030  -0.799  0.00  0.00    +0.025 A 
ATOM     29  C   UNL     1      -7.560  -0.921  -1.588  0.00  0.00    +0.043 A 
ATOM     30  N   UNL     1      -7.908  -1.496  -2.805  0.00  0.00    -0.280 N 
ATOM     31  C   UNL     1      -6.982  -2.380  -3.214  0.00  0.00    +0.269 C 
ATOM     32  O   UNL     1      -7.017  -3.030  -4.242  0.00  0.00    -0.268 OA
ATOM     33 BR   UNL     1      -5.659   0.484   2.446  0.00  0.00    -0.050 Br
ATOM     34  H   UNL     1      -8.716  -1.283  -3.299  0.00  0.00    +0.155 HD
ENDBRANCH  20  22
ENDBRANCH   3  18
TORSDOF 3
