REMARK  Name = ZINC39992132
REMARK  7 active torsions:
REMARK  status: ('A' for Active; 'I' for Inactive)
REMARK    1  A    between atoms: C_1  and  C_2
REMARK    2  A    between atoms: C_2  and  N_3
REMARK    3  A    between atoms: C_4  and  C_6
REMARK    4  A    between atoms: C_10  and  N_11
REMARK    5  A    between atoms: C_12  and  C_14
REMARK    6  A    between atoms: C_14  and  C_23
REMARK    7  A    between atoms: C_15  and  C_16
REMARK                            x       y       z     vdW  Elec       q    Type
REMARK                         _______ _______ _______ _____ _____    ______ ____
ROOT
ATOM      1  C   UNL     1      -3.180  -1.683   0.074  0.00  0.00    +0.069 A 
ATOM      2  C   UNL     1      -3.979  -1.686  -1.139  0.00  0.00    -0.023 A 
ATOM      3  C   UNL     1      -5.273  -2.022  -0.948  0.00  0.00    -0.004 A 
ATOM      4  S   UNL     1      -5.406  -2.321   0.791  0.00  0.00    -0.077 S 
ATOM      5  C   UNL     1      -3.821  -2.022   1.256  0.00  0.00    +0.085 A 
ATOM      6  C   UNL     1      -6.343  -2.113  -1.991  0.00  0.00    +0.043 C 
ATOM      7  C   UNL     1      -5.843  -1.403  -3.258  0.00  0.00    +0.005 C 
ATOM      8  C   UNL     1      -4.424  -1.888  -3.571  0.00  0.00    +0.005 C 
ATOM      9  C   UNL     1      -3.447  -1.347  -2.524  0.00  0.00    +0.037 C 
ENDROOT
BRANCH   1  11
ATOM     10  N   UNL     1      -1.365  -0.061   0.214  0.00  0.00    -0.312 N 
ATOM     11  C   UNL     1      -1.755  -1.341   0.048  0.00  0.00    +0.247 C 
ATOM     12  O   UNL     1      -0.923  -2.213  -0.123  0.00  0.00    -0.270 OA
ATOM     13  H   UNL     1      -2.029   0.634   0.351  0.00  0.00    +0.149 HD
BRANCH  10  15
ATOM     14  C   UNL     1       0.226   1.786   0.400  0.00  0.00    +0.024 C 
ATOM     15  C   UNL     1       0.059   0.280   0.189  0.00  0.00    +0.101 C 
ENDBRANCH  10  15
ENDBRANCH   1  11
BRANCH   5  16
ATOM     16  N   UNL     1      -3.278  -2.095   2.528  0.00  0.00    -0.275 N 
ATOM     17  C   UNL     1      -4.054  -2.445   3.572  0.00  0.00    +0.259 C 
ATOM     18  O   UNL     1      -5.232  -2.696   3.398  0.00  0.00    -0.269 OA
ATOM     19  H   UNL     1      -2.339  -1.895   2.667  0.00  0.00    +0.156 HD
BRANCH  17  20
ATOM     20  C   UNL     1      -3.477  -2.523   4.924  0.00  0.00    +0.114 C 
ATOM     21  C   UNL     1      -4.270  -2.881   5.991  0.00  0.00    +0.033 C 
BRANCH  21  22
ATOM     22  C   UNL     1      -3.737  -2.815   7.355  0.00  0.00    -0.010 A 
ATOM     23  C   UNL     1      -2.794  -1.836   7.697  0.00  0.00    +0.009 A 
ATOM     24  C   UNL     1      -2.299  -1.781   8.982  0.00  0.00    +0.001 A 
ATOM     25  C   UNL     1      -2.729  -2.690   9.934  0.00  0.00    +0.001 A 
ATOM     26  C   UNL     1      -3.659  -3.660   9.607  0.00  0.00    +0.016 A 
ATOM     27  C   UNL     1      -4.171  -3.727   8.327  0.00  0.00    +0.025 A 
ATOM     28 BR   UNL     1      -5.447  -5.050   7.883  0.00  0.00    -0.050 Br
ENDBRANCH  21  22
BRANCH  20  29
ATOM     29  C   UNL     1      -2.091  -2.228   5.129  0.00  0.00    +0.104 C 
ATOM     30  N   UNL     1      -0.992  -1.994   5.292  0.00  0.00    -0.191 NA
ENDBRANCH  20  29
ENDBRANCH  17  20
ENDBRANCH   5  16
TORSDOF 6
