REMARK  Name = ZINC20608660
REMARK  16 active torsions:
REMARK  status: ('A' for Active; 'I' for Inactive)
REMARK    1  A    between atoms: C_1  and  C_2
REMARK    2  A    between atoms: C_2  and  N_3
REMARK    3  A    between atoms: N_3  and  C_4
REMARK    4  A    between atoms: N_3  and  C_6
REMARK    5  A    between atoms: C_4  and  C_5
REMARK    6  A    between atoms: C_9  and  C_12
REMARK    7  A    between atoms: C_17  and  C_27
REMARK    8  A    between atoms: C_19  and  C_23
REMARK    9  A    between atoms: C_23  and  O_25
REMARK   10  A    between atoms: O_25  and  C_26
REMARK   11  A    between atoms: C_29  and  C_37
REMARK   12  A    between atoms: C_30  and  C_31
REMARK   13  A    between atoms: C_31  and  O_33
REMARK   14  A    between atoms: O_33  and  C_34
REMARK   15  A    between atoms: C_34  and  C_35
REMARK   16  A    between atoms: C_34  and  C_36
REMARK                            x       y       z     vdW  Elec       q    Type
REMARK                         _______ _______ _______ _____ _____    ______ ____
ROOT
ATOM      1  C   UNL     1      -3.780  -0.990  -3.150  0.00  0.00    +0.092 C 
ATOM      2  C   UNL     1      -2.979  -1.280  -1.905  0.00  0.00    +0.025 C 
ATOM      3  C   UNL     1      -3.028  -2.496  -1.322  0.00  0.00    +0.016 C 
ATOM      4  C   UNL     1      -2.230  -2.793  -0.076  0.00  0.00    +0.055 C 
ATOM      5  C   UNL     1      -0.947  -1.958  -0.077  0.00  0.00    +0.013 C 
ATOM      6  C   UNL     1      -1.333  -0.477  -0.152  0.00  0.00    +0.171 C 
ATOM      7  C   UNL     1      -2.179  -0.252  -1.375  0.00  0.00    +0.176 C 
ATOM      8  O   UNL     1      -2.171   0.836  -1.915  0.00  0.00    -0.291 OA
ATOM      9  C   UNL     1      -0.162  -2.220   1.210  0.00  0.00    +0.009 C 
ATOM     10  N   UNL     1      -3.810  -3.489  -1.849  0.00  0.00    -0.321 N 
ATOM     11  C   UNL     1      -4.837  -3.188  -2.700  0.00  0.00    +0.016 C 
ATOM     12  C   UNL     1      -4.867  -2.007  -3.340  0.00  0.00    +0.065 C 
ATOM     13  C   UNL     1      -5.941  -4.189  -2.922  0.00  0.00    +0.061 C 
ATOM     14  H   UNL     1      -3.615  -4.539  -1.588  0.00  0.00    +0.152 HD
ENDROOT
BRANCH   1  18
ATOM     15  C   UNL     1      -1.180  -1.064  -6.541  0.00  0.00    +0.030 A 
ATOM     16  C   UNL     1      -1.885   0.092  -6.229  0.00  0.00    +0.023 A 
ATOM     17  C   UNL     1      -2.724   0.112  -5.133  0.00  0.00    +0.006 A 
ATOM     18  C   UNL     1      -2.863  -1.016  -4.345  0.00  0.00    -0.035 A 
ATOM     19  C   UNL     1      -2.159  -2.167  -4.650  0.00  0.00    +0.006 A 
ATOM     20  C   UNL     1      -1.322  -2.196  -5.748  0.00  0.00    +0.023 A 
BRANCH  15  21
ATOM     21  N   UNL     1      -0.331  -1.089  -7.650  0.00  0.00    -0.330 N 
BRANCH  21  23
ATOM     22  C   UNL     1      -0.424  -3.177  -8.919  0.00  0.00    +0.024 C 
ATOM     23  C   UNL     1       0.412  -2.308  -7.977  0.00  0.00    +0.102 C 
ENDBRANCH  21  23
BRANCH  21  24
ATOM     24  C   UNL     1      -0.182   0.106  -8.485  0.00  0.00    +0.102 C 
ATOM     25  C   UNL     1       0.964   0.965  -7.947  0.00  0.00    +0.024 C 
ENDBRANCH  21  24
ENDBRANCH  15  21
ENDBRANCH   1  18
BRANCH   6  26
ATOM     26  C   UNL     1      -0.086   0.365  -0.240  0.00  0.00    +0.318 C 
ATOM     27  O   UNL     1       1.001  -0.163  -0.243  0.00  0.00    -0.250 OA
BRANCH  26  28
ATOM     28  O   UNL     1      -0.182   1.702  -0.315  0.00  0.00    -0.467 OA
ATOM     29  C   UNL     1       1.060   2.449  -0.398  0.00  0.00    +0.280 C 
ENDBRANCH  26  28
ENDBRANCH   6  26
BRANCH  12  30
ATOM     30  C   UNL     1      -5.944  -1.716  -4.209  0.00  0.00    +0.338 C 
ATOM     31  O   UNL     1      -6.776  -2.570  -4.454  0.00  0.00    -0.245 OA
BRANCH  30  32
ATOM     32  O   UNL     1      -6.051  -0.492  -4.766  0.00  0.00    -0.459 OA
BRANCH  32  33
ATOM     33  C   UNL     1      -7.164  -0.268  -5.633  0.00  0.00    +0.171 C 
ATOM     34  C   UNL     1      -8.349   0.255  -4.819  0.00  0.00    +0.052 C 
ATOM     35  C   UNL     1      -6.782   0.763  -6.697  0.00  0.00    +0.052 C 
ENDBRANCH  32  33
ENDBRANCH  30  32
ENDBRANCH  12  30
TORSDOF 9
