REMARK  Name = ZINC13164985
REMARK  13 active torsions:
REMARK  status: ('A' for Active; 'I' for Inactive)
REMARK    1  A    between atoms: C_1  and  C_2
REMARK    2  A    between atoms: C_3  and  C_30
REMARK    3  A    between atoms: C_11  and  C_13
REMARK    4  A    between atoms: C_13  and  S_14
REMARK    5  A    between atoms: S_14  and  C_15
REMARK    6  A    between atoms: C_15  and  C_16
REMARK    7  A    between atoms: C_17  and  C_26
REMARK    8  A    between atoms: C_18  and  N_25
REMARK    9  A    between atoms: C_20  and  C_21
REMARK   10  A    between atoms: C_21  and  O_23
REMARK   11  A    between atoms: O_23  and  C_24
REMARK   12  A    between atoms: C_26  and  O_28
REMARK   13  A    between atoms: O_28  and  C_29
REMARK                            x       y       z     vdW  Elec       q    Type
REMARK                         _______ _______ _______ _____ _____    ______ ____
ROOT
ATOM      1  C   UNL     1       0.135  -6.147   5.443  0.00  0.00    +0.106 C 
ENDROOT
BRANCH   1   2
ATOM      2  C   UNL     1       0.151  -7.607   5.072  0.00  0.00    -0.001 A 
ATOM      3  C   UNL     1      -1.020  -8.331   4.897  0.00  0.00    +0.092 A 
ATOM      4  C   UNL     1      -0.900  -9.681   4.553  0.00  0.00    +0.078 A 
ATOM      5  S   UNL     1       0.759  -9.931   4.476  0.00  0.00    -0.066 S 
ATOM      6  C   UNL     1       1.323  -8.291   4.883  0.00  0.00    +0.103 A 
BRANCH   4   7
ATOM      7  N   UNL     1      -1.906 -10.592   4.329  0.00  0.00    -0.352 N 
ATOM      8  H   UNL     1      -2.833 -10.318   4.406  0.00  0.00    +0.143 HD
ATOM      9  H   UNL     1      -1.688 -11.507   4.095  0.00  0.00    +0.143 HD
ENDBRANCH   4   7
BRANCH   6  10
ATOM     10  C   UNL     1       2.694  -7.799   4.991  0.00  0.00    +0.346 C 
ATOM     11  O   UNL     1       2.902  -6.636   5.284  0.00  0.00    -0.244 OA
BRANCH  10  12
ATOM     12  O   UNL     1       3.731  -8.633   4.766  0.00  0.00    -0.464 OA
ATOM     13  C   UNL     1       5.044  -8.084   4.888  0.00  0.00    +0.280 C 
ENDBRANCH  10  12
ENDBRANCH   6  10
BRANCH   3  14
ATOM     14  C   UNL     1      -2.334  -7.704   5.066  0.00  0.00    +0.342 C 
ATOM     15  O   UNL     1      -2.887  -7.184   4.116  0.00  0.00    -0.245 OA
BRANCH  14  16
ATOM     16  O   UNL     1      -2.929  -7.703   6.276  0.00  0.00    -0.464 OA
ATOM     17  C   UNL     1      -4.209  -7.074   6.369  0.00  0.00    +0.280 C 
ENDBRANCH  14  16
ENDBRANCH   3  14
ENDBRANCH   1   2
BRANCH   1  18
ATOM     18  S   UNL     1       0.108  -5.139   3.935  0.00  0.00    -0.148 S 
BRANCH  18  19
ATOM     19  C   UNL     1       0.090  -3.432   4.547  0.00  0.00    +0.143 C 
BRANCH  19  30
ATOM     20  C   UNL     1      -0.018   1.503   0.010  0.00  0.00    +0.045 C 
ATOM     21  C   UNL     1       0.002  -0.004   0.002  0.00  0.00    -0.026 A 
ATOM     22  C   UNL     1       0.006  -0.677  -1.160  0.00  0.00    -0.008 A 
ATOM     23  S   UNL     1       0.032  -2.385  -0.648  0.00  0.00    -0.073 S 
ATOM     24  C   UNL     1       0.037  -2.144   1.110  0.00  0.00    +0.116 A 
ATOM     25  C   UNL     1       0.024  -0.745   1.250  0.00  0.00    +0.075 A 
ATOM     26  C   UNL     1       0.029  -0.257   2.597  0.00  0.00    +0.260 A 
ATOM     27  O   UNL     1       0.014   0.942   2.821  0.00  0.00    -0.267 OA
ATOM     28  N   UNL     1       0.051  -1.142   3.611  0.00  0.00    -0.310 N 
ATOM     29  H   UNL     1       0.054  -0.817   4.525  0.00  0.00    +0.170 HD
ATOM     30  C   UNL     1       0.067  -2.480   3.380  0.00  0.00    +0.121 A 
ATOM     31  N   UNL     1       0.053  -2.956   2.163  0.00  0.00    -0.226 NA
ATOM     32  C   UNL     1      -0.009  -0.122  -2.561  0.00  0.00    +0.052 C 
ENDBRANCH  19  30
ENDBRANCH  18  19
ENDBRANCH   1  18
TORSDOF 9
