REMARK  Name = ZINC10934871
REMARK  6 active torsions:
REMARK  status: ('A' for Active; 'I' for Inactive)
REMARK    1  A    between atoms: C_6  and  C_7
REMARK    2  A    between atoms: C_7  and  O_8
REMARK    3  A    between atoms: O_8  and  C_9
REMARK    4  A    between atoms: C_9  and  C_11
REMARK    5  A    between atoms: C_12  and  S_16
REMARK    6  A    between atoms: S_16  and  N_19
REMARK                            x       y       z     vdW  Elec       q    Type
REMARK                         _______ _______ _______ _____ _____    ______ ____
ROOT
ATOM      1  C   UNL     1       2.528  -1.500  -0.030  0.00  0.00    +0.348 C 
ATOM      2  O   UNL     1       3.744  -1.474  -0.041  0.00  0.00    -0.244 OA
ENDROOT
BRANCH   1   3
ATOM      3  C   UNL     1       1.769  -0.248  -0.016  0.00  0.00    +0.122 A 
ATOM      4  C   UNL     1       2.237   1.058  -0.014  0.00  0.00    +0.126 A 
ATOM      5  C   UNL     1       1.298   2.058   0.001  0.00  0.00    +0.037 A 
ATOM      6  C   UNL     1      -0.021   1.729   0.012  0.00  0.00    +0.048 A 
ATOM      7  S   UNL     1       0.002  -0.004   0.002  0.00  0.00    -0.088 S 
BRANCH   4   8
ATOM      8  S   UNL     1       3.962   1.417  -0.028  0.00  0.00    +0.057 S 
ATOM      9  O   UNL     1       4.533   0.628  -1.063  0.00  0.00    -0.153 OA
ATOM     10  O   UNL     1       4.082   2.833   0.006  0.00  0.00    -0.153 OA
BRANCH   8  11
ATOM     11  N   UNL     1       4.591   0.855   1.397  0.00  0.00    -0.203 NA
ATOM     12  H   UNL     1       5.511   0.550   1.435  0.00  0.00    +0.144 HD
ATOM     13  H   UNL     1       4.039   0.830   2.195  0.00  0.00    +0.144 HD
ENDBRANCH   8  11
ENDBRANCH   4   8
ENDBRANCH   1   3
BRANCH   1  14
ATOM     14  O   UNL     1       1.879  -2.682  -0.030  0.00  0.00    -0.456 OA
BRANCH  14  15
ATOM     15  C   UNL     1       2.695  -3.883  -0.044  0.00  0.00    +0.268 C 
BRANCH  15  21
ATOM     16  C   UNL     1       1.410  -5.663   1.156  0.00  0.00    +0.008 A 
ATOM     17  C   UNL     1       0.587  -6.775   1.159  0.00  0.00    +0.022 A 
ATOM     18  C   UNL     1       0.166  -7.327  -0.037  0.00  0.00    +0.059 A 
ATOM     19  C   UNL     1       0.564  -6.762  -1.237  0.00  0.00    +0.060 A 
ATOM     20  C   UNL     1       1.383  -5.647  -1.238  0.00  0.00    +0.028 A 
ATOM     21  C   UNL     1       1.803  -5.097  -0.042  0.00  0.00    -0.009 A 
ATOM     22 CL   UNL     1       0.036  -7.454  -2.739  0.00  0.00    -0.082 Cl
ATOM     23 CL   UNL     1      -0.862  -8.726  -0.034  0.00  0.00    -0.082 Cl
ENDBRANCH  15  21
ENDBRANCH  14  15
ENDBRANCH   1  14
TORSDOF 6
