REMARK  Name = ZINC14275679
REMARK  8 active torsions:
REMARK  status: ('A' for Active; 'I' for Inactive)
REMARK    1  A    between atoms: C_1  and  C_2
REMARK    2  A    between atoms: C_6  and  C_10
REMARK    3  A    between atoms: C_7  and  O_8
REMARK    4  A    between atoms: O_8  and  C_9
REMARK    5  A    between atoms: N_12  and  C_13
REMARK    6  A    between atoms: C_13  and  N_15
REMARK    7  A    between atoms: C_21  and  N_25
REMARK    8  A    between atoms: C_26  and  C_28
REMARK                            x       y       z     vdW  Elec       q    Type
REMARK                         _______ _______ _______ _____ _____    ______ ____
ROOT
ATOM      1  C   UNL     1      -3.599  -0.796   0.145  0.00  0.00    +0.143 C 
ATOM      2  S   UNL     1      -3.574  -2.491  -0.093  0.00  0.00    -0.018 S 
ENDROOT
BRANCH   1   3
ATOM      3  N   UNL     1      -4.774  -0.154   0.296  0.00  0.00    -0.276 N 
ATOM      4  C   UNL     1      -5.962  -0.865   0.258  0.00  0.00    +0.165 A 
ATOM      5  N   UNL     1      -6.144  -2.154   0.088  0.00  0.00    -0.225 NA
ATOM      6  C   UNL     1      -7.372  -2.718   0.073  0.00  0.00    +0.080 A 
ATOM      7  C   UNL     1      -7.704  -4.082  -0.100  0.00  0.00    +0.031 A 
ATOM      8  C   UNL     1      -8.999  -4.493  -0.089  0.00  0.00    +0.025 A 
ATOM      9  C   UNL     1     -10.049  -3.595   0.091  0.00  0.00    +0.035 A 
ATOM     10  C   UNL     1      -9.763  -2.246   0.264  0.00  0.00    +0.040 A 
ATOM     11  C   UNL     1      -8.456  -1.828   0.254  0.00  0.00    +0.043 A 
ATOM     12  S   UNL     1      -7.635  -0.263   0.436  0.00  0.00    -0.052 S 
ATOM     13  H   UNL     1      -4.788   0.807   0.431  0.00  0.00    +0.156 HD
BRANCH   9  14
ATOM     14  N   UNL     1     -11.375  -4.045   0.098  0.00  0.00    -0.286 N 
ATOM     15  C   UNL     1     -12.357  -3.256  -0.381  0.00  0.00    +0.214 C 
ATOM     16  O   UNL     1     -12.084  -2.197  -0.904  0.00  0.00    -0.276 OA
ATOM     17  C   UNL     1     -13.796  -3.690  -0.265  0.00  0.00    +0.109 C 
ATOM     18  H   UNL     1     -11.587  -4.925   0.448  0.00  0.00    +0.155 HD
ENDBRANCH   9  14
ENDBRANCH   1   3
BRANCH   1  21
ATOM     19  C   UNL     1      -1.268  -0.745   0.032  0.00  0.00    +0.253 C 
ATOM     20  O   UNL     1      -1.250  -1.949  -0.137  0.00  0.00    -0.270 OA
ATOM     21  N   UNL     1      -2.443  -0.103   0.183  0.00  0.00    -0.263 N 
ATOM     22  H   UNL     1      -2.457   0.857   0.318  0.00  0.00    +0.157 HD
BRANCH  19  28
ATOM     23  C   UNL     1       3.724  -0.638  -0.209  0.00  0.00    +0.047 C 
ATOM     24  C   UNL     1       2.405   0.070  -0.043  0.00  0.00    -0.007 A 
ATOM     25  C   UNL     1       2.376   1.437   0.150  0.00  0.00    +0.022 A 
ATOM     26  C   UNL     1       1.167   2.098   0.304  0.00  0.00    +0.019 A 
ATOM     27  C   UNL     1      -0.019   1.396   0.267  0.00  0.00    +0.032 A 
ATOM     28  C   UNL     1      -0.003   0.012   0.073  0.00  0.00    +0.080 A 
ATOM     29  C   UNL     1       1.222  -0.652  -0.083  0.00  0.00    +0.135 A 
ATOM     30 BR   UNL     1       1.145   3.970   0.567  0.00  0.00    -0.050 Br
BRANCH  29  31
ATOM     31  O   UNL     1       1.249  -1.995  -0.272  0.00  0.00    -0.494 OA
ATOM     32  C   UNL     1       1.198  -2.462  -1.621  0.00  0.00    +0.277 C 
ENDBRANCH  29  31
ENDBRANCH  19  28
ENDBRANCH   1  21
TORSDOF 5
