REMARK  Name = ZINC59145633
REMARK  6 active torsions:
REMARK  status: ('A' for Active; 'I' for Inactive)
REMARK    1  A    between atoms: C_1  and  C_2
REMARK    2  A    between atoms: C_2  and  O_3
REMARK    3  A    between atoms: O_3  and  C_4
REMARK    4  A    between atoms: C_7  and  C_10
REMARK    5  A    between atoms: C_28  and  C_29
REMARK    6  A    between atoms: C_34  and  O_35
REMARK                            x       y       z     vdW  Elec       q    Type
REMARK                         _______ _______ _______ _____ _____    ______ ____
ROOT
ATOM      1  C   UNL     1       1.116  -6.441  -1.547  0.00  0.00    +0.151 C 
ATOM      2  C   UNL     1      -0.022  -7.017  -2.355  0.00  0.00    -0.016 C 
ATOM      3  C   UNL     1       0.264  -7.660  -3.499  0.00  0.00    +0.076 C 
ATOM      4  C   UNL     1      -0.844  -8.209  -4.320  0.00  0.00    +0.004 A 
ATOM      5  C   UNL     1      -0.594  -9.147  -5.316  0.00  0.00    +0.010 A 
ATOM      6  C   UNL     1      -1.643  -9.656  -6.055  0.00  0.00    +0.001 A 
ATOM      7  C   UNL     1      -2.937  -9.235  -5.805  0.00  0.00    +0.000 A 
ATOM      8  C   UNL     1      -3.189  -8.297  -4.820  0.00  0.00    +0.004 A 
ATOM      9  C   UNL     1      -2.147  -7.776  -4.082  0.00  0.00    -0.038 A 
ATOM     10  C   UNL     1      -2.403  -6.721  -3.038  0.00  0.00    +0.040 C 
ATOM     11  C   UNL     1      -1.438  -6.894  -1.867  0.00  0.00    +0.040 C 
ATOM     12  N   UNL     1       1.555  -7.808  -3.902  0.00  0.00    -0.223 NA
ATOM     13  C   UNL     1       2.583  -7.350  -3.254  0.00  0.00    +0.178 A 
ATOM     14  N   UNL     1       2.496  -6.649  -2.067  0.00  0.00    -0.275 N 
ATOM     15  C   UNL     1       3.628  -6.225  -1.491  0.00  0.00    +0.268 A 
ATOM     16  O   UNL     1       3.605  -5.603  -0.446  0.00  0.00    -0.266 OA
ATOM     17  C   UNL     1       4.901  -6.534  -2.159  0.00  0.00    +0.081 A 
ATOM     18  C   UNL     1       6.168  -6.223  -1.786  0.00  0.00    +0.032 C 
ATOM     19  S   UNL     1       4.330  -7.430  -3.593  0.00  0.00    -0.046 S 
ENDROOT
BRANCH  18  20
ATOM     20  C   UNL     1       7.309  -6.791  -2.515  0.00  0.00    +0.019 A 
ATOM     21  C   UNL     1       7.134  -7.915  -3.330  0.00  0.00    +0.031 A 
ATOM     22  C   UNL     1       8.210  -8.443  -4.012  0.00  0.00    +0.042 A 
ATOM     23  C   UNL     1       9.464  -7.864  -3.893  0.00  0.00    +0.023 A 
ATOM     24  C   UNL     1       9.651  -6.754  -3.092  0.00  0.00    +0.047 A 
ATOM     25  C   UNL     1       8.581  -6.206  -2.404  0.00  0.00    +0.124 A 
ATOM     26 CL   UNL     1       7.993  -9.838  -5.022  0.00  0.00    -0.084 Cl
BRANCH  25  27
ATOM     27  O   UNL     1       8.762  -5.112  -1.621  0.00  0.00    -0.506 OA
ATOM     28  H   UNL     1       8.994  -5.317  -0.705  0.00  0.00    +0.292 HD
ENDBRANCH  25  27
ENDBRANCH  18  20
BRANCH   1  32
ATOM     29  C   UNL     1       0.471  -2.231  -1.189  0.00  0.00    +0.121 A 
ATOM     30  C   UNL     1       0.064  -3.085  -0.174  0.00  0.00    +0.046 A 
ATOM     31  C   UNL     1       0.273  -4.446  -0.292  0.00  0.00    +0.009 A 
ATOM     32  C   UNL     1       0.888  -4.956  -1.421  0.00  0.00    -0.020 A 
ATOM     33  C   UNL     1       1.296  -4.107  -2.433  0.00  0.00    +0.009 A 
ATOM     34  C   UNL     1       1.083  -2.747  -2.322  0.00  0.00    +0.046 A 
BRANCH  29  35
ATOM     35  O   UNL     1       0.266  -0.893  -1.075  0.00  0.00    -0.492 OA
BRANCH  35  37
ATOM     36  C   UNL     1      -0.513   1.089   0.067  0.00  0.00    +0.048 C 
ATOM     37  C   UNL     1      -0.369  -0.433   0.120  0.00  0.00    +0.225 C 
ENDBRANCH  35  37
ENDBRANCH  29  35
ENDBRANCH   1  32
TORSDOF 5
