REMARK  Name = ZINC52066930
REMARK  9 active torsions:
REMARK  status: ('A' for Active; 'I' for Inactive)
REMARK    1  A    between atoms: C_1  and  C_2
REMARK    2  A    between atoms: C_2  and  C_4
REMARK    3  A    between atoms: C_2  and  N_22
REMARK    4  A    between atoms: C_9  and  O_10
REMARK    5  A    between atoms: O_10  and  C_11
REMARK    6  A    between atoms: C_11  and  C_13
REMARK    7  A    between atoms: C_11  and  C_14
REMARK    8  A    between atoms: N_19  and  C_20
REMARK    9  A    between atoms: N_22  and  C_23
REMARK                            x       y       z     vdW  Elec       q    Type
REMARK                         _______ _______ _______ _____ _____    ______ ____
ROOT
ATOM      1  C   UNL     1       0.642  -0.699  -1.216  0.00  0.00    -0.019 A 
ATOM      2  C   UNL     1       1.876  -1.313  -1.114  0.00  0.00    +0.020 A 
ATOM      3  C   UNL     1       2.427  -1.947  -2.213  0.00  0.00    +0.018 A 
ATOM      4  C   UNL     1       1.744  -1.967  -3.417  0.00  0.00    +0.019 A 
ATOM      5  C   UNL     1       0.511  -1.355  -3.523  0.00  0.00    +0.047 A 
ATOM      6  C   UNL     1      -0.046  -0.724  -2.420  0.00  0.00    +0.123 A 
ATOM      7 BR   UNL     1       4.116  -2.785  -2.071  0.00  0.00    -0.050 Br
ENDROOT
BRANCH   1   9
ATOM      8  C   UNL     1       0.267   1.500  -0.133  0.00  0.00    -0.009 C 
ATOM      9  C   UNL     1       0.042  -0.009  -0.018  0.00  0.00    -0.041 C 
BRANCH   9  10
ATOM     10  N   UNL     1       0.683  -0.507   1.206  0.00  0.00    +0.382 N 
ATOM     11  C   UNL     1       0.018   0.075   2.379  0.00  0.00    -0.100 C 
ATOM     12  H   UNL     1       0.606  -1.513   1.241  0.00  0.00    -0.085 HD
ATOM     13  H   UNL     1       1.657  -0.245   1.207  0.00  0.00    -0.085 HD
ENDBRANCH   9  10
ENDBRANCH   1   9
BRANCH   6  14
ATOM     14  O   UNL     1      -1.262  -0.125  -2.521  0.00  0.00    -0.480 OA
BRANCH  14  15
ATOM     15  C   UNL     1      -1.857  -0.080  -3.819  0.00  0.00    +0.256 C 
ATOM     16  C   UNL     1      -2.609  -1.387  -4.081  0.00  0.00    +0.062 C 
BRANCH  15  17
ATOM     17  C   UNL     1      -2.821   1.076  -3.890  0.00  0.00    +0.261 C 
ATOM     18  O   UNL     1      -2.982   1.791  -2.924  0.00  0.00    -0.271 OA
ATOM     19  N   UNL     1      -3.504   1.316  -5.027  0.00  0.00    -0.237 N 
ATOM     20  C   UNL     1      -4.366   2.350  -5.091  0.00  0.00    +0.306 C 
ATOM     21  O   UNL     1      -4.527   3.067  -4.123  0.00  0.00    -0.252 OA
ATOM     22  N   UNL     1      -5.049   2.589  -6.228  0.00  0.00    -0.302 N 
ATOM     23  C   UNL     1      -5.985   3.713  -6.297  0.00  0.00    +0.129 C 
ATOM     24  H   UNL     1      -3.375   0.744  -5.800  0.00  0.00    +0.159 HD
ATOM     25  H   UNL     1      -4.920   2.017  -7.001  0.00  0.00    +0.150 HD
ENDBRANCH  15  17
ENDBRANCH  14  15
ENDBRANCH   6  14
TORSDOF 5
