REMARK  Name = ZINC09610716
REMARK  8 active torsions:
REMARK  status: ('A' for Active; 'I' for Inactive)
REMARK    1  A    between atoms: C_1  and  C_2
REMARK    2  A    between atoms: C_2  and  C_3
REMARK    3  A    between atoms: C_2  and  C_4
REMARK    4  A    between atoms: C_2  and  C_5
REMARK    5  A    between atoms: C_8  and  S_11
REMARK    6  A    between atoms: S_11  and  C_14
REMARK    7  A    between atoms: C_20  and  O_25
REMARK    8  A    between atoms: O_25  and  C_26
REMARK                            x       y       z     vdW  Elec       q    Type
REMARK                         _______ _______ _______ _____ _____    ______ ____
ROOT
ATOM      1  C   UNL     1      -3.658   3.411   0.054  0.00  0.00    +0.178 A 
ATOM      2  C   UNL     1      -2.520   4.149   0.048  0.00  0.00    +0.046 A 
ATOM      3  C   UNL     1      -1.236   3.442   0.032  0.00  0.00    +0.024 A 
ATOM      4  C   UNL     1      -0.026   4.144   0.024  0.00  0.00    +0.027 A 
ATOM      5  C   UNL     1       1.165   3.453   0.009  0.00  0.00    +0.022 A 
ATOM      6  C   UNL     1       1.171   2.064   0.002  0.00  0.00    +0.064 A 
ATOM      7  C   UNL     1      -0.016   1.355   0.009  0.00  0.00    +0.164 A 
ATOM      8  C   UNL     1      -1.232   2.037   0.019  0.00  0.00    +0.181 A 
ATOM      9  O   UNL     1      -2.402   1.361   0.032  0.00  0.00    -0.417 OA
ATOM     10  C   UNL     1      -3.581   2.002   0.046  0.00  0.00    +0.363 A 
ATOM     11  O   UNL     1      -4.610   1.350   0.051  0.00  0.00    -0.243 OA
ATOM     12 BR   UNL     1       2.802   4.399  -0.002  0.00  0.00    -0.050 Br
ENDROOT
BRANCH   1  13
ATOM     13  S   UNL     1      -5.229   4.210   0.073  0.00  0.00    +0.032 S 
ATOM     14  O   UNL     1      -5.987   3.589   1.102  0.00  0.00    -0.164 OA
ATOM     15  O   UNL     1      -4.974   5.608   0.052  0.00  0.00    -0.164 OA
BRANCH  13  19
ATOM     16  C   UNL     1      -7.288   3.210  -3.832  0.00  0.00    -0.042 A 
ATOM     17  C   UNL     1      -7.460   2.392  -2.731  0.00  0.00    +0.006 A 
ATOM     18  C   UNL     1      -6.831   2.698  -1.538  0.00  0.00    +0.027 A 
ATOM     19  C   UNL     1      -6.030   3.821  -1.447  0.00  0.00    +0.094 A 
ATOM     20  C   UNL     1      -5.862   4.641  -2.547  0.00  0.00    +0.027 A 
ATOM     21  C   UNL     1      -6.487   4.333  -3.741  0.00  0.00    +0.006 A 
BRANCH  16  23
ATOM     22  C   UNL     1      -9.488   2.857  -4.920  0.00  0.00    +0.015 C 
ATOM     23  C   UNL     1      -7.973   2.877  -5.133  0.00  0.00    -0.013 C 
ATOM     24  C   UNL     1      -7.619   3.934  -6.181  0.00  0.00    +0.015 C 
ATOM     25  C   UNL     1      -7.507   1.502  -5.617  0.00  0.00    +0.015 C 
ENDBRANCH  16  23
ENDBRANCH  13  19
ENDBRANCH   1  13
BRANCH   7  26
ATOM     26  O   UNL     1       0.002  -0.004   0.002  0.00  0.00    -0.491 OA
ATOM     27  C   UNL     1       1.284  -0.635  -0.014  0.00  0.00    +0.277 C 
ENDBRANCH   7  26
TORSDOF 4
