REMARK  Name = ZINC43467897
REMARK  7 active torsions:
REMARK  status: ('A' for Active; 'I' for Inactive)
REMARK    1  A    between atoms: C_1  and  C_2
REMARK    2  A    between atoms: C_2  and  C_3
REMARK    3  A    between atoms: C_3  and  N_4
REMARK    4  A    between atoms: C_6  and  C_9
REMARK    5  A    between atoms: C_9  and  C_10
REMARK    6  A    between atoms: C_9  and  C_11
REMARK    7  A    between atoms: C_9  and  N_18
REMARK                            x       y       z     vdW  Elec       q    Type
REMARK                         _______ _______ _______ _____ _____    ______ ____
ROOT
ATOM      1  C   UNL     1       2.347  -5.258   1.342  0.00  0.00    -0.018 C 
ATOM      2  C   UNL     1       2.510  -5.565   2.832  0.00  0.00    -0.001 C 
ENDROOT
BRANCH   1   3
ATOM      3  C   UNL     1       1.708  -6.437   0.654  0.00  0.00    -0.041 A 
ATOM      4  C   UNL     1       1.470  -7.603   1.358  0.00  0.00    +0.003 A 
ATOM      5  C   UNL     1       0.883  -8.684   0.727  0.00  0.00    +0.000 A 
ATOM      6  C   UNL     1       0.536  -8.600  -0.609  0.00  0.00    +0.001 A 
ATOM      7  C   UNL     1       0.774  -7.435  -1.314  0.00  0.00    +0.015 A 
ATOM      8  C   UNL     1       1.356  -6.351  -0.681  0.00  0.00    +0.020 A 
ATOM      9 BR   UNL     1       1.676  -4.755  -1.642  0.00  0.00    -0.050 Br
ENDBRANCH   1   3
BRANCH   1  12
ATOM     10  N   UNL     1       0.810  -1.990   0.835  0.00  0.00    -0.271 N 
ATOM     11  C   UNL     1       1.898  -2.785   0.916  0.00  0.00    +0.110 A 
ATOM     12  C   UNL     1       1.472  -4.043   1.172  0.00  0.00    -0.017 A 
ATOM     13  C   UNL     1       0.075  -4.017   1.251  0.00  0.00    +0.136 A 
ATOM     14  N   UNL     1      -0.322  -2.786   1.055  0.00  0.00    -0.179 NA
BRANCH  10  15
ATOM     15  C   UNL     1       0.813  -0.549   0.571  0.00  0.00    +0.143 C 
BRANCH  15  17
ATOM     16  C   UNL     1      -0.084   1.255  -0.906  0.00  0.00    +0.005 C 
ATOM     17  C   UNL     1      -0.087  -0.249  -0.629  0.00  0.00    +0.020 C 
ENDBRANCH  15  17
ENDBRANCH  10  15
ENDBRANCH   1  12
BRANCH   1  18
ATOM     18  N   UNL     1       3.665  -4.999   0.748  0.00  0.00    +0.387 N 
ATOM     19  H   UNL     1       4.093  -4.210   1.209  0.00  0.00    -0.088 HD
ATOM     20  H   UNL     1       4.251  -5.813   0.862  0.00  0.00    -0.088 HD
ATOM     21  H   UNL     1       3.557  -4.797  -0.234  0.00  0.00    -0.088 HD
ENDBRANCH   1  18
TORSDOF 5
