REMARK  Name = ZINC40915423
REMARK  7 active torsions:
REMARK  status: ('A' for Active; 'I' for Inactive)
REMARK    1  A    between atoms: C_1  and  C_2
REMARK    2  A    between atoms: C_7  and  C_8
REMARK    3  A    between atoms: C_8  and  O_9
REMARK    4  A    between atoms: O_9  and  C_10
REMARK    5  A    between atoms: C_13  and  C_16
REMARK    6  A    between atoms: C_21  and  C_25
REMARK    7  A    between atoms: C_21  and  C_26
REMARK                            x       y       z     vdW  Elec       q    Type
REMARK                         _______ _______ _______ _____ _____    ______ ____
ROOT
ATOM      1  C   UNL     1       0.069   1.235   8.802  0.00  0.00    +0.175 C 
ATOM      2  C   UNL     1       1.324   0.791   9.520  0.00  0.00    +0.041 C 
ATOM      3  C   UNL     1       1.302  -0.149  10.489  0.00  0.00    +0.020 C 
ATOM      4  C   UNL     1       2.571  -0.572  11.189  0.00  0.00    +0.058 C 
ATOM      5  C   UNL     1       3.756  -0.443  10.230  0.00  0.00    -0.023 C 
ATOM      6  C   UNL     1       3.841   1.014   9.762  0.00  0.00    +0.086 C 
ATOM      7  C   UNL     1       2.531   1.400   9.133  0.00  0.00    +0.164 C 
ATOM      8  O   UNL     1       2.515   2.257   8.272  0.00  0.00    -0.292 OA
ATOM      9  C   UNL     1       3.546  -1.361   9.025  0.00  0.00    +0.011 C 
ATOM     10  C   UNL     1       5.049  -0.827  10.953  0.00  0.00    +0.011 C 
ATOM     11  N   UNL     1       0.133  -0.753  10.885  0.00  0.00    -0.287 N 
ATOM     12  C   UNL     1      -1.064  -0.175  10.495  0.00  0.00    +0.218 A 
ATOM     13  N   UNL     1      -1.108   0.764   9.520  0.00  0.00    -0.221 N 
ATOM     14  N   UNL     1      -2.447   1.131   9.389  0.00  0.00    -0.156 NA
ATOM     15  C   UNL     1      -3.121   0.416  10.256  0.00  0.00    +0.247 A 
ATOM     16  N   UNL     1      -2.281  -0.372  10.922  0.00  0.00    -0.201 NA
ATOM     17  H   UNL     1       0.145  -1.561  11.422  0.00  0.00    +0.155 HD
ENDROOT
BRANCH   1  21
ATOM     18  C   UNL     1       0.053  -0.377   4.844  0.00  0.00    +0.121 A 
ATOM     19  C   UNL     1       0.031   0.997   5.035  0.00  0.00    +0.046 A 
ATOM     20  C   UNL     1       0.035   1.516   6.315  0.00  0.00    +0.009 A 
ATOM     21  C   UNL     1       0.063   0.667   7.406  0.00  0.00    -0.018 A 
ATOM     22  C   UNL     1       0.086  -0.703   7.218  0.00  0.00    +0.009 A 
ATOM     23  C   UNL     1       0.075  -1.227   5.940  0.00  0.00    +0.046 A 
BRANCH  18  24
ATOM     24  O   UNL     1       0.048  -0.889   3.585  0.00  0.00    -0.487 OA
BRANCH  24  25
ATOM     25  C   UNL     1       0.025   0.045   2.504  0.00  0.00    +0.264 C 
BRANCH  25  32
ATOM     26  C   UNL     1      -0.018   1.503   0.010  0.00  0.00    +0.044 C 
ATOM     27  C   UNL     1       0.002  -0.004   0.002  0.00  0.00    -0.044 A 
ATOM     28  C   UNL     1       0.006  -0.689  -1.199  0.00  0.00    +0.004 A 
ATOM     29  C   UNL     1       0.025  -2.071  -1.207  0.00  0.00    +0.000 A 
ATOM     30  C   UNL     1       0.040  -2.768  -0.013  0.00  0.00    +0.000 A 
ATOM     31  C   UNL     1       0.037  -2.084   1.188  0.00  0.00    +0.007 A 
ATOM     32  C   UNL     1       0.023  -0.702   1.195  0.00  0.00    -0.007 A 
ENDBRANCH  25  32
ENDBRANCH  24  25
ENDBRANCH  18  24
ENDBRANCH   1  21
TORSDOF 4
