REMARK  Name = ZINC13127488
REMARK  4 active torsions:
REMARK  status: ('A' for Active; 'I' for Inactive)
REMARK    1  A    between atoms: C_1  and  O_2
REMARK    2  A    between atoms: O_2  and  C_3
REMARK    3  A    between atoms: C_6  and  C_9
REMARK    4  A    between atoms: C_12  and  C_21
REMARK                            x       y       z     vdW  Elec       q    Type
REMARK                         _______ _______ _______ _____ _____    ______ ____
ROOT
ATOM      1  C   UNL     1       2.505  -2.503  -4.381  0.00  0.00    +0.143 C 
ATOM      2  C   UNL     1       3.662  -3.378  -3.883  0.00  0.00    +0.058 C 
ATOM      3  C   UNL     1       4.167  -4.268  -5.024  0.00  0.00    +0.106 C 
ATOM      4  N   UNL     1       3.073  -5.165  -5.443  0.00  0.00    -0.307 N 
ATOM      5  C   UNL     1       1.817  -4.585  -5.564  0.00  0.00    +0.216 A 
ATOM      6  N   UNL     1       1.538  -3.349  -5.081  0.00  0.00    -0.224 N 
ATOM      7  N   UNL     1       0.200  -3.092  -5.384  0.00  0.00    -0.132 NA
ATOM      8  C   UNL     1      -0.256  -4.150  -6.017  0.00  0.00    +0.233 A 
ATOM      9  N   UNL     1       0.733  -5.058  -6.120  0.00  0.00    -0.180 NA
ATOM     10  N   UNL     1      -1.556  -4.308  -6.498  0.00  0.00    -0.326 N 
ATOM     11  H   UNL     1       3.222  -6.106  -5.623  0.00  0.00    +0.149 HD
ATOM     12  H   UNL     1      -2.208  -3.601  -6.376  0.00  0.00    +0.145 HD
ATOM     13  H   UNL     1      -1.807  -5.126  -6.956  0.00  0.00    +0.145 HD
ENDROOT
BRANCH   3  14
ATOM     14  C   UNL     1       4.592  -3.407  -6.186  0.00  0.00    -0.027 A 
ATOM     15  C   UNL     1       3.643  -2.892  -7.049  0.00  0.00    +0.006 A 
ATOM     16  C   UNL     1       4.032  -2.102  -8.114  0.00  0.00    +0.015 A 
ATOM     17  C   UNL     1       5.373  -1.827  -8.317  0.00  0.00    +0.018 A 
ATOM     18  C   UNL     1       6.322  -2.342  -7.453  0.00  0.00    +0.015 A 
ATOM     19  C   UNL     1       5.931  -3.127  -6.385  0.00  0.00    +0.006 A 
ATOM     20 BR   UNL     1       5.906  -0.747  -9.774  0.00  0.00    -0.050 Br
ENDBRANCH   3  14
BRANCH   1  24
ATOM     21  C   UNL     1       0.606  -0.607  -1.056  0.00  0.00    +0.120 A 
ATOM     22  C   UNL     1       1.173   0.161  -2.062  0.00  0.00    +0.046 A 
ATOM     23  C   UNL     1       1.786  -0.455  -3.136  0.00  0.00    +0.009 A 
ATOM     24  C   UNL     1       1.835  -1.835  -3.209  0.00  0.00    -0.023 A 
ATOM     25  C   UNL     1       1.270  -2.602  -2.207  0.00  0.00    +0.009 A 
ATOM     26  C   UNL     1       0.661  -1.992  -1.128  0.00  0.00    +0.046 A 
BRANCH  21  28
ATOM     27  C   UNL     1      -0.017   1.425   0.010  0.00  0.00    +0.277 C 
ATOM     28  O   UNL     1       0.002  -0.004   0.002  0.00  0.00    -0.495 OA
ENDBRANCH  21  28
ENDBRANCH   1  24
TORSDOF 3
