REMARK  Name = ZINC04283144
REMARK  8 active torsions:
REMARK  status: ('A' for Active; 'I' for Inactive)
REMARK    1  A    between atoms: C_4  and  C_7
REMARK    2  A    between atoms: C_7  and  C_9
REMARK    3  A    between atoms: C_7  and  O_31
REMARK    4  A    between atoms: N_11  and  N_12
REMARK    5  A    between atoms: C_13  and  C_14
REMARK    6  A    between atoms: C_19  and  O_20
REMARK    7  A    between atoms: O_20  and  C_21
REMARK    8  A    between atoms: C_21  and  C_23
REMARK                            x       y       z     vdW  Elec       q    Type
REMARK                         _______ _______ _______ _____ _____    ______ ____
ROOT
ATOM      1  C   UNL     1       1.266   1.915   0.034  0.00  0.00    +0.038 A 
ATOM      2  C   UNL     1       2.468   1.206   0.090  0.00  0.00    +0.028 A 
ATOM      3  C   UNL     1       3.669   1.882   0.016  0.00  0.00    +0.019 A 
ATOM      4  C   UNL     1       3.687   3.262  -0.113  0.00  0.00    +0.019 A 
ATOM      5  C   UNL     1       2.504   3.974  -0.169  0.00  0.00    +0.048 A 
ATOM      6  C   UNL     1       1.290   3.310  -0.102  0.00  0.00    +0.141 A 
ATOM      7 BR   UNL     1       5.296   0.922   0.092  0.00  0.00    -0.050 Br
ENDROOT
BRANCH   1   9
ATOM      8  N   UNL     1      -1.133   1.867   0.148  0.00  0.00    -0.188 NA
ATOM      9  C   UNL     1      -0.020   1.200   0.112  0.00  0.00    +0.142 C 
BRANCH   8  12
ATOM     10  C   UNL     1      -3.511   1.872   0.257  0.00  0.00    +0.265 C 
ATOM     11  O   UNL     1      -3.511   3.047  -0.046  0.00  0.00    -0.271 OA
ATOM     12  N   UNL     1      -2.348   1.193   0.324  0.00  0.00    -0.205 N 
ATOM     13  H   UNL     1      -2.353   0.238   0.493  0.00  0.00    +0.177 HD
BRANCH  10  14
ATOM     14  C   UNL     1      -4.811   1.172   0.560  0.00  0.00    +0.232 C 
BRANCH  14  18
ATOM     15  C   UNL     1      -4.861  -0.027   4.659  0.00  0.00    +0.000 A 
ATOM     16  C   UNL     1      -4.455  -0.918   3.684  0.00  0.00    +0.000 A 
ATOM     17  C   UNL     1      -4.439  -0.530   2.357  0.00  0.00    +0.006 A 
ATOM     18  C   UNL     1      -4.828   0.749   2.006  0.00  0.00    -0.010 A 
ATOM     19  C   UNL     1      -5.229   1.642   2.982  0.00  0.00    +0.006 A 
ATOM     20  C   UNL     1      -5.250   1.252   4.309  0.00  0.00    +0.000 A 
ENDBRANCH  14  18
BRANCH  14  21
ATOM     21  O   UNL     1      -5.900   2.062   0.310  0.00  0.00    -0.378 OA
ATOM     22  H   UNL     1      -5.880   2.868   0.844  0.00  0.00    +0.211 HD
ENDBRANCH  14  21
ENDBRANCH  10  14
ENDBRANCH   8  12
ENDBRANCH   1   9
BRANCH   6  23
ATOM     23  O   UNL     1       0.127   4.009  -0.163  0.00  0.00    -0.422 OA
BRANCH  23  24
ATOM     24  C   UNL     1      -0.403   4.418   1.006  0.00  0.00    +0.344 C 
ATOM     25  O   UNL     1       0.099   4.068   2.056  0.00  0.00    -0.245 OA
BRANCH  24  26
ATOM     26  C   UNL     1      -1.594   5.290   1.012  0.00  0.00    +0.059 A 
ATOM     27  C   UNL     1      -2.229   5.619  -0.188  0.00  0.00    +0.016 A 
ATOM     28  C   UNL     1      -3.344   6.429  -0.175  0.00  0.00    +0.021 A 
ATOM     29  C   UNL     1      -3.828   6.927   1.023  0.00  0.00    +0.041 A 
ATOM     30  C   UNL     1      -3.200   6.610   2.216  0.00  0.00    +0.021 A 
ATOM     31  C   UNL     1      -2.088   5.795   2.217  0.00  0.00    +0.016 A 
ATOM     32 CL   UNL     1      -5.229   7.953   1.030  0.00  0.00    -0.084 Cl
ENDBRANCH  24  26
ENDBRANCH  23  24
ENDBRANCH   6  23
TORSDOF 8
