REMARK  Name = ZINC45919086
REMARK  7 active torsions:
REMARK  status: ('A' for Active; 'I' for Inactive)
REMARK    1  A    between atoms: C_1  and  O_2
REMARK    2  A    between atoms: O_2  and  C_3
REMARK    3  A    between atoms: C_6  and  C_9
REMARK    4  A    between atoms: C_15  and  O_26
REMARK    5  A    between atoms: C_16  and  C_24
REMARK    6  A    between atoms: C_19  and  C_20
REMARK    7  A    between atoms: C_24  and  O_25
REMARK                            x       y       z     vdW  Elec       q    Type
REMARK                         _______ _______ _______ _____ _____    ______ ____
ROOT
ATOM      1  C   UNL     1      -4.990  -2.571   0.014  0.00  0.00    +0.076 A 
ATOM      2  C   UNL     1      -5.856  -2.538   1.209  0.00  0.00    +0.201 A 
ATOM      3  O   UNL     1      -5.678  -1.740   2.113  0.00  0.00    -0.286 OA
ATOM      4  C   UNL     1      -6.949  -3.528   1.242  0.00  0.00    +0.065 A 
ATOM      5  C   UNL     1      -7.671  -3.775   2.409  0.00  0.00    +0.019 A 
ATOM      6  C   UNL     1      -8.672  -4.704   2.401  0.00  0.00    +0.047 A 
ATOM      7  C   UNL     1      -8.971  -5.405   1.234  0.00  0.00    +0.126 A 
ATOM      8  C   UNL     1      -8.264  -5.169   0.068  0.00  0.00    +0.062 A 
ATOM      9  C   UNL     1      -7.245  -4.224   0.057  0.00  0.00    +0.148 A 
ATOM     10  O   UNL     1      -6.556  -3.971  -1.072  0.00  0.00    -0.449 OA
ATOM     11  C   UNL     1      -5.404  -3.296  -1.058  0.00  0.00    +0.219 A 
ENDROOT
BRANCH   1  15
ATOM     12  C   UNL     1      -1.312  -0.438  -0.078  0.00  0.00    +0.120 A 
ATOM     13  C   UNL     1      -2.411   0.047  -0.774  0.00  0.00    +0.046 A 
ATOM     14  C   UNL     1      -3.605  -0.642  -0.746  0.00  0.00    +0.012 A 
ATOM     15  C   UNL     1      -3.707  -1.827  -0.018  0.00  0.00    -0.010 A 
ATOM     16  C   UNL     1      -2.602  -2.311   0.678  0.00  0.00    +0.012 A 
ATOM     17  C   UNL     1      -1.409  -1.620   0.642  0.00  0.00    +0.046 A 
BRANCH  12  19
ATOM     18  C   UNL     1      -0.106   1.453  -0.869  0.00  0.00    +0.277 C 
ATOM     19  O   UNL     1      -0.136   0.244  -0.108  0.00  0.00    -0.495 OA
ENDBRANCH  12  19
ENDBRANCH   1  15
BRANCH  11  20
ATOM     20  C   UNL     1      -4.523  -3.347  -2.279  0.00  0.00    +0.451 C 
ATOM     21  F   UNL     1      -3.296  -2.737  -1.995  0.00  0.00    -0.163 F 
ATOM     22  F   UNL     1      -4.307  -4.680  -2.644  0.00  0.00    -0.163 F 
ATOM     23  F   UNL     1      -5.147  -2.670  -3.333  0.00  0.00    -0.163 F 
ENDBRANCH  11  20
BRANCH   7  24
ATOM     24  O   UNL     1      -9.966  -6.328   1.240  0.00  0.00    -0.506 OA
ATOM     25  H   UNL     1     -10.836  -5.971   1.016  0.00  0.00    +0.292 HD
ENDBRANCH   7  24
BRANCH   8  26
ATOM     26  C   UNL     1      -8.597  -5.935  -1.187  0.00  0.00    +0.198 C 
BRANCH  26  27
ATOM     27  O   UNL     1      -9.590  -5.224  -1.929  0.00  0.00    -0.390 OA
ATOM     28  H   UNL     1      -9.853  -5.660  -2.751  0.00  0.00    +0.210 HD
ENDBRANCH  26  27
ENDBRANCH   8  26
TORSDOF 6
