REMARK  Name = ZINC39847802
REMARK  12 active torsions:
REMARK  status: ('A' for Active; 'I' for Inactive)
REMARK    1  A    between atoms: C_1  and  C_2
REMARK    2  A    between atoms: C_2  and  C_3
REMARK    3  A    between atoms: C_2  and  C_4
REMARK    4  A    between atoms: C_7  and  C_10
REMARK    5  A    between atoms: C_12  and  C_26
REMARK    6  A    between atoms: N_16  and  C_17
REMARK    7  A    between atoms: C_17  and  C_18
REMARK    8  A    between atoms: C_18  and  C_19
REMARK    9  A    between atoms: C_19  and  N_20
REMARK   10  A    between atoms: C_26  and  C_28
REMARK   11  A    between atoms: C_33  and  O_38
REMARK   12  A    between atoms: O_38  and  C_39
REMARK                            x       y       z     vdW  Elec       q    Type
REMARK                         _______ _______ _______ _____ _____    ______ ____
ROOT
ATOM      1  C   UNL     1      -4.897  -1.680  -0.029  0.00  0.00    +0.145 C 
ATOM      2  C   UNL     1      -6.086  -1.073  -0.738  0.00  0.00    +0.076 C 
ATOM      3  C   UNL     1      -6.611  -2.045  -1.522  0.00  0.00    +0.249 C 
ATOM      4  C   UNL     1      -5.815  -3.280  -1.363  0.00  0.00    +0.288 C 
ATOM      5  O   UNL     1      -6.034  -4.329  -1.935  0.00  0.00    -0.266 OA
ATOM      6  N   UNL     1      -4.811  -3.071  -0.489  0.00  0.00    -0.283 N 
ATOM      7  O   UNL     1      -7.692  -1.906  -2.323  0.00  0.00    -0.282 OA
ENDROOT
BRANCH   1  11
ATOM      8  C   UNL     1      -1.332   0.432  -1.067  0.00  0.00    -0.045 A 
ATOM      9  C   UNL     1      -1.907   0.616   0.177  0.00  0.00    +0.004 A 
ATOM     10  C   UNL     1      -3.061  -0.068   0.513  0.00  0.00    +0.006 A 
ATOM     11  C   UNL     1      -3.640  -0.934  -0.396  0.00  0.00    -0.022 A 
ATOM     12  C   UNL     1      -3.066  -1.117  -1.639  0.00  0.00    +0.006 A 
ATOM     13  C   UNL     1      -1.914  -0.430  -1.977  0.00  0.00    +0.004 A 
BRANCH   8  15
ATOM     14  C   UNL     1      -0.333   2.683  -1.358  0.00  0.00    +0.012 C 
ATOM     15  C   UNL     1      -0.074   1.177  -1.433  0.00  0.00    +0.013 C 
ATOM     16  C   UNL     1       1.043   0.803  -0.456  0.00  0.00    +0.012 C 
ENDBRANCH   8  15
ENDBRANCH   1  11
BRANCH   2  17
ATOM     17  C   UNL     1      -6.577   0.301  -0.602  0.00  0.00    +0.195 C 
ATOM     18  O   UNL     1      -6.553   1.053  -1.559  0.00  0.00    -0.287 OA
BRANCH  17  19
ATOM     19  C   UNL     1      -7.100   0.774   0.695  0.00  0.00    +0.023 A 
ATOM     20  C   UNL     1      -7.230  -0.129   1.767  0.00  0.00    +0.012 A 
ATOM     21  C   UNL     1      -7.707   0.282   2.968  0.00  0.00    +0.009 A 
ATOM     22  C   UNL     1      -8.080   1.627   3.156  0.00  0.00    -0.014 A 
ATOM     23  C   UNL     1      -8.576   2.072   4.390  0.00  0.00    +0.054 A 
ATOM     24  C   UNL     1      -8.932   3.394   4.543  0.00  0.00    +0.121 A 
ATOM     25  C   UNL     1      -8.805   4.296   3.481  0.00  0.00    +0.046 A 
ATOM     26  C   UNL     1      -8.328   3.891   2.275  0.00  0.00    +0.012 A 
ATOM     27  C   UNL     1      -7.954   2.547   2.084  0.00  0.00    -0.017 A 
ATOM     28  C   UNL     1      -7.453   2.106   0.851  0.00  0.00    +0.020 A 
BRANCH  24  29
ATOM     29  O   UNL     1      -9.412   3.826   5.737  0.00  0.00    -0.495 OA
ATOM     30  C   UNL     1      -9.764   5.208   5.833  0.00  0.00    +0.277 C 
ENDBRANCH  24  29
ENDBRANCH  17  19
ENDBRANCH   2  17
BRANCH   6  31
ATOM     31  C   UNL     1      -3.810  -4.056  -0.073  0.00  0.00    +0.111 C 
BRANCH  31  32
ATOM     32  C   UNL     1      -4.318  -4.811   1.157  0.00  0.00    +0.040 C 
BRANCH  32  33
ATOM     33  C   UNL     1      -3.273  -5.840   1.593  0.00  0.00    +0.124 C 
BRANCH  33  34
ATOM     34  N   UNL     1      -3.759  -6.562   2.770  0.00  0.00    -0.338 N 
ATOM     35  C   UNL     1      -3.567  -6.208   4.078  0.00  0.00    +0.104 A 
ATOM     36  C   UNL     1      -4.178  -7.143   4.830  0.00  0.00    +0.101 A 
ATOM     37  N   UNL     1      -4.730  -8.044   4.004  0.00  0.00    -0.352 N 
ATOM     38  C   UNL     1      -4.487  -7.700   2.768  0.00  0.00    +0.173 A 
ATOM     39  H   UNL     1      -5.233  -8.826   4.280  0.00  0.00    +0.166 HD
ENDBRANCH  33  34
ENDBRANCH  32  33
ENDBRANCH  31  32
ENDBRANCH   6  31
TORSDOF 9
