REMARK  Name = ZINC17216024
REMARK  11 active torsions:
REMARK  status: ('A' for Active; 'I' for Inactive)
REMARK    1  A    between atoms: C_1  and  C_2
REMARK    2  A    between atoms: C_2  and  C_4
REMARK    3  A    between atoms: C_7  and  N_10
REMARK    4  A    between atoms: C_11  and  C_13
REMARK    5  A    between atoms: C_13  and  C_19
REMARK    6  A    between atoms: N_14  and  N_15
REMARK    7  A    between atoms: N_15  and  C_16
REMARK    8  A    between atoms: C_16  and  N_18
REMARK    9  A    between atoms: C_19  and  C_20
REMARK   10  A    between atoms: C_20  and  C_22
REMARK   11  A    between atoms: C_23  and  C_24
REMARK                            x       y       z     vdW  Elec       q    Type
REMARK                         _______ _______ _______ _____ _____    ______ ____
ROOT
ATOM      1  C   UNL     1       2.149  -2.198   2.221  0.00  0.00    +0.128 C 
ATOM      2  N   UNL     1       3.199  -2.345   2.977  0.00  0.00    -0.180 NA
ENDROOT
BRANCH   1   4
ATOM      3  N   UNL     1       0.099  -0.975   1.734  0.00  0.00    -0.280 N 
ATOM      4  C   UNL     1       1.252  -1.058   2.426  0.00  0.00    +0.264 C 
ATOM      5  O   UNL     1       1.547  -0.187   3.223  0.00  0.00    -0.268 OA
ATOM      6  H   UNL     1      -0.144  -1.736   0.977  0.00  0.00    +0.155 HD
BRANCH   3  10
ATOM      7  C   UNL     1      -2.536   2.155   2.453  0.00  0.00    +0.017 A 
ATOM      8  C   UNL     1      -3.024   0.903   2.060  0.00  0.00    +0.013 A 
ATOM      9  C   UNL     1      -2.154  -0.124   1.825  0.00  0.00    +0.024 A 
ATOM     10  C   UNL     1      -0.784   0.074   1.975  0.00  0.00    +0.034 A 
ATOM     11  C   UNL     1      -0.294   1.316   2.371  0.00  0.00    +0.024 A 
ATOM     12  C   UNL     1      -1.157   2.349   2.603  0.00  0.00    +0.013 A 
BRANCH   7  14
ATOM     13  C   UNL     1      -2.936   4.643   2.995  0.00  0.00    +0.091 C 
ATOM     14  C   UNL     1      -3.467   3.262   2.707  0.00  0.00    +0.160 C 
ATOM     15  O   UNL     1      -4.663   3.065   2.686  0.00  0.00    -0.292 OA
ENDBRANCH   7  14
ENDBRANCH   3  10
ENDBRANCH   1   4
BRANCH   2  16
ATOM     16  N   UNL     1       3.282  -1.665   4.199  0.00  0.00    -0.218 N 
ATOM     17  H   UNL     1       2.420  -1.091   4.569  0.00  0.00    +0.176 HD
BRANCH  16  18
ATOM     18  C   UNL     1       4.420  -1.713   4.921  0.00  0.00    +0.147 C 
ATOM     19  S   UNL     1       4.480  -0.991   6.472  0.00  0.00    -0.017 S 
BRANCH  18  20
ATOM     20  N   UNL     1       5.509  -2.330   4.421  0.00  0.00    -0.339 N 
ATOM     21  H   UNL     1       6.437  -2.369   5.010  0.00  0.00    +0.144 HD
ATOM     22  H   UNL     1       5.470  -2.794   3.425  0.00  0.00    +0.144 HD
ENDBRANCH  18  20
ENDBRANCH  16  18
ENDBRANCH   2  16
BRANCH   1  23
ATOM     23  C   UNL     1       1.857  -3.201   1.135  0.00  0.00    +0.141 C 
BRANCH  23  24
ATOM     24  C   UNL     1       3.003  -4.174   1.028  0.00  0.00    +0.162 C 
ATOM     25  O   UNL     1       3.912  -4.133   1.832  0.00  0.00    -0.292 OA
BRANCH  24  26
ATOM     26  C   UNL     1       3.021  -5.132  -0.007  0.00  0.00    +0.047 C 
ATOM     27  C   UNL     1       4.120  -5.898  -0.202  0.00  0.00    +0.011 C 
BRANCH  27  28
ATOM     28  C   UNL     1       5.382  -5.557   0.471  0.00  0.00    -0.025 A 
ATOM     29  C   UNL     1       5.841  -4.235   0.478  0.00  0.00    +0.008 A 
ATOM     30  C   UNL     1       7.022  -3.923   1.116  0.00  0.00    +0.001 A 
ATOM     31  C   UNL     1       7.760  -4.915   1.739  0.00  0.00    +0.000 A 
ATOM     32  C   UNL     1       7.315  -6.226   1.732  0.00  0.00    +0.001 A 
ATOM     33  C   UNL     1       6.133  -6.554   1.103  0.00  0.00    +0.008 A 
ENDBRANCH  27  28
ENDBRANCH  24  26
ENDBRANCH  23  24
ENDBRANCH   1  23
TORSDOF 10
