REMARK  Name = ZINC39711610
REMARK  8 active torsions:
REMARK  status: ('A' for Active; 'I' for Inactive)
REMARK    1  A    between atoms: C_1  and  O_2
REMARK    2  A    between atoms: O_2  and  C_3
REMARK    3  A    between atoms: C_3  and  C_4
REMARK    4  A    between atoms: C_4  and  N_5
REMARK    5  A    between atoms: C_6  and  C_10
REMARK    6  A    between atoms: C_10  and  C_12
REMARK    7  A    between atoms: C_10  and  N_27
REMARK    8  A    between atoms: N_30  and  C_33
REMARK                            x       y       z     vdW  Elec       q    Type
REMARK                         _______ _______ _______ _____ _____    ______ ____
ROOT
ATOM      1  C   UNL     1      -0.981  -2.741  -3.588  0.00  0.00    +0.142 C 
ENDROOT
BRANCH   1   2
ATOM      2  C   UNL     1      -1.204  -1.596  -4.578  0.00  0.00    +0.123 C 
ATOM      3  C   UNL     1      -0.615  -0.337  -3.973  0.00  0.00    -0.003 C 
ATOM      4  C   UNL     1      -1.450   0.722  -3.797  0.00  0.00    -0.003 A 
ATOM      5  C   UNL     1      -0.959   1.974  -3.219  0.00  0.00    +0.059 A 
ATOM      6  C   UNL     1      -1.819   3.013  -3.055  0.00  0.00    +0.167 A 
ATOM      7  C   UNL     1      -3.175   2.905  -3.434  0.00  0.00    +0.168 A 
ATOM      8  C   UNL     1      -3.686   1.748  -3.983  0.00  0.00    +0.073 A 
ATOM      9  C   UNL     1      -2.869   0.629  -4.186  0.00  0.00    +0.044 A 
ATOM     10  N   UNL     1      -3.384  -0.482  -4.720  0.00  0.00    -0.284 N 
ATOM     11  C   UNL     1      -2.673  -1.573  -4.937  0.00  0.00    +0.226 C 
ATOM     12  O   UNL     1      -3.198  -2.556  -5.425  0.00  0.00    -0.275 OA
ATOM     13  O   UNL     1      -3.789   4.091  -3.155  0.00  0.00    -0.453 OA
ATOM     14  C   UNL     1      -2.921   4.771  -2.231  0.00  0.00    +0.466 C 
ATOM     15  O   UNL     1      -1.612   4.265  -2.546  0.00  0.00    -0.453 OA
ATOM     16  H   UNL     1      -4.324  -0.488  -4.957  0.00  0.00    +0.155 HD
ENDBRANCH   1   2
BRANCH   1  17
ATOM     17  N   UNL     1      -1.450  -4.000  -4.181  0.00  0.00    -0.289 NA
ATOM     18  C   UNL     1      -0.633  -4.370  -5.345  0.00  0.00    +0.104 C 
ATOM     19  C   UNL     1      -1.261  -5.583  -6.040  0.00  0.00    +0.120 C 
ATOM     20  N   UNL     1      -1.445  -6.650  -5.044  0.00  0.00    -0.325 N 
ATOM     21  C   UNL     1      -2.136  -6.318  -3.789  0.00  0.00    +0.120 C 
ATOM     22  C   UNL     1      -1.474  -5.077  -3.182  0.00  0.00    +0.104 C 
BRANCH  20  23
ATOM     23  C   UNL     1      -0.975  -7.945  -5.285  0.00  0.00    +0.065 A 
ATOM     24  C   UNL     1       0.309  -8.303  -4.897  0.00  0.00    +0.026 A 
ATOM     25  C   UNL     1       0.770  -9.583  -5.135  0.00  0.00    +0.002 A 
ATOM     26  C   UNL     1      -0.045 -10.509  -5.760  0.00  0.00    +0.003 A 
ATOM     27  C   UNL     1      -1.324 -10.157  -6.149  0.00  0.00    +0.040 A 
ATOM     28  C   UNL     1      -1.795  -8.879  -5.909  0.00  0.00    +0.144 A 
ATOM     29  F   UNL     1      -3.047  -8.537  -6.283  0.00  0.00    -0.204 F 
ENDBRANCH  20  23
ENDBRANCH   1  17
BRANCH   1  31
ATOM     30  N   UNL     1       1.060  -2.729  -2.058  0.00  0.00    -0.225 N 
ATOM     31  C   UNL     1       0.488  -2.852  -3.271  0.00  0.00    +0.170 A 
ATOM     32  N   UNL     1       1.456  -3.087  -4.122  0.00  0.00    -0.112 NA
ATOM     33  N   UNL     1       2.566  -3.108  -3.466  0.00  0.00    -0.023 NA
ATOM     34  N   UNL     1       2.330  -2.886  -2.220  0.00  0.00    -0.044 NA
BRANCH  30  35
ATOM     35  C   UNL     1       0.370  -2.461  -0.794  0.00  0.00    +0.175 C 
BRANCH  35  36
ATOM     36  C   UNL     1       0.380  -0.956  -0.517  0.00  0.00    +0.183 C 
BRANCH  36  38
ATOM     37  C   UNL     1      -0.239   0.679   1.123  0.00  0.00    +0.194 C 
ATOM     38  O   UNL     1      -0.199  -0.704   0.765  0.00  0.00    -0.381 OA
ENDBRANCH  36  38
ENDBRANCH  35  36
ENDBRANCH  30  35
ENDBRANCH   1  31
TORSDOF 7
