REMARK  Name = ZINC12436968
REMARK  6 active torsions:
REMARK  status: ('A' for Active; 'I' for Inactive)
REMARK    1  A    between atoms: C_1  and  C_2
REMARK    2  A    between atoms: C_5  and  N_8
REMARK    3  A    between atoms: N_15  and  N_16
REMARK    4  A    between atoms: N_16  and  C_17
REMARK    5  A    between atoms: C_17  and  N_19
REMARK    6  A    between atoms: N_19  and  C_20
REMARK                            x       y       z     vdW  Elec       q    Type
REMARK                         _______ _______ _______ _____ _____    ______ ____
ROOT
ATOM      1  N   UNL     1       4.685   5.434   0.033  0.00  0.00    -0.248 N 
ATOM      2  C   UNL     1       3.528   6.040  -0.310  0.00  0.00    +0.264 A 
ATOM      3  O   UNL     1       3.506   7.228  -0.592  0.00  0.00    -0.267 OA
ATOM      4  C   UNL     1       2.354   5.277  -0.335  0.00  0.00    +0.050 A 
ATOM      5  C   UNL     1       2.424   3.930  -0.020  0.00  0.00    +0.084 A 
ATOM      6  N   UNL     1       3.595   3.387   0.333  0.00  0.00    -0.214 NA
ATOM      7  C   UNL     1       4.695   4.111   0.359  0.00  0.00    +0.220 A 
ATOM      8  N   UNL     1       5.877   3.520   0.723  0.00  0.00    -0.234 N 
ATOM      9  C   UNL     1       1.194   3.109  -0.083  0.00  0.00    +0.004 A 
ATOM     10  C   UNL     1       1.133   1.859   0.526  0.00  0.00    +0.010 A 
ATOM     11  C   UNL     1      -0.031   1.119   0.457  0.00  0.00    +0.001 A 
ATOM     12  C   UNL     1      -1.130   1.617  -0.221  0.00  0.00    +0.000 A 
ATOM     13  C   UNL     1      -1.072   2.857  -0.832  0.00  0.00    +0.004 A 
ATOM     14  C   UNL     1       0.088   3.602  -0.778  0.00  0.00    -0.037 A 
ATOM     15  C   UNL     1       0.175   4.925  -1.490  0.00  0.00    +0.047 C 
ATOM     16  C   UNL     1       1.036   5.907  -0.698  0.00  0.00    +0.007 C 
ATOM     17  C   UNL     1       0.299   6.309   0.583  0.00  0.00    +0.012 C 
ATOM     18  C   UNL     1      -1.038   6.957   0.219  0.00  0.00    +0.001 C 
ATOM     19  C   UNL     1      -0.787   8.204  -0.632  0.00  0.00    +0.000 C 
ATOM     20  C   UNL     1      -0.046   7.806  -1.911  0.00  0.00    +0.001 C 
ATOM     21  C   UNL     1       1.290   7.157  -1.546  0.00  0.00    +0.012 C 
ATOM     22  H   UNL     1       6.691   4.046   0.758  0.00  0.00    +0.173 HD
ENDROOT
BRANCH   1  27
ATOM     23  C   UNL     1       9.517   8.408   0.118  0.00  0.00    +0.044 C 
ATOM     24  C   UNL     1       8.234   7.618   0.096  0.00  0.00    -0.050 A 
ATOM     25  C   UNL     1       7.842   6.971  -1.062  0.00  0.00    +0.005 A 
ATOM     26  C   UNL     1       6.666   6.247  -1.086  0.00  0.00    +0.026 A 
ATOM     27  C   UNL     1       5.878   6.168   0.054  0.00  0.00    +0.053 A 
ATOM     28  C   UNL     1       6.272   6.822   1.214  0.00  0.00    +0.026 A 
ATOM     29  C   UNL     1       7.451   7.542   1.233  0.00  0.00    +0.005 A 
ENDBRANCH   1  27
BRANCH   8  30
ATOM     30  N   UNL     1       5.909   2.156   1.042  0.00  0.00    -0.246 N 
ATOM     31  H   UNL     1       5.094   1.630   1.007  0.00  0.00    +0.172 HD
BRANCH  30  32
ATOM     32  C   UNL     1       7.071   1.575   1.400  0.00  0.00    +0.147 C 
ATOM     33  S   UNL     1       7.110  -0.091   1.791  0.00  0.00    -0.017 S 
BRANCH  32  34
ATOM     34  N   UNL     1       8.202   2.305   1.450  0.00  0.00    -0.329 N 
ATOM     35  C   UNL     1       9.466   1.674   1.838  0.00  0.00    +0.127 C 
ATOM     36  H   UNL     1       8.180   3.250   1.228  0.00  0.00    +0.147 HD
ENDBRANCH  32  34
ENDBRANCH  30  32
ENDBRANCH   8  30
TORSDOF 4
