REMARK  Name = ZINC00653743
REMARK  4 active torsions:
REMARK  status: ('A' for Active; 'I' for Inactive)
REMARK    1  A    between atoms: N_9  and  O_27
REMARK    2  A    between atoms: C_10  and  C_13
REMARK    3  A    between atoms: N_17  and  C_18
REMARK    4  A    between atoms: C_22  and  N_24
REMARK                            x       y       z     vdW  Elec       q    Type
REMARK                         _______ _______ _______ _____ _____    ______ ____
ROOT
ATOM      1  C   UNL     1       1.786   7.705   0.871  0.00  0.00    +0.001 A 
ATOM      2  C   UNL     1       1.148   7.329   2.042  0.00  0.00    +0.002 A 
ATOM      3  C   UNL     1       0.030   6.517   2.004  0.00  0.00    +0.024 A 
ATOM      4  C   UNL     1      -0.456   6.079   0.785  0.00  0.00    +0.041 A 
ATOM      5  C   UNL     1       0.186   6.462  -0.406  0.00  0.00    +0.060 A 
ATOM      6  C   UNL     1       1.312   7.279  -0.353  0.00  0.00    +0.015 A 
ATOM      7  C   UNL     1      -0.363   5.978  -1.686  0.00  0.00    +0.273 C 
ATOM      8  O   UNL     1      -0.002   6.474  -2.736  0.00  0.00    -0.268 OA
ATOM      9  N   UNL     1      -1.271   4.981  -1.679  0.00  0.00    -0.153 N 
ATOM     10  C   UNL     1      -1.661   4.318  -0.434  0.00  0.00    +0.237 C 
ATOM     11  N   UNL     1      -1.574   5.258   0.690  0.00  0.00    -0.319 N 
ATOM     12  H   UNL     1      -2.281   5.304   1.353  0.00  0.00    +0.148 HD
ENDROOT
BRANCH  10  13
ATOM     13  C   UNL     1      -0.742   3.151  -0.182  0.00  0.00    +0.064 A 
ATOM     14  C   UNL     1       0.606   3.197  -0.151  0.00  0.00    +0.027 A 
ATOM     15  C   UNL     1       1.068   1.893   0.115  0.00  0.00    +0.020 A 
ATOM     16  C   UNL     1      -0.013   1.097   0.237  0.00  0.00    +0.091 A 
ATOM     17  N   UNL     1      -1.129   1.862   0.050  0.00  0.00    -0.317 N 
BRANCH  17  18
ATOM     18  C   UNL     1      -2.453   1.402   0.094  0.00  0.00    +0.049 A 
ATOM     19  C   UNL     1      -3.363   1.983   0.966  0.00  0.00    +0.026 A 
ATOM     20  C   UNL     1      -4.668   1.531   1.003  0.00  0.00    +0.004 A 
ATOM     21  C   UNL     1      -5.064   0.493   0.180  0.00  0.00    +0.033 A 
ATOM     22  C   UNL     1      -4.159  -0.092  -0.686  0.00  0.00    +0.128 A 
ATOM     23  C   UNL     1      -2.854   0.360  -0.731  0.00  0.00    +0.058 A 
BRANCH  22  24
ATOM     24  N   UNL     1      -4.588  -1.202  -1.565  0.00  0.00    +0.056 N 
ATOM     25  O   UNL     1      -3.790  -1.717  -2.329  0.00  0.00    -0.126 OA
ATOM     26  O   UNL     1      -5.738  -1.601  -1.526  0.00  0.00    -0.126 OA
ENDBRANCH  22  24
ENDBRANCH  17  18
ENDBRANCH  10  13
BRANCH   9  27
ATOM     27  O   UNL     1      -1.859   4.567  -2.900  0.00  0.00    -0.290 OA
ATOM     28  H   UNL     1      -1.545   5.057  -3.672  0.00  0.00    +0.242 HD
ENDBRANCH   9  27
TORSDOF 4
