REMARK  Name = ZINC02874094
REMARK  7 active torsions:
REMARK  status: ('A' for Active; 'I' for Inactive)
REMARK    1  A    between atoms: C_1  and  C_2
REMARK    2  A    between atoms: C_2  and  C_3
REMARK    3  A    between atoms: C_2  and  C_4
REMARK    4  A    between atoms: C_7  and  C_10
REMARK    5  A    between atoms: C_22  and  S_25
REMARK    6  A    between atoms: S_25  and  C_26
REMARK    7  A    between atoms: C_26  and  C_27
REMARK                            x       y       z     vdW  Elec       q    Type
REMARK                         _______ _______ _______ _____ _____    ______ ____
ROOT
ATOM      1  C   UNL     1      -3.270   3.732   1.291  0.00  0.00    +0.294 C 
ATOM      2  N   UNL     1      -2.405   3.749   0.128  0.00  0.00    -0.305 N 
ATOM      3  C   UNL     1      -1.211   3.021   0.153  0.00  0.00    +0.039 A 
ATOM      4  C   UNL     1       0.018   3.653   0.174  0.00  0.00    +0.024 A 
ATOM      5  C   UNL     1       1.178   2.901   0.228  0.00  0.00    +0.002 A 
ATOM      6  C   UNL     1       1.116   1.518   0.260  0.00  0.00    +0.001 A 
ATOM      7  C   UNL     1      -0.105   0.873   0.234  0.00  0.00    +0.012 A 
ATOM      8  C   UNL     1      -1.278   1.615   0.168  0.00  0.00    +0.028 A 
ATOM      9  C   UNL     1      -2.603   0.964   0.107  0.00  0.00    +0.156 A 
ATOM     10  C   UNL     1      -3.640   1.413   0.954  0.00  0.00    +0.248 A 
ATOM     11  N   UNL     1      -4.822   0.826   0.878  0.00  0.00    -0.184 NA
ATOM     12  C   UNL     1      -4.999  -0.170   0.014  0.00  0.00    +0.213 A 
ATOM     13  N   UNL     1      -4.009  -0.581  -0.769  0.00  0.00    -0.122 NA
ATOM     14  N   UNL     1      -2.843  -0.035  -0.729  0.00  0.00    -0.141 NA
ATOM     15  O   UNL     1      -3.408   2.422   1.827  0.00  0.00    -0.449 OA
ATOM     16  H   UNL     1      -2.657   4.257  -0.659  0.00  0.00    +0.150 HD
ENDROOT
BRANCH   1  20
ATOM     17  C   UNL     1      -1.603   6.291   4.278  0.00  0.00    -0.045 A 
ATOM     18  C   UNL     1      -1.519   6.641   2.943  0.00  0.00    +0.004 A 
ATOM     19  C   UNL     1      -2.058   5.813   1.976  0.00  0.00    +0.009 A 
ATOM     20  C   UNL     1      -2.682   4.635   2.344  0.00  0.00    +0.011 A 
ATOM     21  C   UNL     1      -2.770   4.288   3.679  0.00  0.00    +0.009 A 
ATOM     22  C   UNL     1      -2.227   5.113   4.646  0.00  0.00    +0.004 A 
BRANCH  17  24
ATOM     23  C   UNL     1      -2.120   7.644   6.291  0.00  0.00    +0.012 C 
ATOM     24  C   UNL     1      -1.016   7.194   5.332  0.00  0.00    +0.013 C 
ATOM     25  C   UNL     1       0.060   6.435   6.112  0.00  0.00    +0.012 C 
ENDBRANCH  17  24
ENDBRANCH   1  20
BRANCH  12  26
ATOM     26  S   UNL     1      -6.572  -0.957  -0.092  0.00  0.00    -0.080 S 
BRANCH  26  27
ATOM     27  C   UNL     1      -6.225  -2.180  -1.380  0.00  0.00    +0.104 C 
BRANCH  27  28
ATOM     28  C   UNL     1      -7.465  -2.994  -1.647  0.00  0.00    -0.023 C 
ATOM     29  C   UNL     1      -8.056  -2.925  -2.814  0.00  0.00    +0.005 C 
ENDBRANCH  27  28
ENDBRANCH  26  27
ENDBRANCH  12  26
TORSDOF 5
