REMARK  Name = ZINC04848559
REMARK  6 active torsions:
REMARK  status: ('A' for Active; 'I' for Inactive)
REMARK    1  A    between atoms: C_1  and  C_2
REMARK    2  A    between atoms: C_5  and  C_8
REMARK    3  A    between atoms: N_10  and  C_11
REMARK    4  A    between atoms: C_11  and  C_12
REMARK    5  A    between atoms: C_12  and  N_13
REMARK    6  A    between atoms: C_21  and  C_23
REMARK                            x       y       z     vdW  Elec       q    Type
REMARK                         _______ _______ _______ _____ _____    ______ ____
ROOT
ATOM      1  N   UNL     1      -0.491   4.228  -0.888  0.00  0.00    -0.327 N 
ATOM      2  C   UNL     1       0.876   4.426  -0.808  0.00  0.00    +0.131 A 
ATOM      3  C   UNL     1       1.786   3.348  -0.610  0.00  0.00    +0.051 A 
ATOM      4  C   UNL     1       1.460   1.939  -0.467  0.00  0.00    -0.025 A 
ATOM      5  C   UNL     1       2.499   1.091  -0.287  0.00  0.00    -0.004 A 
ATOM      6  S   UNL     1       3.948   2.117  -0.300  0.00  0.00    -0.073 S 
ATOM      7  C   UNL     1       3.164   3.677  -0.545  0.00  0.00    +0.114 A 
ATOM      8  N   UNL     1       3.620   4.909  -0.658  0.00  0.00    -0.225 NA
ATOM      9  C   UNL     1       2.719   5.866  -0.841  0.00  0.00    +0.129 A 
ATOM     10  N   UNL     1       1.423   5.636  -0.911  0.00  0.00    -0.217 NA
ATOM     11  C   UNL     1       3.201   7.288  -0.975  0.00  0.00    +0.088 C 
ATOM     12  C   UNL     1       2.437  -0.396  -0.116  0.00  0.00    +0.043 C 
ATOM     13  C   UNL     1       0.986  -0.790   0.197  0.00  0.00    +0.005 C 
ATOM     14  C   UNL     1       0.061  -0.089  -0.803  0.00  0.00    +0.005 C 
ATOM     15  C   UNL     1       0.028   1.412  -0.513  0.00  0.00    +0.037 C 
ATOM     16  H   UNL     1      -0.864   3.347  -0.726  0.00  0.00    +0.148 HD
ENDROOT
BRANCH   1  17
ATOM     17  C   UNL     1      -1.375   5.349  -1.217  0.00  0.00    +0.121 C 
BRANCH  17  18
ATOM     18  C   UNL     1      -2.826   4.864  -1.241  0.00  0.00    +0.123 C 
BRANCH  18  21
ATOM     19  C   UNL     1      -5.042   5.792  -1.648  0.00  0.00    +0.244 C 
ATOM     20  O   UNL     1      -5.509   4.688  -1.446  0.00  0.00    -0.270 OA
ATOM     21  N   UNL     1      -3.710   5.984  -1.570  0.00  0.00    -0.310 N 
ATOM     22  H   UNL     1      -3.337   6.865  -1.732  0.00  0.00    +0.149 HD
BRANCH  19  27
ATOM     23  C   UNL     1      -8.516  10.194  -2.939  0.00  0.00    +0.044 C 
ATOM     24  C   UNL     1      -7.606   9.041  -2.601  0.00  0.00    -0.050 A 
ATOM     25  C   UNL     1      -8.141   7.786  -2.372  0.00  0.00    +0.004 A 
ATOM     26  C   UNL     1      -7.314   6.726  -2.062  0.00  0.00    +0.013 A 
ATOM     27  C   UNL     1      -5.934   6.923  -1.980  0.00  0.00    +0.037 A 
ATOM     28  C   UNL     1      -5.401   8.192  -2.208  0.00  0.00    +0.013 A 
ATOM     29  C   UNL     1      -6.239   9.242  -2.521  0.00  0.00    +0.004 A 
ENDBRANCH  19  27
ENDBRANCH  18  21
ENDBRANCH  17  18
ENDBRANCH   1  17
TORSDOF 4
