REMARK  Name = ZINC05860390
REMARK  9 active torsions:
REMARK  status: ('A' for Active; 'I' for Inactive)
REMARK    1  A    between atoms: C_1  and  C_2
REMARK    2  A    between atoms: C_2  and  C_3
REMARK    3  A    between atoms: C_2  and  O_4
REMARK    4  A    between atoms: O_4  and  C_5
REMARK    5  A    between atoms: C_5  and  C_7
REMARK    6  A    between atoms: C_11  and  N_12
REMARK    7  A    between atoms: C_13  and  C_15
REMARK    8  A    between atoms: C_15  and  S_16
REMARK    9  A    between atoms: S_16  and  C_17
REMARK                            x       y       z     vdW  Elec       q    Type
REMARK                         _______ _______ _______ _____ _____    ______ ____
ROOT
ATOM      1  C   UNL     1      -0.558   0.998   2.576  0.00  0.00    +0.091 A 
ATOM      2  C   UNL     1      -0.732   1.580   1.257  0.00  0.00    -0.021 A 
ATOM      3  C   UNL     1      -1.601   2.614   1.194  0.00  0.00    -0.004 A 
ATOM      4  S   UNL     1      -2.178   2.821   2.855  0.00  0.00    -0.077 S 
ATOM      5  C   UNL     1      -1.283   1.552   3.623  0.00  0.00    +0.086 A 
ATOM      6  C   UNL     1      -1.979   3.405  -0.021  0.00  0.00    +0.043 C 
ATOM      7  C   UNL     1      -0.956   3.111  -1.127  0.00  0.00    +0.005 C 
ATOM      8  C   UNL     1      -0.758   1.595  -1.227  0.00  0.00    +0.005 C 
ATOM      9  C   UNL     1      -0.013   1.086   0.008  0.00  0.00    +0.037 C 
ENDROOT
BRANCH   5  10
ATOM     10  N   UNL     1      -1.289   1.180   4.958  0.00  0.00    -0.279 N 
ATOM     11  C   UNL     1      -2.065   1.842   5.838  0.00  0.00    +0.228 C 
ATOM     12  O   UNL     1      -2.759   2.763   5.463  0.00  0.00    -0.275 OA
ATOM     13  H   UNL     1      -0.734   0.443   5.258  0.00  0.00    +0.155 HD
BRANCH  11  14
ATOM     14  C   UNL     1      -2.072   1.437   7.290  0.00  0.00    +0.173 C 
BRANCH  14  15
ATOM     15  S   UNL     1      -3.208   2.510   8.212  0.00  0.00    -0.075 S 
BRANCH  15  16
ATOM     16  C   UNL     1      -3.104   1.917   9.868  0.00  0.00    +0.210 A 
ATOM     17  N   UNL     1      -3.773   2.414  10.915  0.00  0.00    -0.188 NA
ATOM     18  C   UNL     1      -3.465   1.736  11.999  0.00  0.00    +0.209 A 
ATOM     19  N   UNL     1      -2.571   0.784  11.656  0.00  0.00    -0.246 N 
ATOM     20  H   UNL     1      -2.159   0.134  12.247  0.00  0.00    +0.192 HD
ATOM     21  N   UNL     1      -2.354   0.921  10.276  0.00  0.00    -0.144 NA
ATOM     22  N   UNL     1      -3.964   1.962  13.269  0.00  0.00    -0.328 N 
ATOM     23  H   UNL     1      -3.672   1.409  14.011  0.00  0.00    +0.145 HD
ATOM     24  H   UNL     1      -4.606   2.673  13.418  0.00  0.00    +0.145 HD
ENDBRANCH  15  16
ENDBRANCH  14  15
ENDBRANCH  11  14
ENDBRANCH   5  10
BRANCH   1  25
ATOM     25  C   UNL     1       0.350  -0.130   2.793  0.00  0.00    +0.342 C 
ATOM     26  O   UNL     1      -0.061  -1.270   2.694  0.00  0.00    -0.245 OA
BRANCH  25  27
ATOM     27  O   UNL     1       1.643   0.096   3.104  0.00  0.00    -0.458 OA
BRANCH  27  29
ATOM     28  C   UNL     1       3.119  -1.477   1.975  0.00  0.00    +0.052 C 
ATOM     29  C   UNL     1       2.486  -1.069   3.306  0.00  0.00    +0.171 C 
ATOM     30  C   UNL     1       3.588  -0.733   4.313  0.00  0.00    +0.052 C 
ENDBRANCH  27  29
ENDBRANCH  25  27
ENDBRANCH   1  25
TORSDOF 7
