REMARK  Name = ZINC05871314
REMARK  8 active torsions:
REMARK  status: ('A' for Active; 'I' for Inactive)
REMARK    1  A    between atoms: C_1  and  C_2
REMARK    2  A    between atoms: C_2  and  C_3
REMARK    3  A    between atoms: C_2  and  C_4
REMARK    4  A    between atoms: C_2  and  N_5
REMARK    5  A    between atoms: C_9  and  C_11
REMARK    6  A    between atoms: C_11  and  O_12
REMARK    7  A    between atoms: O_12  and  C_13
REMARK    8  A    between atoms: C_18  and  C_19
REMARK                            x       y       z     vdW  Elec       q    Type
REMARK                         _______ _______ _______ _____ _____    ______ ____
ROOT
ATOM      1  N   UNL     1       5.360  -4.021  -0.073  0.00  0.00    -0.294 N 
ATOM      2  C   UNL     1       5.163  -2.688  -0.064  0.00  0.00    +0.306 C 
ATOM      3  O   UNL     1       6.115  -1.932  -0.069  0.00  0.00    -0.252 OA
ATOM      4  N   UNL     1       3.909  -2.192  -0.049  0.00  0.00    -0.237 N 
ATOM      5  C   UNL     1       3.712  -0.858  -0.039  0.00  0.00    +0.258 C 
ATOM      6  O   UNL     1       4.662  -0.105  -0.044  0.00  0.00    -0.272 OA
ATOM      7  H   UNL     1       4.599  -4.623  -0.070  0.00  0.00    +0.151 HD
ATOM      8  H   UNL     1       3.149  -2.794  -0.045  0.00  0.00    +0.159 HD
ENDROOT
BRANCH   1  10
ATOM      9  C   UNL     1       7.473  -4.084   1.155  0.00  0.00    +0.031 C 
ATOM     10  C   UNL     1       6.722  -4.560  -0.090  0.00  0.00    +0.028 C 
ATOM     11  C   UNL     1       6.665  -6.089  -0.098  0.00  0.00    +0.031 C 
ATOM     12  C   UNL     1       7.449  -4.070  -1.343  0.00  0.00    +0.031 C 
ENDBRANCH   1  10
BRANCH   5  13
ATOM     13  C   UNL     1       2.311  -0.304  -0.022  0.00  0.00    +0.325 C 
BRANCH  13  14
ATOM     14  O   UNL     1       2.364   1.124  -0.015  0.00  0.00    -0.482 OA
BRANCH  14  15
ATOM     15  C   UNL     1       1.180   1.784   0.000  0.00  0.00    +0.131 A 
ATOM     16  C   UNL     1      -0.013   1.076   0.008  0.00  0.00    +0.047 A 
ATOM     17  C   UNL     1      -1.218   1.748   0.017  0.00  0.00    +0.019 A 
ATOM     18  C   UNL     1      -1.249   3.135   0.031  0.00  0.00    +0.019 A 
ATOM     19  C   UNL     1      -0.076   3.857   0.024  0.00  0.00    +0.030 A 
ATOM     20  C   UNL     1       1.154   3.188   0.008  0.00  0.00    +0.057 A 
ATOM     21 BR   UNL     1      -2.910   4.039   0.051  0.00  0.00    -0.050 Br
BRANCH  20  22
ATOM     22  C   UNL     1       2.409   3.950  -0.000  0.00  0.00    +0.262 C 
ATOM     23  O   UNL     1       2.382   5.163   0.007  0.00  0.00    -0.296 OA
ENDBRANCH  20  22
ENDBRANCH  14  15
ENDBRANCH  13  14
ENDBRANCH   5  13
TORSDOF 5
