REMARK  Name = ZINC54201567
REMARK  7 active torsions:
REMARK  status: ('A' for Active; 'I' for Inactive)
REMARK    1  A    between atoms: C_1  and  N_2
REMARK    2  A    between atoms: N_2  and  C_3
REMARK    3  A    between atoms: N_2  and  C_4
REMARK    4  A    between atoms: C_7  and  C_10
REMARK    5  A    between atoms: C_13  and  C_30
REMARK    6  A    between atoms: C_21  and  C_22
REMARK    7  A    between atoms: C_27  and  O_28
REMARK                            x       y       z     vdW  Elec       q    Type
REMARK                         _______ _______ _______ _____ _____    ______ ____
ROOT
ATOM      1  C   UNL     1      -5.104  -3.510  -0.159  0.00  0.00    +0.136 C 
ATOM      2  C   UNL     1      -5.764  -3.657   1.227  0.00  0.00    +0.087 C 
ATOM      3  C   UNL     1      -7.077  -2.922   1.085  0.00  0.00    +0.069 C 
ATOM      4  N   UNL     1      -7.178  -2.446  -0.108  0.00  0.00    -0.182 NA
ATOM      5  N   UNL     1      -6.084  -2.727  -0.930  0.00  0.00    -0.195 N 
ATOM      6  C   UNL     1      -5.943  -2.340  -2.236  0.00  0.00    +0.174 C 
ATOM      7  N   UNL     1      -4.935  -2.580  -3.061  0.00  0.00    -0.152 NA
ATOM      8  C   UNL     1      -4.921  -2.148  -4.302  0.00  0.00    +0.276 C 
ATOM      9  O   UNL     1      -3.986  -2.377  -5.053  0.00  0.00    -0.267 OA
ATOM     10  C   UNL     1      -6.103  -1.369  -4.740  0.00  0.00    +0.080 C 
ATOM     11  C   UNL     1      -6.373  -0.801  -5.943  0.00  0.00    +0.032 C 
ATOM     12  S   UNL     1      -7.077  -1.394  -3.241  0.00  0.00    -0.050 S 
ENDROOT
BRANCH   1  16
ATOM     13  C   UNL     1      -1.403  -1.395   0.154  0.00  0.00    +0.029 A 
ATOM     14  C   UNL     1      -1.406  -2.777   0.015  0.00  0.00    +0.023 A 
ATOM     15  C   UNL     1      -2.603  -3.457  -0.085  0.00  0.00    +0.007 A 
ATOM     16  C   UNL     1      -3.799  -2.764  -0.048  0.00  0.00    -0.025 A 
ATOM     17  C   UNL     1      -3.800  -1.388   0.090  0.00  0.00    +0.007 A 
ATOM     18  C   UNL     1      -2.607  -0.702   0.196  0.00  0.00    +0.023 A 
BRANCH  13  20
ATOM     19  C   UNL     1      -0.193   0.753   0.408  0.00  0.00    +0.129 C 
ATOM     20  N   UNL     1      -0.194  -0.704   0.256  0.00  0.00    -0.336 N 
ATOM     21  C   UNL     1       1.074  -1.436   0.211  0.00  0.00    +0.129 C 
ENDBRANCH  13  20
ENDBRANCH   1  16
BRANCH  11  22
ATOM     22  C   UNL     1      -7.691  -0.208  -6.196  0.00  0.00    +0.018 A 
ATOM     23  C   UNL     1      -8.781  -0.541  -5.383  0.00  0.00    +0.011 A 
ATOM     24  C   UNL     1     -10.015   0.020  -5.626  0.00  0.00    +0.001 A 
ATOM     25  C   UNL     1     -10.184   0.913  -6.672  0.00  0.00    +0.004 A 
ATOM     26  C   UNL     1      -9.118   1.252  -7.482  0.00  0.00    +0.046 A 
ATOM     27  C   UNL     1      -7.866   0.703  -7.250  0.00  0.00    +0.124 A 
BRANCH  27  28
ATOM     28  O   UNL     1      -6.817   1.040  -8.042  0.00  0.00    -0.506 OA
ATOM     29  H   UNL     1      -6.709   0.470  -8.816  0.00  0.00    +0.292 HD
ENDBRANCH  27  28
ENDBRANCH  11  22
BRANCH   3  30
ATOM     30  C   UNL     1      -8.088  -2.772   2.148  0.00  0.00    -0.002 A 
ATOM     31  C   UNL     1      -7.867  -3.329   3.410  0.00  0.00    +0.010 A 
ATOM     32  C   UNL     1      -8.817  -3.186   4.400  0.00  0.00    +0.001 A 
ATOM     33  C   UNL     1      -9.987  -2.493   4.145  0.00  0.00    +0.000 A 
ATOM     34  C   UNL     1     -10.213  -1.939   2.897  0.00  0.00    +0.001 A 
ATOM     35  C   UNL     1      -9.269  -2.068   1.900  0.00  0.00    +0.010 A 
ENDBRANCH   3  30
TORSDOF 5
