REMARK  Name = ZINC34930078
REMARK  7 active torsions:
REMARK  status: ('A' for Active; 'I' for Inactive)
REMARK    1  A    between atoms: C_4  and  C_7
REMARK    2  A    between atoms: C_7  and  C_8
REMARK    3  A    between atoms: C_8  and  C_10
REMARK    4  A    between atoms: C_8  and  N_22
REMARK    5  A    between atoms: N_12  and  C_13
REMARK    6  A    between atoms: C_23  and  C_25
REMARK    7  A    between atoms: C_26  and  C_27
REMARK                            x       y       z     vdW  Elec       q    Type
REMARK                         _______ _______ _______ _____ _____    ______ ____
ROOT
ATOM      1  C   UNL     1       4.171  -0.963   1.399  0.00  0.00    +0.163 C 
ENDROOT
BRANCH   1   2
ATOM      2  C   UNL     1       5.422  -1.804   1.383  0.00  0.00    +0.234 C 
ATOM      3  O   UNL     1       6.446  -1.378   1.874  0.00  0.00    -0.274 OA
ATOM      4  N   UNL     1       5.402  -3.031   0.824  0.00  0.00    -0.302 N 
ATOM      5  H   UNL     1       4.583  -3.372   0.432  0.00  0.00    +0.150 HD
BRANCH   4   6
ATOM      6  C   UNL     1       6.617  -3.849   0.809  0.00  0.00    +0.159 C 
ATOM      7  C   UNL     1       6.240  -5.329   0.713  0.00  0.00    +0.032 C 
ATOM      8  C   UNL     1       7.342  -6.203   1.284  0.00  0.00    +0.004 C 
ATOM      9  C   UNL     1       8.627  -6.173   0.477  0.00  0.00    +0.019 C 
ATOM     10  C   UNL     1       9.284  -4.794   0.548  0.00  0.00    +0.104 C 
ATOM     11  N   UNL     1       8.708  -3.942  -0.505  0.00  0.00    -0.314 N 
ATOM     12  C   UNL     1       7.461  -3.484  -0.394  0.00  0.00    +0.233 C 
ATOM     13  O   UNL     1       6.999  -2.776  -1.264  0.00  0.00    -0.274 OA
ATOM     14  H   UNL     1       9.240  -3.710  -1.282  0.00  0.00    +0.149 HD
ENDBRANCH   4   6
ENDBRANCH   1   2
BRANCH   1  15
ATOM     15  N   UNL     1       4.451   0.315   2.057  0.00  0.00    -0.300 N 
ATOM     16  C   UNL     1       3.451   1.007   2.638  0.00  0.00    +0.238 C 
ATOM     17  O   UNL     1       2.316   0.570   2.616  0.00  0.00    -0.271 OA
ATOM     18  H   UNL     1       5.356   0.664   2.075  0.00  0.00    +0.150 HD
BRANCH  16  19
ATOM     19  C   UNL     1       3.731   2.285   3.296  0.00  0.00    +0.068 C 
ATOM     20  C   UNL     1       2.730   2.977   3.877  0.00  0.00    +0.013 C 
BRANCH  20  21
ATOM     21  C   UNL     1       3.011   4.261   4.539  0.00  0.00    -0.025 A 
ATOM     22  C   UNL     1       4.314   4.770   4.562  0.00  0.00    +0.008 A 
ATOM     23  C   UNL     1       4.569   5.974   5.184  0.00  0.00    +0.001 A 
ATOM     24  C   UNL     1       3.540   6.679   5.784  0.00  0.00    +0.000 A 
ATOM     25  C   UNL     1       2.248   6.182   5.766  0.00  0.00    +0.001 A 
ATOM     26  C   UNL     1       1.976   4.982   5.143  0.00  0.00    +0.008 A 
ENDBRANCH  20  21
ENDBRANCH  16  19
ENDBRANCH   1  15
BRANCH   1  27
ATOM     27  C   UNL     1       3.711  -0.707  -0.038  0.00  0.00    +0.067 C 
BRANCH  27  31
ATOM     28  C   UNL     1      -0.017   1.378   0.010  0.00  0.00    +0.000 A 
ATOM     29  C   UNL     1       1.171   2.086   0.002  0.00  0.00    +0.000 A 
ATOM     30  C   UNL     1       2.377   1.411  -0.013  0.00  0.00    +0.004 A 
ATOM     31  C   UNL     1       2.396   0.029  -0.020  0.00  0.00    -0.045 A 
ATOM     32  C   UNL     1       1.208  -0.679  -0.012  0.00  0.00    +0.004 A 
ATOM     33  C   UNL     1       0.002  -0.004   0.002  0.00  0.00    +0.000 A 
ENDBRANCH  27  31
ENDBRANCH   1  27
TORSDOF 7
