REMARK  Name = ZINC39436027
REMARK  12 active torsions:
REMARK  status: ('A' for Active; 'I' for Inactive)
REMARK    1  A    between atoms: C_1  and  C_2
REMARK    2  A    between atoms: C_6  and  C_12
REMARK    3  A    between atoms: C_10  and  C_11
REMARK    4  A    between atoms: C_12  and  C_29
REMARK    5  A    between atoms: C_13  and  C_14
REMARK    6  A    between atoms: C_16  and  O_27
REMARK    7  A    between atoms: C_17  and  O_21
REMARK    8  A    between atoms: O_21  and  C_22
REMARK    9  A    between atoms: C_22  and  C_23
REMARK   10  A    between atoms: C_23  and  O_25
REMARK   11  A    between atoms: O_25  and  C_26
REMARK   12  A    between atoms: O_27  and  C_28
REMARK                            x       y       z     vdW  Elec       q    Type
REMARK                         _______ _______ _______ _____ _____    ______ ____
ROOT
ATOM      1  C   UNL     1      -1.166  -5.115  -1.956  0.00  0.00    +0.072 C 
ATOM      2  C   UNL     1      -1.043  -6.249  -2.678  0.00  0.00    +0.026 C 
ENDROOT
BRANCH   1   8
ATOM      3  C   UNL     1      -0.409   1.565  -0.051  0.00  0.00    +0.044 C 
ATOM      4  C   UNL     1      -0.214   0.072  -0.103  0.00  0.00    -0.045 A 
ATOM      5  C   UNL     1      -0.378  -0.562  -1.282  0.00  0.00    +0.031 A 
ATOM      6  C   UNL     1      -0.192  -2.018  -1.354  0.00  0.00    +0.061 A 
ATOM      7  N   UNL     1      -0.281  -2.874  -2.330  0.00  0.00    -0.359 N 
ATOM      8  C   UNL     1       0.019  -4.202  -1.780  0.00  0.00    +0.216 C 
ATOM      9  N   UNL     1       0.297  -4.005  -0.352  0.00  0.00    -0.359 N 
ATOM     10  C   UNL     1       0.175  -2.734  -0.101  0.00  0.00    +0.061 A 
ATOM     11  C   UNL     1       0.326  -1.938   1.124  0.00  0.00    +0.031 A 
ATOM     12  C   UNL     1       0.137  -0.604   1.079  0.00  0.00    -0.045 A 
ATOM     13  C   UNL     1       0.303   0.194   2.347  0.00  0.00    +0.044 C 
ATOM     14  H   UNL     1      -0.506  -2.672  -3.252  0.00  0.00    +0.162 HD
ATOM     15  H   UNL     1       0.529  -4.697   0.288  0.00  0.00    +0.162 HD
ENDBRANCH   1   8
BRANCH   2  16
ATOM     16  C   UNL     1      -2.233  -7.058  -2.984  0.00  0.00    -0.019 A 
ATOM     17  C   UNL     1      -3.450  -6.433  -3.278  0.00  0.00    +0.057 A 
ATOM     18  C   UNL     1      -4.563  -7.197  -3.565  0.00  0.00    +0.163 A 
ATOM     19  C   UNL     1      -4.474  -8.589  -3.562  0.00  0.00    +0.176 A 
ATOM     20  C   UNL     1      -3.267  -9.210  -3.271  0.00  0.00    +0.059 A 
ATOM     21  C   UNL     1      -2.149  -8.454  -2.989  0.00  0.00    +0.026 A 
ATOM     22  I   UNL     1      -3.142 -11.301  -3.268  0.00  0.00    -0.040 I 
BRANCH  18  23
ATOM     23  O   UNL     1      -5.748  -6.593  -3.851  0.00  0.00    -0.491 OA
ATOM     24  C   UNL     1      -5.767  -5.164  -3.836  0.00  0.00    +0.277 C 
ENDBRANCH  18  23
BRANCH  19  25
ATOM     25  O   UNL     1      -5.571  -9.339  -3.845  0.00  0.00    -0.476 OA
BRANCH  25  26
ATOM     26  C   UNL     1      -5.788  -9.680  -5.215  0.00  0.00    +0.349 C 
BRANCH  26  27
ATOM     27  C   UNL     1      -7.042 -10.507  -5.334  0.00  0.00    +0.345 C 
ATOM     28  O   UNL     1      -7.684 -10.777  -4.346  0.00  0.00    -0.247 OA
BRANCH  27  29
ATOM     29  O   UNL     1      -7.447 -10.944  -6.537  0.00  0.00    -0.466 OA
ATOM     30  C   UNL     1      -8.644 -11.723  -6.576  0.00  0.00    +0.280 C 
ENDBRANCH  27  29
ENDBRANCH  26  27
ENDBRANCH  25  26
ENDBRANCH  19  25
ENDBRANCH   2  16
BRANCH   1  31
ATOM     31  C   UNL     1      -2.423  -4.780  -1.358  0.00  0.00    +0.099 C 
ATOM     32  N   UNL     1      -3.420  -4.514  -0.883  0.00  0.00    -0.191 NA
ENDBRANCH   1  31
TORSDOF 8
