REMARK  Name = ZINC40869648
REMARK  7 active torsions:
REMARK  status: ('A' for Active; 'I' for Inactive)
REMARK    1  A    between atoms: C_1  and  C_2
REMARK    2  A    between atoms: C_2  and  C_3
REMARK    3  A    between atoms: C_2  and  C_4
REMARK    4  A    between atoms: C_4  and  N_5
REMARK    5  A    between atoms: C_6  and  C_8
REMARK    6  A    between atoms: C_8  and  O_9
REMARK    7  A    between atoms: O_9  and  C_10
REMARK                            x       y       z     vdW  Elec       q    Type
REMARK                         _______ _______ _______ _____ _____    ______ ____
ROOT
ATOM      1  C   UNL     1       6.393  -0.165  -3.460  0.00  0.00    +0.161 A 
ATOM      2  C   UNL     1       6.791   1.014  -4.073  0.00  0.00    +0.104 A 
ATOM      3  C   UNL     1       8.137   1.314  -4.188  0.00  0.00    +0.083 A 
ATOM      4  C   UNL     1       9.087   0.437  -3.691  0.00  0.00    +0.081 A 
ATOM      5  C   UNL     1       8.692  -0.740  -3.079  0.00  0.00    +0.083 A 
ATOM      6  C   UNL     1       7.346  -1.040  -2.958  0.00  0.00    +0.104 A 
ATOM      7 CL   UNL     1       6.851  -2.513  -2.185  0.00  0.00    -0.078 Cl
ATOM      8 CL   UNL     1       9.885  -1.837  -2.458  0.00  0.00    -0.080 Cl
ATOM      9 CL   UNL     1      10.775   0.815  -3.837  0.00  0.00    -0.080 Cl
ATOM     10 CL   UNL     1       8.636   2.789  -4.955  0.00  0.00    -0.080 Cl
ATOM     11 CL   UNL     1       5.601   2.114  -4.697  0.00  0.00    -0.078 Cl
ENDROOT
BRANCH   1  12
ATOM     12  O   UNL     1       5.071  -0.461  -3.346  0.00  0.00    -0.480 OA
BRANCH  12  13
ATOM     13  C   UNL     1       4.402   0.000  -2.171  0.00  0.00    +0.324 C 
BRANCH  13  15
ATOM     14  N   UNL     1       2.125  -0.091  -1.209  0.00  0.00    -0.312 N 
ATOM     15  C   UNL     1       2.955  -0.418  -2.220  0.00  0.00    +0.251 C 
ATOM     16  O   UNL     1       2.538  -1.048  -3.168  0.00  0.00    -0.272 OA
ATOM     17  H   UNL     1       2.459   0.413  -0.451  0.00  0.00    +0.149 HD
BRANCH  14  18
ATOM     18  C   UNL     1       0.718  -0.497  -1.257  0.00  0.00    +0.107 C 
BRANCH  18  20
ATOM     19  C   UNL     1      -0.019   1.526   0.010  0.00  0.00    +0.009 C 
ATOM     20  C   UNL     1       0.002  -0.004   0.002  0.00  0.00    -0.000 C 
ATOM     21  C   UNL     1      -1.433  -0.534   0.013  0.00  0.00    +0.009 C 
ENDBRANCH  18  20
ENDBRANCH  14  18
ENDBRANCH  13  15
ENDBRANCH  12  13
ENDBRANCH   1  12
TORSDOF 5
