REMARK  Name = ZINC63065599
REMARK  7 active torsions:
REMARK  status: ('A' for Active; 'I' for Inactive)
REMARK    1  A    between atoms: C_1  and  C_2
REMARK    2  A    between atoms: C_2  and  C_4
REMARK    3  A    between atoms: C_2  and  N_16
REMARK    4  A    between atoms: N_6  and  C_7
REMARK    5  A    between atoms: C_8  and  N_15
REMARK    6  A    between atoms: C_20  and  C_21
REMARK    7  A    between atoms: C_20  and  C_22
REMARK                            x       y       z     vdW  Elec       q    Type
REMARK                         _______ _______ _______ _____ _____    ______ ____
ROOT
ATOM      1  C   UNL     1      -1.015  -0.391  -0.285  0.00  0.00    +0.204 C 
ATOM      2  O   UNL     1      -1.446  -1.282   0.415  0.00  0.00    -0.277 OA
ATOM      3  N   UNL     1      -1.835   0.592  -0.707  0.00  0.00    -0.284 N 
ATOM      4  H   UNL     1      -1.494   1.294  -1.283  0.00  0.00    +0.155 HD
ENDROOT
BRANCH   3   5
ATOM      5  C   UNL     1      -3.181   0.599  -0.313  0.00  0.00    +0.073 A 
ATOM      6  C   UNL     1      -4.181   0.867  -1.248  0.00  0.00    +0.049 A 
ATOM      7  C   UNL     1      -5.511   0.872  -0.853  0.00  0.00    +0.044 A 
ATOM      8  C   UNL     1      -5.842   0.612   0.465  0.00  0.00    +0.044 A 
ATOM      9  C   UNL     1      -4.850   0.346   1.392  0.00  0.00    +0.042 A 
ATOM     10  C   UNL     1      -3.522   0.334   1.005  0.00  0.00    +0.065 A 
ATOM     11 CL   UNL     1      -2.281  -0.007   2.170  0.00  0.00    -0.082 Cl
ATOM     12 CL   UNL     1      -7.507   0.619   0.957  0.00  0.00    -0.083 Cl
BRANCH   6  13
ATOM     13  N   UNL     1      -3.844   1.130  -2.580  0.00  0.00    -0.356 N 
ATOM     14  H   UNL     1      -2.914   1.126  -2.854  0.00  0.00    +0.142 HD
ATOM     15  H   UNL     1      -4.541   1.316  -3.228  0.00  0.00    +0.142 HD
ENDBRANCH   6  13
ENDBRANCH   3   5
BRANCH   1  17
ATOM     16  C   UNL     1       1.267   0.268   0.428  0.00  0.00    -0.004 C 
ATOM     17  C   UNL     1       0.439  -0.382  -0.682  0.00  0.00    +0.017 C 
BRANCH  17  18
ATOM     18  N   UNL     1       0.898  -1.762  -0.892  0.00  0.00    +0.391 N 
ATOM     19  C   UNL     1       2.372  -1.784  -1.006  0.00  0.00    -0.077 C 
ATOM     20  C   UNL     1       2.670  -2.880  -2.060  0.00  0.00    -0.020 C 
ATOM     21  C   UNL     1       1.500  -2.681  -3.059  0.00  0.00    -0.014 C 
ATOM     22  C   UNL     1       0.322  -2.292  -2.141  0.00  0.00    -0.070 C 
ATOM     23  C   UNL     1      -0.532  -3.525  -1.838  0.00  0.00    -0.010 C 
ATOM     24  C   UNL     1      -0.532  -1.218  -2.818  0.00  0.00    -0.010 C 
ATOM     25  H   UNL     1       0.611  -2.337  -0.114  0.00  0.00    -0.080 HD
ENDBRANCH  17  18
ENDBRANCH   1  17
TORSDOF 4
