REMARK  Name = ZINC38775594
REMARK  10 active torsions:
REMARK  status: ('A' for Active; 'I' for Inactive)
REMARK    1  A    between atoms: C_1  and  C_2
REMARK    2  A    between atoms: C_3  and  O_25
REMARK    3  A    between atoms: C_4  and  C_8
REMARK    4  A    between atoms: C_11  and  O_15
REMARK    5  A    between atoms: C_13  and  O_14
REMARK    6  A    between atoms: O_15  and  C_16
REMARK    7  A    between atoms: C_16  and  C_17
REMARK    8  A    between atoms: O_25  and  C_26
REMARK    9  A    between atoms: C_31  and  O_32
REMARK   10  A    between atoms: O_32  and  C_33
REMARK                            x       y       z     vdW  Elec       q    Type
REMARK                         _______ _______ _______ _____ _____    ______ ____
ROOT
ATOM      1  C   UNL     1      -1.207  -2.841   1.867  0.00  0.00    +0.025 A 
ATOM      2  C   UNL     1      -0.303  -2.782   2.911  0.00  0.00    +0.013 A 
ATOM      3  C   UNL     1      -0.686  -3.168   4.181  0.00  0.00    +0.046 A 
ATOM      4  C   UNL     1      -1.979  -3.617   4.411  0.00  0.00    +0.124 A 
ATOM      5  C   UNL     1      -2.887  -3.677   3.366  0.00  0.00    +0.091 A 
ATOM      6  C   UNL     1      -2.502  -3.283   2.093  0.00  0.00    +0.126 A 
ENDROOT
BRANCH   1  10
ATOM      7  C   UNL     1       0.218   1.095  -0.291  0.00  0.00    +0.071 C 
ATOM      8  C   UNL     1       0.036  -0.370   0.012  0.00  0.00    +0.098 C 
ATOM      9  C   UNL     1      -1.154  -0.967   0.228  0.00  0.00    +0.156 C 
ATOM     10  C   UNL     1      -0.787  -2.418   0.483  0.00  0.00    +0.200 C 
ATOM     11  N   UNL     1       0.681  -2.411   0.358  0.00  0.00    -0.294 N 
ATOM     12  N   UNL     1       1.033  -1.258   0.098  0.00  0.00    -0.179 NA
ATOM     13  H   UNL     1       1.267  -3.177   0.460  0.00  0.00    +0.184 HD
BRANCH   9  14
ATOM     14  O   UNL     1      -2.382  -0.405   0.222  0.00  0.00    -0.452 OA
BRANCH  14  15
ATOM     15  C   UNL     1      -3.256  -0.796  -0.743  0.00  0.00    +0.170 A 
ATOM     16  C   UNL     1      -2.842  -1.651  -1.752  0.00  0.00    +0.050 A 
ATOM     17  C   UNL     1      -3.733  -2.047  -2.732  0.00  0.00    +0.004 A 
ATOM     18  C   UNL     1      -5.038  -1.592  -2.709  0.00  0.00    +0.004 A 
ATOM     19  C   UNL     1      -5.458  -0.738  -1.706  0.00  0.00    +0.049 A 
ATOM     20  C   UNL     1      -4.572  -0.342  -0.717  0.00  0.00    +0.162 A 
BRANCH  20  21
ATOM     21  O   UNL     1      -4.986   0.493   0.274  0.00  0.00    -0.491 OA
ATOM     22  C   UNL     1      -6.349   0.918   0.237  0.00  0.00    +0.277 C 
ENDBRANCH  20  21
ENDBRANCH  14  15
ENDBRANCH   9  14
ENDBRANCH   1  10
BRANCH   6  23
ATOM     23  O   UNL     1      -3.392  -3.335   1.067  0.00  0.00    -0.506 OA
ATOM     24  H   UNL     1      -3.398  -4.178   0.594  0.00  0.00    +0.292 HD
ENDBRANCH   6  23
BRANCH   4  25
ATOM     25  O   UNL     1      -2.354  -3.998   5.661  0.00  0.00    -0.487 OA
BRANCH  25  26
ATOM     26  C   UNL     1      -1.366  -3.910   6.690  0.00  0.00    +0.267 C 
BRANCH  26  27
ATOM     27  C   UNL     1      -1.960  -4.370   7.996  0.00  0.00    +0.026 A 
ATOM     28  C   UNL     1      -2.584  -3.461   8.831  0.00  0.00    +0.049 A 
ATOM     29  C   UNL     1      -3.129  -3.884  10.030  0.00  0.00    +0.020 A 
ATOM     30  C   UNL     1      -3.049  -5.215  10.395  0.00  0.00    +0.003 A 
ATOM     31  C   UNL     1      -2.425  -6.124   9.561  0.00  0.00    +0.020 A 
ATOM     32  C   UNL     1      -1.886  -5.703   8.359  0.00  0.00    +0.049 A 
ATOM     33 CL   UNL     1      -1.109  -6.846   7.308  0.00  0.00    -0.083 Cl
ATOM     34 CL   UNL     1      -2.684  -1.789   8.374  0.00  0.00    -0.083 Cl
ENDBRANCH  26  27
ENDBRANCH  25  26
ENDBRANCH   4  25
TORSDOF 8
