REMARK  Name = ZINC39689961
REMARK  5 active torsions:
REMARK  status: ('A' for Active; 'I' for Inactive)
REMARK    1  A    between atoms: C_5  and  C_7
REMARK    2  A    between atoms: C_11  and  C_20
REMARK    3  A    between atoms: N_22  and  C_23
REMARK    4  A    between atoms: C_23  and  C_24
REMARK    5  A    between atoms: C_27  and  N_30
REMARK                            x       y       z     vdW  Elec       q    Type
REMARK                         _______ _______ _______ _____ _____    ______ ____
ROOT
ATOM      1  C   UNL     1       1.190  -1.966  -0.096  0.00  0.00    +0.249 C 
ATOM      2  O   UNL     1       2.273  -2.517  -0.135  0.00  0.00    -0.270 OA
ATOM      3  N   UNL     1       0.068  -2.695   0.064  0.00  0.00    -0.296 N 
ATOM      4  C   UNL     1      -1.336  -2.222   0.029  0.00  0.00    +0.121 C 
ATOM      5  C   UNL     1      -2.104  -3.335  -0.718  0.00  0.00    +0.100 C 
ATOM      6  C   UNL     1      -1.250  -4.599  -0.526  0.00  0.00    -0.004 C 
ATOM      7  C   UNL     1      -0.040  -4.154   0.309  0.00  0.00    +0.115 C 
ATOM      8  C   UNL     1      -0.784  -5.133  -1.877  0.00  0.00    -0.010 C 
ATOM      9  C   UNL     1       0.015  -6.421  -1.663  0.00  0.00    -0.082 C 
ATOM     10  N   UNL     1      -0.827  -7.415  -0.986  0.00  0.00    +0.379 N 
ATOM     11  C   UNL     1      -1.195  -6.932   0.351  0.00  0.00    -0.082 C 
ATOM     12  C   UNL     1      -2.045  -5.665   0.222  0.00  0.00    -0.010 C 
ATOM     13  H   UNL     1      -1.664  -7.570  -1.528  0.00  0.00    -0.086 HD
ATOM     14  H   UNL     1      -0.319  -8.283  -0.900  0.00  0.00    -0.086 HD
ENDROOT
BRANCH   1  19
ATOM     15  C   UNL     1       0.047   1.583   0.349  0.00  0.00    +0.001 A 
ATOM     16  C   UNL     1       0.941   2.259  -0.463  0.00  0.00    +0.003 A 
ATOM     17  C   UNL     1       1.916   1.567  -1.157  0.00  0.00    +0.039 A 
ATOM     18  C   UNL     1       2.004   0.191  -1.042  0.00  0.00    +0.135 A 
ATOM     19  C   UNL     1       1.104  -0.497  -0.224  0.00  0.00    +0.072 A 
ATOM     20  C   UNL     1       0.122   0.212   0.472  0.00  0.00    +0.016 A 
ATOM     21  F   UNL     1       2.957  -0.485  -1.720  0.00  0.00    -0.205 F 
ENDBRANCH   1  19
BRANCH   5  22
ATOM     22  C   UNL     1      -3.471  -3.525  -0.114  0.00  0.00    +0.218 C 
ATOM     23  O   UNL     1      -3.646  -3.316   1.068  0.00  0.00    -0.275 OA
ATOM     24  N   UNL     1      -4.500  -3.927  -0.887  0.00  0.00    -0.311 N 
ATOM     25  H   UNL     1      -4.360  -4.094  -1.832  0.00  0.00    +0.149 HD
BRANCH  24  26
ATOM     26  C   UNL     1      -5.829  -4.112  -0.299  0.00  0.00    +0.139 C 
BRANCH  26  27
ATOM     27  C   UNL     1      -6.792  -4.562  -1.367  0.00  0.00    -0.030 A 
ATOM     28  C   UNL     1      -7.495  -3.624  -2.102  0.00  0.00    +0.007 A 
ATOM     29  C   UNL     1      -8.379  -4.033  -3.081  0.00  0.00    +0.026 A 
ATOM     30  C   UNL     1      -8.560  -5.387  -3.329  0.00  0.00    +0.046 A 
ATOM     31  C   UNL     1      -7.853  -6.326  -2.590  0.00  0.00    +0.026 A 
ATOM     32  C   UNL     1      -6.968  -5.911  -1.615  0.00  0.00    +0.007 A 
BRANCH  30  33
ATOM     33  N   UNL     1      -9.457  -5.805  -4.322  0.00  0.00    -0.323 N 
ATOM     34  C   UNL     1     -10.204  -4.984  -5.117  0.00  0.00    +0.091 A 
ATOM     35  C   UNL     1     -10.940  -5.754  -5.945  0.00  0.00    +0.019 A 
ATOM     36  C   UNL     1     -10.637  -7.099  -5.652  0.00  0.00    +0.019 A 
ATOM     37  C   UNL     1      -9.724  -7.101  -4.660  0.00  0.00    +0.091 A 
ENDBRANCH  30  33
ENDBRANCH  26  27
ENDBRANCH  24  26
ENDBRANCH   5  22
TORSDOF 5
