REMARK  Name = ZINC45631353
REMARK  8 active torsions:
REMARK  status: ('A' for Active; 'I' for Inactive)
REMARK    1  A    between atoms: C_3  and  S_24
REMARK    2  A    between atoms: C_6  and  N_7
REMARK    3  A    between atoms: C_8  and  C_10
REMARK    4  A    between atoms: C_10  and  O_11
REMARK    5  A    between atoms: O_11  and  C_12
REMARK    6  A    between atoms: C_12  and  C_14
REMARK    7  A    between atoms: C_17  and  C_19
REMARK    8  A    between atoms: S_24  and  N_27
REMARK                            x       y       z     vdW  Elec       q    Type
REMARK                         _______ _______ _______ _____ _____    ______ ____
ROOT
ATOM      1  N   UNL     1      -1.199  -0.722   0.010  0.00  0.00    -0.283 N 
ATOM      2  C   UNL     1      -1.183  -2.065  -0.099  0.00  0.00    +0.255 C 
ATOM      3  O   UNL     1      -0.125  -2.659  -0.113  0.00  0.00    -0.272 OA
ATOM      4  H   UNL     1      -2.044  -0.253   0.098  0.00  0.00    +0.155 HD
ENDROOT
BRANCH   1  10
ATOM      5  C   UNL     1       1.072  -0.453  -0.766  0.00  0.00    +0.025 A 
ATOM      6  C   UNL     1       2.256   0.259  -0.778  0.00  0.00    +0.030 A 
ATOM      7  C   UNL     1       2.376   1.416  -0.032  0.00  0.00    +0.105 A 
ATOM      8  C   UNL     1       1.312   1.866   0.729  0.00  0.00    +0.030 A 
ATOM      9  C   UNL     1       0.126   1.160   0.744  0.00  0.00    +0.025 A 
ATOM     10  C   UNL     1       0.002  -0.004  -0.004  0.00  0.00    +0.034 A 
BRANCH   7  11
ATOM     11  S   UNL     1       3.889   2.320  -0.048  0.00  0.00    +0.056 S 
ATOM     12  O   UNL     1       3.928   3.069   1.159  0.00  0.00    -0.153 OA
ATOM     13  O   UNL     1       4.909   1.398  -0.406  0.00  0.00    -0.153 OA
BRANCH  11  14
ATOM     14  N   UNL     1       3.789   3.419  -1.284  0.00  0.00    -0.204 NA
ATOM     15  H   UNL     1       2.989   3.462  -1.831  0.00  0.00    +0.144 HD
ATOM     16  H   UNL     1       4.530   4.019  -1.460  0.00  0.00    +0.144 HD
ENDBRANCH  11  14
ENDBRANCH   7  11
ENDBRANCH   1  10
BRANCH   2  17
ATOM     17  C   UNL     1      -2.478  -2.828  -0.204  0.00  0.00    +0.328 C 
BRANCH  17  18
ATOM     18  O   UNL     1      -2.199  -4.226  -0.309  0.00  0.00    -0.451 OA
BRANCH  18  19
ATOM     19  C   UNL     1      -3.257  -5.055  -0.411  0.00  0.00    +0.359 C 
ATOM     20  O   UNL     1      -4.386  -4.603  -0.411  0.00  0.00    -0.243 OA
BRANCH  19  21
ATOM     21  C   UNL     1      -3.047  -6.506  -0.523  0.00  0.00    +0.155 A 
ATOM     22  C   UNL     1      -4.114  -7.357  -0.632  0.00  0.00    +0.082 A 
ATOM     23  S   UNL     1      -3.372  -8.865  -0.729  0.00  0.00    -0.075 S 
ATOM     24  C   UNL     1      -1.675  -8.324  -0.622  0.00  0.00    +0.110 A 
ATOM     25  N   UNL     1      -1.813  -7.014  -0.524  0.00  0.00    -0.232 NA
BRANCH  24  26
ATOM     26  C   UNL     1      -0.437  -9.131  -0.643  0.00  0.00    +0.014 A 
ATOM     27  C   UNL     1      -0.488 -10.521  -0.766  0.00  0.00    +0.018 A 
ATOM     28  C   UNL     1       0.699 -11.166  -0.775  0.00  0.00    +0.046 A 
ATOM     29  S   UNL     1       1.863  -9.827  -0.613  0.00  0.00    -0.104 S 
ATOM     30  C   UNL     1       0.787  -8.538  -0.549  0.00  0.00    +0.055 A 
ENDBRANCH  24  26
ENDBRANCH  19  21
ENDBRANCH  18  19
ENDBRANCH  17  18
ENDBRANCH   2  17
TORSDOF 8
