REMARK  Name = ZINC39792328
REMARK  8 active torsions:
REMARK  status: ('A' for Active; 'I' for Inactive)
REMARK    1  A    between atoms: C_1  and  C_2
REMARK    2  A    between atoms: C_4  and  C_30
REMARK    3  A    between atoms: C_5  and  C_28
REMARK    4  A    between atoms: C_6  and  N_16
REMARK    5  A    between atoms: N_8  and  C_9
REMARK    6  A    between atoms: C_17  and  C_19
REMARK    7  A    between atoms: C_19  and  S_20
REMARK    8  A    between atoms: S_20  and  C_21
REMARK                            x       y       z     vdW  Elec       q    Type
REMARK                         _______ _______ _______ _____ _____    ______ ____
ROOT
ATOM      1  C   UNL     1       0.057   1.471  -0.410  0.00  0.00    +0.033 C 
ATOM      2  C   UNL     1       0.066  -0.047  -0.219  0.00  0.00    +0.099 C 
ATOM      3  C   UNL     1       0.839  -0.699  -1.335  0.00  0.00    -0.036 C 
ATOM      4  C   UNL     1       1.871  -1.364  -0.837  0.00  0.00    +0.068 C 
ATOM      5  C   UNL     1       1.892  -1.224   0.662  0.00  0.00    +0.203 C 
ATOM      6  N   UNL     1       0.741  -0.388   1.040  0.00  0.00    -0.300 N 
ATOM      7  C   UNL     1       0.491  -0.608  -2.799  0.00  0.00    +0.042 C 
ENDROOT
BRANCH   6   8
ATOM      8  C   UNL     1       0.366   0.002   2.330  0.00  0.00    +0.032 A 
ATOM      9  C   UNL     1      -0.786   0.753   2.522  0.00  0.00    +0.026 A 
ATOM     10  C   UNL     1      -1.154   1.138   3.796  0.00  0.00    +0.040 A 
ATOM     11  C   UNL     1      -0.376   0.774   4.882  0.00  0.00    +0.124 A 
ATOM     12  C   UNL     1       0.773   0.025   4.693  0.00  0.00    +0.040 A 
ATOM     13  C   UNL     1       1.143  -0.366   3.421  0.00  0.00    +0.026 A 
ATOM     14  F   UNL     1      -0.738   1.151   6.128  0.00  0.00    -0.205 F 
ENDBRANCH   6   8
BRANCH   5  15
ATOM     15  N   UNL     1       3.139  -0.583   1.085  0.00  0.00    -0.292 N 
ATOM     16  C   UNL     1       3.857  -1.108   2.098  0.00  0.00    +0.225 C 
ATOM     17  O   UNL     1       3.524  -2.163   2.594  0.00  0.00    -0.275 OA
ATOM     18  H   UNL     1       3.449   0.219   0.636  0.00  0.00    +0.151 HD
BRANCH  16  19
ATOM     19  C   UNL     1       5.073  -0.383   2.615  0.00  0.00    +0.173 C 
BRANCH  19  20
ATOM     20  S   UNL     1       5.816  -1.335   3.968  0.00  0.00    -0.075 S 
BRANCH  20  21
ATOM     21  C   UNL     1       7.206  -0.369   4.457  0.00  0.00    +0.210 A 
ATOM     22  N   UNL     1       7.564   0.775   3.925  0.00  0.00    -0.144 NA
ATOM     23  H   UNL     1       9.219   2.014   4.444  0.00  0.00    +0.192 HD
ATOM     24  N   UNL     1       8.715   1.200   4.606  0.00  0.00    -0.246 N 
ATOM     25  C   UNL     1       8.984   0.256   5.531  0.00  0.00    +0.209 A 
ATOM     26  N   UNL     1       8.065  -0.681   5.434  0.00  0.00    -0.188 NA
ATOM     27  N   UNL     1      10.037   0.272   6.428  0.00  0.00    -0.328 N 
ATOM     28  H   UNL     1      10.664   1.011   6.426  0.00  0.00    +0.145 HD
ATOM     29  H   UNL     1      10.148  -0.457   7.059  0.00  0.00    +0.145 HD
ENDBRANCH  20  21
ENDBRANCH  19  20
ENDBRANCH  16  19
ENDBRANCH   5  15
BRANCH   4  30
ATOM     30  C   UNL     1       2.823  -2.105  -1.609  0.00  0.00    +0.098 C 
ATOM     31  N   UNL     1       3.579  -2.693  -2.220  0.00  0.00    -0.191 NA
ENDBRANCH   4  30
TORSDOF 6
