REMARK  Name = ZINC58341319
REMARK  7 active torsions:
REMARK  status: ('A' for Active; 'I' for Inactive)
REMARK    1  A    between atoms: C_1  and  C_2
REMARK    2  A    between atoms: C_8  and  C_12
REMARK    3  A    between atoms: C_12  and  N_13
REMARK    4  A    between atoms: N_13  and  C_14
REMARK    5  A    between atoms: C_17  and  C_25
REMARK    6  A    between atoms: C_17  and  C_26
REMARK    7  A    between atoms: C_22  and  C_24
REMARK                            x       y       z     vdW  Elec       q    Type
REMARK                         _______ _______ _______ _____ _____    ______ ____
ROOT
ATOM      1  N   UNL     1       0.925  -6.908   0.560  0.00  0.00    +0.384 N 
ATOM      2  H   UNL     1       0.319  -6.239   1.011  0.00  0.00    -0.085 HD
ATOM      3  H   UNL     1       0.696  -6.961  -0.421  0.00  0.00    -0.085 HD
ENDROOT
BRANCH   1   4
ATOM      4  C   UNL     1       0.742  -8.229   1.178  0.00  0.00    -0.037 C 
ATOM      5  C   UNL     1       1.532  -9.281   0.390  0.00  0.00    -0.004 C 
ATOM      6  C   UNL     1       1.131 -10.680   0.866  0.00  0.00    -0.029 C 
ATOM      7  C   UNL     1      -0.302 -10.985   0.413  0.00  0.00    +0.081 C 
ATOM      8  C   UNL     1      -1.184  -9.825   0.807  0.00  0.00    +0.107 A 
ATOM      9  C   UNL     1      -0.716  -8.606   1.147  0.00  0.00    -0.020 A 
ATOM     10  C   UNL     1      -1.831  -7.803   1.450  0.00  0.00    +0.046 A 
ATOM     11  C   UNL     1      -2.921  -8.576   1.278  0.00  0.00    +0.102 A 
ATOM     12  O   UNL     1      -2.519  -9.800   0.886  0.00  0.00    -0.465 OA
ATOM     13  C   UNL     1      -4.349  -8.143   1.489  0.00  0.00    +0.086 C 
ATOM     14  C   UNL     1       2.086 -11.715   0.267  0.00  0.00    +0.011 C 
ATOM     15  C   UNL     1       1.207 -10.740   2.393  0.00  0.00    +0.011 C 
ENDBRANCH   1   4
BRANCH   1  16
ATOM     16  C   UNL     1       2.323  -6.484   0.715  0.00  0.00    -0.075 C 
BRANCH  16  24
ATOM     17  C   UNL     1       5.933  -0.422  -1.627  0.00  0.00    +0.065 C 
ATOM     18  C   UNL     1       4.989  -1.472  -1.099  0.00  0.00    +0.033 A 
ATOM     19  C   UNL     1       3.626  -1.288  -0.832  0.00  0.00    +0.065 A 
ATOM     20  C   UNL     1       3.138  -2.461  -0.375  0.00  0.00    +0.115 A 
ATOM     21  N   UNL     1       4.157  -3.360  -0.354  0.00  0.00    -0.273 N 
ATOM     22  N   UNL     1       5.302  -2.713  -0.817  0.00  0.00    -0.300 N 
ATOM     23  C   UNL     1       4.008  -4.750   0.083  0.00  0.00    +0.146 C 
ATOM     24  C   UNL     1       2.525  -5.132   0.029  0.00  0.00    +0.010 C 
ATOM     25  C   UNL     1       1.687  -4.068   0.746  0.00  0.00    +0.106 C 
ATOM     26  N   UNL     1       1.841  -2.788   0.029  0.00  0.00    -0.329 N 
ATOM     27  H   UNL     1       1.085  -2.207  -0.153  0.00  0.00    +0.147 HD
ATOM     28  H   UNL     1       6.181  -3.113  -0.911  0.00  0.00    +0.187 HD
ENDBRANCH  16  24
ENDBRANCH   1  16
TORSDOF 3
