REMARK  Name = ZINC33812548
REMARK  15 active torsions:
REMARK  status: ('A' for Active; 'I' for Inactive)
REMARK    1  A    between atoms: C_1  and  C_2
REMARK    2  A    between atoms: C_2  and  C_3
REMARK    3  A    between atoms: C_3  and  C_4
REMARK    4  A    between atoms: C_4  and  C_5
REMARK    5  A    between atoms: C_5  and  C_6
REMARK    6  A    between atoms: C_6  and  N_7
REMARK    7  A    between atoms: C_11  and  C_12
REMARK    8  A    between atoms: C_13  and  C_32
REMARK    9  A    between atoms: C_14  and  C_30
REMARK   10  A    between atoms: N_17  and  C_27
REMARK   11  A    between atoms: C_18  and  N_19
REMARK   12  A    between atoms: N_22  and  C_25
REMARK   13  A    between atoms: C_25  and  C_26
REMARK   14  A    between atoms: C_27  and  C_28
REMARK   15  A    between atoms: C_28  and  C_29
REMARK                            x       y       z     vdW  Elec       q    Type
REMARK                         _______ _______ _______ _____ _____    ______ ____
ROOT
ATOM      1  C   UNL     1       2.696  -5.822  -8.256  0.00  0.00    +0.019 A 
ATOM      2  C   UNL     1       4.047  -5.954  -7.892  0.00  0.00    -0.017 A 
ATOM      3  C   UNL     1       4.958  -6.406  -8.842  0.00  0.00    +0.120 A 
ATOM      4  C   UNL     1       4.504  -6.723 -10.148  0.00  0.00    +0.270 A 
ATOM      5  O   UNL     1       5.297  -7.120 -10.983  0.00  0.00    -0.266 OA
ATOM      6  N   UNL     1       3.206  -6.588 -10.471  0.00  0.00    -0.295 N 
ATOM      7  C   UNL     1       2.296  -6.153  -9.561  0.00  0.00    +0.112 A 
ATOM      8  C   UNL     1       4.501  -5.610  -6.497  0.00  0.00    +0.046 C 
ENDROOT
BRANCH   1  13
ATOM      9  N   UNL     1       0.465  -6.710  -4.118  0.00  0.00    -0.255 N 
ATOM     10  C   UNL     1       0.590  -5.797  -5.066  0.00  0.00    +0.258 C 
ATOM     11  O   UNL     1       0.014  -4.727  -4.986  0.00  0.00    -0.269 OA
ATOM     12  C   UNL     1       1.420  -6.104  -6.186  0.00  0.00    +0.077 C 
ATOM     13  C   UNL     1       1.712  -5.348  -7.280  0.00  0.00    +0.032 C 
ATOM     14  S   UNL     1       1.973  -7.749  -5.761  0.00  0.00    -0.061 S 
ATOM     15  C   UNL     1       1.109  -7.895  -4.204  0.00  0.00    +0.121 C 
ATOM     16  S   UNL     1       1.096  -9.205  -3.103  0.00  0.00    -0.027 S 
BRANCH   9  17
ATOM     17  C   UNL     1      -0.379  -6.430  -2.954  0.00  0.00    +0.115 C 
BRANCH  17  18
ATOM     18  C   UNL     1       0.463  -5.767  -1.861  0.00  0.00    +0.019 C 
BRANCH  18  19
ATOM     19  C   UNL     1      -0.418  -5.474  -0.645  0.00  0.00    +0.002 C 
BRANCH  19  20
ATOM     20  C   UNL     1       0.423  -4.811   0.447  0.00  0.00    -0.000 C 
BRANCH  20  22
ATOM     21  C   UNL     1       0.383  -3.856   2.755  0.00  0.00    +0.004 C 
ATOM     22  C   UNL     1      -0.458  -4.519   1.663  0.00  0.00    -0.003 C 
ENDBRANCH  20  22
ENDBRANCH  19  20
ENDBRANCH  18  19
ENDBRANCH  17  18
ENDBRANCH   9  17
ENDBRANCH   1  13
BRANCH   7  23
ATOM     23  N   UNL     1       0.986  -6.033  -9.919  0.00  0.00    -0.320 N 
ATOM     24  C   UNL     1       0.473  -4.785 -10.505  0.00  0.00    +0.088 C 
ATOM     25  C   UNL     1      -0.785  -4.368  -9.736  0.00  0.00    -0.060 C 
ATOM     26  N   UNL     1      -1.747  -5.477  -9.736  0.00  0.00    +0.382 N 
ATOM     27  C   UNL     1      -1.194  -6.619  -8.997  0.00  0.00    -0.060 C 
ATOM     28  C   UNL     1       0.045  -7.149  -9.734  0.00  0.00    +0.088 C 
ATOM     29  H   UNL     1      -1.940  -5.754 -10.687  0.00  0.00    -0.082 HD
BRANCH  26  30
ATOM     30  C   UNL     1      -2.995  -5.040  -9.095  0.00  0.00    -0.082 C 
ATOM     31  C   UNL     1      -4.041  -6.152  -9.204  0.00  0.00    -0.017 C 
ENDBRANCH  26  30
ENDBRANCH   7  23
BRANCH   3  32
ATOM     32  C   UNL     1       6.342  -6.551  -8.503  0.00  0.00    +0.105 C 
ATOM     33  N   UNL     1       7.440  -6.666  -8.234  0.00  0.00    -0.191 NA
ENDBRANCH   3  32
BRANCH   6  34
ATOM     34  C   UNL     1       2.764  -6.921 -11.827  0.00  0.00    +0.126 C 
BRANCH  34  35
ATOM     35  C   UNL     1       2.494  -8.424 -11.921  0.00  0.00    +0.018 C 
ATOM     36  C   UNL     1       2.032  -8.772 -13.338  0.00  0.00    +0.005 C 
ENDBRANCH  34  35
ENDBRANCH   6  34
TORSDOF 11
