REMARK  Name = ZINC02240856
REMARK  7 active torsions:
REMARK  status: ('A' for Active; 'I' for Inactive)
REMARK    1  A    between atoms: C_1  and  C_2
REMARK    2  A    between atoms: C_2  and  C_3
REMARK    3  A    between atoms: C_3  and  C_4
REMARK    4  A    between atoms: C_4  and  O_5
REMARK    5  A    between atoms: O_5  and  C_6
REMARK    6  A    between atoms: C_17  and  C_20
REMARK    7  A    between atoms: C_17  and  C_21
REMARK                            x       y       z     vdW  Elec       q    Type
REMARK                         _______ _______ _______ _____ _____    ______ ____
ROOT
ATOM      1  C   UNL     1      -0.643   5.347   0.043  0.00  0.00    +0.232 A 
ATOM      2  C   UNL     1      -0.350   3.992   0.030  0.00  0.00    +0.102 A 
ATOM      3  C   UNL     1       0.977   3.542   0.015  0.00  0.00    +0.094 A 
ATOM      4  C   UNL     1       1.162   2.079   0.002  0.00  0.00    +0.034 A 
ATOM      5  C   UNL     1       2.377   1.361  -0.016  0.00  0.00    +0.020 A 
ATOM      6  C   UNL     1       2.348  -0.020  -0.025  0.00  0.00    +0.000 A 
ATOM      7  C   UNL     1       1.136  -0.686  -0.014  0.00  0.00    +0.051 A 
ATOM      8  N   UNL     1       0.002  -0.004   0.002  0.00  0.00    -0.244 NA
ATOM      9  C   UNL     1      -0.016   1.310   0.009  0.00  0.00    +0.111 A 
ATOM     10  S   UNL     1      -1.324   2.512   0.035  0.00  0.00    -0.062 S 
ATOM     11  C   UNL     1       1.071  -2.193  -0.014  0.00  0.00    +0.090 C 
ATOM     12  C   UNL     1       2.420  -2.769  -0.449  0.00  0.00    +0.070 C 
ATOM     13  O   UNL     1       3.452  -2.132   0.312  0.00  0.00    -0.369 OA
ATOM     14  C   UNL     1       3.656  -0.767  -0.051  0.00  0.00    +0.197 C 
ATOM     15  C   UNL     1       2.443  -4.276  -0.187  0.00  0.00    +0.041 C 
ATOM     16  C   UNL     1       2.635  -2.502  -1.940  0.00  0.00    +0.041 C 
ATOM     17  N   UNL     1       1.929   4.502   0.012  0.00  0.00    -0.234 NA
ATOM     18  C   UNL     1       1.614   5.773   0.025  0.00  0.00    +0.225 A 
ATOM     19  N   UNL     1       0.369   6.211   0.040  0.00  0.00    -0.200 NA
ENDROOT
BRANCH   1  20
ATOM     20  O   UNL     1      -1.927   5.780   0.058  0.00  0.00    -0.476 OA
BRANCH  20  21
ATOM     21  C   UNL     1      -2.135   7.193   0.070  0.00  0.00    +0.231 C 
BRANCH  21  22
ATOM     22  C   UNL     1      -3.636   7.488   0.087  0.00  0.00    +0.041 C 
BRANCH  22  24
ATOM     23  C   UNL     1      -5.360   9.296   0.117  0.00  0.00    +0.004 C 
ATOM     24  C   UNL     1      -3.859   9.002   0.100  0.00  0.00    -0.000 C 
ENDBRANCH  22  24
ENDBRANCH  21  22
ENDBRANCH  20  21
ENDBRANCH   1  20
TORSDOF 4
