REMARK  Name = ZINC35870675
REMARK  9 active torsions:
REMARK  status: ('A' for Active; 'I' for Inactive)
REMARK    1  A    between atoms: C_1  and  O_2
REMARK    2  A    between atoms: O_2  and  C_3
REMARK    3  A    between atoms: C_6  and  C_9
REMARK    4  A    between atoms: C_9  and  C_10
REMARK    5  A    between atoms: C_10  and  N_11
REMARK    6  A    between atoms: C_12  and  C_14
REMARK    7  A    between atoms: N_27  and  C_30
REMARK    8  A    between atoms: C_35  and  O_36
REMARK    9  A    between atoms: O_36  and  C_37
REMARK                            x       y       z     vdW  Elec       q    Type
REMARK                         _______ _______ _______ _____ _____    ______ ____
ROOT
ATOM      1  C   UNL     1       6.620  -4.335  -6.328  0.00  0.00    +0.101 C 
ATOM      2  C   UNL     1       6.483  -3.447  -7.564  0.00  0.00    +0.051 C 
ATOM      3  C   UNL     1       7.228  -4.090  -8.706  0.00  0.00    -0.026 A 
ATOM      4  C   UNL     1       6.805  -3.873 -10.004  0.00  0.00    +0.005 A 
ATOM      5  C   UNL     1       7.474  -4.467 -11.057  0.00  0.00    +0.000 A 
ATOM      6  C   UNL     1       8.568  -5.279 -10.815  0.00  0.00    +0.002 A 
ATOM      7  C   UNL     1       8.996  -5.494  -9.521  0.00  0.00    +0.023 A 
ATOM      8  C   UNL     1       8.326  -4.894  -8.458  0.00  0.00    +0.033 A 
ATOM      9  N   UNL     1       8.802  -5.112  -7.154  0.00  0.00    -0.323 N 
ATOM     10  C   UNL     1       8.102  -4.558  -6.008  0.00  0.00    +0.103 C 
ATOM     11  C   UNL     1       8.197  -5.428  -4.765  0.00  0.00    +0.128 C 
ATOM     12  N   UNL     1       9.451  -6.151  -4.674  0.00  0.00    -0.324 N 
ATOM     13  C   UNL     1      10.080  -6.774  -5.827  0.00  0.00    +0.124 C 
ATOM     14  C   UNL     1      10.049  -5.865  -7.034  0.00  0.00    +0.124 C 
ENDROOT
BRANCH  12  15
ATOM     15  C   UNL     1      10.079  -6.253  -3.428  0.00  0.00    +0.073 A 
ATOM     16  C   UNL     1       9.794  -7.322  -2.591  0.00  0.00    +0.046 A 
ATOM     17  C   UNL     1      10.417  -7.420  -1.359  0.00  0.00    +0.043 A 
ATOM     18  C   UNL     1      11.325  -6.455  -0.961  0.00  0.00    +0.024 A 
ATOM     19  C   UNL     1      11.612  -5.387  -1.791  0.00  0.00    +0.049 A 
ATOM     20  C   UNL     1      10.997  -5.284  -3.027  0.00  0.00    +0.141 A 
ATOM     21 CL   UNL     1      10.059  -8.758  -0.312  0.00  0.00    -0.083 Cl
BRANCH  20  22
ATOM     22  O   UNL     1      11.284  -4.237  -3.847  0.00  0.00    -0.493 OA
ATOM     23  C   UNL     1      12.234  -3.282  -3.371  0.00  0.00    +0.277 C 
ENDBRANCH  20  22
ENDBRANCH  12  15
BRANCH   1  25
ATOM     24  N   UNL     1       4.636  -3.373  -5.207  0.00  0.00    -0.315 N 
ATOM     25  C   UNL     1       5.951  -3.666  -5.155  0.00  0.00    +0.218 C 
ATOM     26  O   UNL     1       6.595  -3.392  -4.164  0.00  0.00    -0.275 OA
ATOM     27  H   UNL     1       4.121  -3.592  -5.999  0.00  0.00    +0.149 HD
BRANCH  24  28
ATOM     28  C   UNL     1       3.986  -2.723  -4.066  0.00  0.00    +0.109 C 
BRANCH  28  29
ATOM     29  C   UNL     1       2.505  -2.503  -4.381  0.00  0.00    +0.054 C 
BRANCH  29  33
ATOM     30  C   UNL     1       0.606  -0.607  -1.056  0.00  0.00    +0.120 A 
ATOM     31  C   UNL     1       1.173   0.161  -2.062  0.00  0.00    +0.046 A 
ATOM     32  C   UNL     1       1.786  -0.455  -3.136  0.00  0.00    +0.007 A 
ATOM     33  C   UNL     1       1.835  -1.835  -3.209  0.00  0.00    -0.046 A 
ATOM     34  C   UNL     1       1.270  -2.602  -2.207  0.00  0.00    +0.007 A 
ATOM     35  C   UNL     1       0.661  -1.992  -1.128  0.00  0.00    +0.046 A 
BRANCH  30  37
ATOM     36  C   UNL     1      -0.017   1.425   0.010  0.00  0.00    +0.277 C 
ATOM     37  O   UNL     1       0.002  -0.004   0.002  0.00  0.00    -0.495 OA
ENDBRANCH  30  37
ENDBRANCH  29  33
ENDBRANCH  28  29
ENDBRANCH  24  28
ENDBRANCH   1  25
TORSDOF 7
