REMARK  Name = ZINC12372479
REMARK  4 active torsions:
REMARK  status: ('A' for Active; 'I' for Inactive)
REMARK    1  A    between atoms: C_1  and  C_2
REMARK    2  A    between atoms: C_3  and  C_9
REMARK    3  A    between atoms: C_12  and  C_14
REMARK    4  A    between atoms: N_15  and  N_16
REMARK                            x       y       z     vdW  Elec       q    Type
REMARK                         _______ _______ _______ _____ _____    ______ ____
ROOT
ATOM      1  C   UNL     1      -0.011   0.042  -2.488  0.00  0.00    +0.136 A 
ATOM      2  C   UNL     1       0.833  -0.169  -3.539  0.00  0.00    +0.050 A 
ATOM      3  C   UNL     1       0.475   0.741  -4.542  0.00  0.00    +0.051 A 
ATOM      4  C   UNL     1      -0.585   1.476  -4.053  0.00  0.00    +0.148 A 
ATOM      5  O   UNL     1      -0.865   1.032  -2.811  0.00  0.00    -0.454 OA
ENDROOT
BRANCH   1   8
ATOM      6  C   UNL     1      -0.018   1.503   0.010  0.00  0.00    +0.046 C 
ATOM      7  C   UNL     1       0.002  -0.004   0.002  0.00  0.00    -0.022 A 
ATOM      8  C   UNL     1       0.006  -0.698  -1.211  0.00  0.00    +0.022 A 
ATOM      9  C   UNL     1       0.025  -2.095  -1.209  0.00  0.00    +0.012 A 
ATOM     10  C   UNL     1       0.040  -2.780  -0.012  0.00  0.00    +0.002 A 
ATOM     11  C   UNL     1       0.036  -2.087   1.186  0.00  0.00    +0.020 A 
ATOM     12  C   UNL     1       0.023  -0.702   1.192  0.00  0.00    +0.045 A 
ATOM     13 CL   UNL     1       0.025   0.157   2.701  0.00  0.00    -0.083 Cl
ENDBRANCH   1   8
BRANCH   4  14
ATOM     14  C   UNL     1      -1.265   2.514  -4.739  0.00  0.00    +0.181 C 
ATOM     15  N   UNL     1      -2.261   3.138  -4.161  0.00  0.00    -0.152 NA
BRANCH  15  16
ATOM     16  N   UNL     1      -2.879   4.082  -4.785  0.00  0.00    -0.127 NA
ATOM     17  C   UNL     1      -3.881   4.710  -4.204  0.00  0.00    +0.182 C 
ATOM     18  N   UNL     1      -4.401   4.500  -2.944  0.00  0.00    -0.263 N 
ATOM     19  C   UNL     1      -5.417   5.201  -2.470  0.00  0.00    +0.229 C 
ATOM     20  O   UNL     1      -5.869   5.011  -1.361  0.00  0.00    -0.275 OA
ATOM     21  C   UNL     1      -5.983   6.260  -3.402  0.00  0.00    +0.173 C 
ATOM     22  S   UNL     1      -4.880   6.037  -4.859  0.00  0.00    -0.079 S 
ATOM     23  H   UNL     1      -4.007   3.813  -2.384  0.00  0.00    +0.157 HD
ENDBRANCH  15  16
ENDBRANCH   4  14
TORSDOF 3
