REMARK  Name = ZINC08037648
REMARK  10 active torsions:
REMARK  status: ('A' for Active; 'I' for Inactive)
REMARK    1  A    between atoms: C_1  and  C_2
REMARK    2  A    between atoms: C_5  and  S_8
REMARK    3  A    between atoms: S_8  and  N_11
REMARK    4  A    between atoms: C_16  and  C_18
REMARK    5  A    between atoms: C_16  and  C_19
REMARK    6  A    between atoms: C_16  and  N_61
REMARK    7  A    between atoms: N_21  and  C_22
REMARK    8  A    between atoms: C_22  and  C_23
REMARK    9  A    between atoms: C_23  and  C_25
REMARK   10  A    between atoms: C_23  and  C_26
REMARK                            x       y       z     vdW  Elec       q    Type
REMARK                         _______ _______ _______ _____ _____    ______ ____
ROOT
ATOM      1  N   UNL     1       0.908   0.976  -1.766  0.00  0.00    -0.180 NA
ATOM      2  C   UNL     1      -0.401   0.358  -1.504  0.00  0.00    +0.091 C 
ATOM      3  C   UNL     1      -0.175  -0.969  -0.772  0.00  0.00    -0.060 C 
ATOM      4  C   UNL     1       1.983  -0.236   0.056  0.00  0.00    -0.060 C 
ATOM      5  C   UNL     1       1.846   1.121  -0.642  0.00  0.00    +0.091 C 
ATOM      6  N   UNL     1       0.635  -0.711   0.438  0.00  0.00    +0.389 N 
ATOM      7  H   UNL     1       0.174   0.013   1.000  0.00  0.00    -0.081 HD
ENDROOT
BRANCH   1   8
ATOM      8  S   UNL     1       1.315   1.494  -3.285  0.00  0.00    +0.061 S 
ATOM      9  O   UNL     1       2.735   1.502  -3.345  0.00  0.00    -0.153 OA
ATOM     10  O   UNL     1       0.518   0.750  -4.195  0.00  0.00    -0.153 OA
BRANCH   8  15
ATOM     11  C   UNL     1      -0.460   7.243  -3.744  0.00  0.00    +0.044 C 
ATOM     12  C   UNL     1      -0.017   5.807  -3.630  0.00  0.00    -0.050 A 
ATOM     13  C   UNL     1       1.252   5.510  -3.167  0.00  0.00    +0.005 A 
ATOM     14  C   UNL     1       1.659   4.193  -3.063  0.00  0.00    +0.029 A 
ATOM     15  C   UNL     1       0.796   3.173  -3.419  0.00  0.00    +0.105 A 
ATOM     16  C   UNL     1      -0.470   3.470  -3.885  0.00  0.00    +0.029 A 
ATOM     17  C   UNL     1      -0.879   4.787  -3.986  0.00  0.00    +0.005 A 
ENDBRANCH   8  15
ENDBRANCH   1   8
BRANCH   6  18
ATOM     18  C   UNL     1       0.746  -1.946   1.243  0.00  0.00    +0.016 C 
ATOM     19  C   UNL     1       1.675  -1.685   2.430  0.00  0.00    -0.004 C 
BRANCH  18  20
ATOM     20  C   UNL     1      -0.623  -2.319   1.750  0.00  0.00    +0.199 C 
ATOM     21  O   UNL     1      -1.472  -1.464   1.892  0.00  0.00    -0.278 OA
ATOM     22  N   UNL     1      -0.905  -3.604   2.045  0.00  0.00    -0.316 N 
ATOM     23  H   UNL     1      -0.227  -4.287   1.932  0.00  0.00    +0.149 HD
BRANCH  22  24
ATOM     24  C   UNL     1      -2.236  -3.967   2.538  0.00  0.00    +0.112 C 
BRANCH  24  25
ATOM     25  C   UNL     1      -2.291  -5.474   2.794  0.00  0.00    +0.033 C 
ATOM     26  C   UNL     1      -1.328  -5.834   3.927  0.00  0.00    +0.014 C 
BRANCH  25  27
ATOM     27  C   UNL     1      -3.693  -5.867   3.183  0.00  0.00    -0.043 A 
ATOM     28  C   UNL     1      -4.277  -5.319   4.310  0.00  0.00    +0.004 A 
ATOM     29  C   UNL     1      -5.564  -5.676   4.664  0.00  0.00    +0.000 A 
ATOM     30  C   UNL     1      -6.265  -6.588   3.897  0.00  0.00    +0.000 A 
ATOM     31  C   UNL     1      -5.680  -7.139   2.772  0.00  0.00    +0.000 A 
ATOM     32  C   UNL     1      -4.394  -6.779   2.416  0.00  0.00    +0.004 A 
ENDBRANCH  25  27
ENDBRANCH  24  25
ENDBRANCH  22  24
ENDBRANCH  18  20
ENDBRANCH   6  18
TORSDOF 7
