REMARK  Name = ZINC63197138
REMARK  12 active torsions:
REMARK  status: ('A' for Active; 'I' for Inactive)
REMARK    1  A    between atoms: C_1  and  C_2
REMARK    2  A    between atoms: C_2  and  C_3
REMARK    3  A    between atoms: C_2  and  C_4
REMARK    4  A    between atoms: C_4  and  O_5
REMARK    5  A    between atoms: O_5  and  C_6
REMARK    6  A    between atoms: N_8  and  C_9
REMARK    7  A    between atoms: C_9  and  C_11
REMARK    8  A    between atoms: C_9  and  C_21
REMARK    9  A    between atoms: C_11  and  C_12
REMARK   10  A    between atoms: N_23  and  C_24
REMARK   11  A    between atoms: C_27  and  O_30
REMARK   12  A    between atoms: O_30  and  C_31
REMARK                            x       y       z     vdW  Elec       q    Type
REMARK                         _______ _______ _______ _____ _____    ______ ____
ROOT
ATOM      1  C   UNL     1      -3.909  -4.566  -0.244  0.00  0.00    +0.166 C 
ENDROOT
BRANCH   1   4
ATOM      2  C   UNL     1      -2.564  -2.635   0.389  0.00  0.00    +0.401 C 
ATOM      3  O   UNL     1      -3.593  -2.020   0.588  0.00  0.00    -0.226 OA
ATOM      4  N   UNL     1      -2.614  -3.916  -0.029  0.00  0.00    -0.270 N 
ATOM      5  H   UNL     1      -1.792  -4.406  -0.188  0.00  0.00    +0.153 HD
BRANCH   2   6
ATOM      6  O   UNL     1      -1.374  -2.037   0.586  0.00  0.00    -0.450 OA
BRANCH   6   7
ATOM      7  C   UNL     1      -1.396  -0.679   1.030  0.00  0.00    +0.236 C 
BRANCH   7   9
ATOM      8  C   UNL     1       0.018   1.314   1.550  0.00  0.00    +0.010 C 
ATOM      9  C   UNL     1       0.039  -0.174   1.197  0.00  0.00    +0.021 C 
ATOM     10  C   UNL     1       0.727  -0.955   2.318  0.00  0.00    +0.010 C 
ENDBRANCH   7   9
ENDBRANCH   6   7
ENDBRANCH   2   6
ENDBRANCH   1   4
BRANCH   1  11
ATOM     11  C   UNL     1      -3.762  -5.648  -1.282  0.00  0.00    +0.238 C 
ATOM     12  O   UNL     1      -2.681  -5.855  -1.793  0.00  0.00    -0.273 OA
ATOM     13  N   UNL     1      -4.830  -6.385  -1.644  0.00  0.00    -0.284 N 
ATOM     14  H   UNL     1      -5.677  -6.269  -1.185  0.00  0.00    +0.155 HD
BRANCH  13  15
ATOM     15  C   UNL     1      -4.719  -7.318  -2.683  0.00  0.00    +0.034 A 
ATOM     16  C   UNL     1      -5.462  -8.491  -2.647  0.00  0.00    +0.027 A 
ATOM     17  C   UNL     1      -5.352  -9.410  -3.671  0.00  0.00    +0.047 A 
ATOM     18  C   UNL     1      -4.499  -9.162  -4.737  0.00  0.00    +0.120 A 
ATOM     19  C   UNL     1      -3.756  -7.991  -4.773  0.00  0.00    +0.047 A 
ATOM     20  C   UNL     1      -3.869  -7.069  -3.752  0.00  0.00    +0.027 A 
BRANCH  18  21
ATOM     21  O   UNL     1      -4.390 -10.068  -5.745  0.00  0.00    -0.495 OA
ATOM     22  C   UNL     1      -3.493  -9.748  -6.810  0.00  0.00    +0.277 C 
ENDBRANCH  18  21
ENDBRANCH  13  15
ENDBRANCH   1  11
BRANCH   1  23
ATOM     23  C   UNL     1      -4.394  -5.183   1.070  0.00  0.00    +0.065 C 
BRANCH  23  24
ATOM     24  C   UNL     1      -3.370  -6.169   1.570  0.00  0.00    -0.039 C 
ATOM     25  C   UNL     1      -2.388  -5.936   2.471  0.00  0.00    -0.001 A 
ATOM     26  C   UNL     1      -1.994  -4.739   3.225  0.00  0.00    +0.010 A 
ATOM     27  C   UNL     1      -0.943  -4.815   4.072  0.00  0.00    +0.001 A 
ATOM     28  C   UNL     1      -0.222  -6.004   4.248  0.00  0.00    +0.002 A 
ATOM     29  C   UNL     1      -0.523  -7.143   3.590  0.00  0.00    +0.026 A 
ATOM     30  C   UNL     1      -1.610  -7.179   2.674  0.00  0.00    +0.043 A 
ATOM     31  N   UNL     1      -2.092  -8.143   1.928  0.00  0.00    -0.380 N 
ATOM     32  C   UNL     1      -3.236  -7.622   1.171  0.00  0.00    +0.144 C 
ATOM     33  H   UNL     1      -1.752  -9.050   1.887  0.00  0.00    +0.160 HD
ENDBRANCH  23  24
ENDBRANCH   1  23
TORSDOF 9
