REMARK  Name = ZINC32907251
REMARK  9 active torsions:
REMARK  status: ('A' for Active; 'I' for Inactive)
REMARK    1  A    between atoms: C_5  and  C_7
REMARK    2  A    between atoms: C_10  and  C_12
REMARK    3  A    between atoms: C_12  and  N_13
REMARK    4  A    between atoms: N_13  and  C_14
REMARK    5  A    between atoms: C_14  and  C_15
REMARK    6  A    between atoms: C_15  and  C_16
REMARK    7  A    between atoms: C_16  and  C_17
REMARK    8  A    between atoms: C_18  and  C_24
REMARK    9  A    between atoms: C_19  and  N_23
REMARK                            x       y       z     vdW  Elec       q    Type
REMARK                         _______ _______ _______ _____ _____    ______ ____
ROOT
ATOM      1  N   UNL     1       6.120   0.982  -2.880  0.00  0.00    +0.382 N 
ATOM      2  H   UNL     1       5.695   1.865  -3.379  0.00  0.00    -0.085 HD
ATOM      3  H   UNL     1       5.775   0.071  -3.390  0.00  0.00    -0.085 HD
ENDROOT
BRANCH   1   4
ATOM      4  C   UNL     1       7.586   1.048  -2.933  0.00  0.00    -0.039 C 
BRANCH   4   8
ATOM      5  C   UNL     1       8.849   0.654  -6.908  0.00  0.00    +0.021 A 
ATOM      6  C   UNL     1       8.659   1.940  -6.476  0.00  0.00    +0.016 A 
ATOM      7  C   UNL     1       8.238   2.147  -5.181  0.00  0.00    +0.010 A 
ATOM      8  C   UNL     1       8.036   1.077  -4.371  0.00  0.00    -0.027 A 
ATOM      9  S   UNL     1       8.432  -0.289  -5.451  0.00  0.00    -0.095 S 
BRANCH   5  14
ATOM     10  C   UNL     1       9.071   0.185 -10.628  0.00  0.00    +0.001 A 
ATOM     11  C   UNL     1      10.104  -0.731 -10.723  0.00  0.00    +0.001 A 
ATOM     12  C   UNL     1      10.731  -1.198  -9.582  0.00  0.00    +0.020 A 
ATOM     13  C   UNL     1      10.328  -0.752  -8.339  0.00  0.00    +0.049 A 
ATOM     14  C   UNL     1       9.286   0.173  -8.236  0.00  0.00    +0.007 A 
ATOM     15  C   UNL     1       8.656   0.635  -9.392  0.00  0.00    +0.010 A 
ATOM     16 CL   UNL     1      11.114  -1.339  -6.907  0.00  0.00    -0.083 Cl
ENDBRANCH   5  14
ENDBRANCH   4   8
ENDBRANCH   1   4
BRANCH   1  17
ATOM     17  C   UNL     1       5.644   0.953  -1.490  0.00  0.00    -0.082 C 
BRANCH  17  18
ATOM     18  C   UNL     1       4.116   0.884  -1.476  0.00  0.00    -0.013 C 
BRANCH  18  19
ATOM     19  C   UNL     1       3.621   0.853  -0.028  0.00  0.00    +0.057 C 
BRANCH  19  20
ATOM     20  C   UNL     1       2.115   0.786  -0.014  0.00  0.00    +0.082 A 
ATOM     21  C   UNL     1       1.338  -0.396  -0.013  0.00  0.00    +0.113 A 
ATOM     22  C   UNL     1       0.002  -0.004   0.002  0.00  0.00    +0.129 A 
ATOM     23  N   UNL     1      -0.016   1.345   0.009  0.00  0.00    -0.263 N 
ATOM     24  H   UNL     1      -0.976   1.882   0.021  0.00  0.00    +0.190 HD
ATOM     25  N   UNL     1       1.304   1.806  -0.001  0.00  0.00    -0.176 NA
BRANCH  22  26
ATOM     26  N   UNL     1      -1.098  -0.840   0.008  0.00  0.00    -0.342 N 
ATOM     27  H   UNL     1      -2.112  -0.414   0.020  0.00  0.00    +0.144 HD
ATOM     28  H   UNL     1      -0.960  -1.931   0.001  0.00  0.00    +0.144 HD
ENDBRANCH  22  26
BRANCH  21  29
ATOM     29  C   UNL     1       1.831  -1.740  -0.025  0.00  0.00    +0.104 C 
ATOM     30  N   UNL     1       2.223  -2.806  -0.035  0.00  0.00    -0.191 NA
ENDBRANCH  21  29
ENDBRANCH  19  20
ENDBRANCH  18  19
ENDBRANCH  17  18
ENDBRANCH   1  17
TORSDOF 9
