REMARK  Name = ZINC20207314
REMARK  11 active torsions:
REMARK  status: ('A' for Active; 'I' for Inactive)
REMARK    1  A    between atoms: C_1  and  C_2
REMARK    2  A    between atoms: C_7  and  C_8
REMARK    3  A    between atoms: C_8  and  O_9
REMARK    4  A    between atoms: O_9  and  C_10
REMARK    5  A    between atoms: C_13  and  C_18
REMARK    6  A    between atoms: C_15  and  O_16
REMARK    7  A    between atoms: O_16  and  C_17
REMARK    8  A    between atoms: C_29  and  S_30
REMARK    9  A    between atoms: S_30  and  C_33
REMARK   10  A    between atoms: C_33  and  C_34
REMARK   11  A    between atoms: C_33  and  C_35
REMARK                            x       y       z     vdW  Elec       q    Type
REMARK                         _______ _______ _______ _____ _____    ______ ____
ROOT
ATOM      1  C   UNL     1       0.023   0.953   8.759  0.00  0.00    +0.024 C 
ATOM      2  C   UNL     1      -0.515   0.352   9.874  0.00  0.00    +0.078 C 
ATOM      3  C   UNL     1      -0.495   1.012  11.212  0.00  0.00    +0.117 C 
ATOM      4  N   UNL     1      -0.572   2.305  11.376  0.00  0.00    -0.386 N 
ATOM      5  N   UNL     1      -0.385   0.099  12.279  0.00  0.00    -0.203 N 
ATOM      6  C   UNL     1      -0.790  -1.203  12.073  0.00  0.00    +0.183 C 
ATOM      7  N   UNL     1      -1.187  -1.730  10.937  0.00  0.00    -0.152 NA
ATOM      8  C   UNL     1      -1.153  -0.986   9.812  0.00  0.00    +0.273 C 
ATOM      9  O   UNL     1      -1.631  -1.403   8.770  0.00  0.00    -0.268 OA
ATOM     10  S   UNL     1      -0.628  -1.896  13.581  0.00  0.00    +0.049 S 
ATOM     11  N   UNL     1       0.036  -0.597  14.407  0.00  0.00    -0.174 NA
ATOM     12  C   UNL     1       0.076   0.354  13.526  0.00  0.00    +0.257 C 
ATOM     13  H   UNL     1      -0.555   2.894  10.606  0.00  0.00    +0.157 HD
ATOM     14  H   UNL     1      -0.646   2.677  12.269  0.00  0.00    +0.157 HD
ENDROOT
BRANCH   1  18
ATOM     15  C   UNL     1       0.390  -1.226   5.140  0.00  0.00    +0.162 A 
ATOM     16  C   UNL     1       0.003   0.108   5.110  0.00  0.00    +0.050 A 
ATOM     17  C   UNL     1      -0.118   0.820   6.282  0.00  0.00    +0.012 A 
ATOM     18  C   UNL     1       0.150   0.199   7.510  0.00  0.00    -0.021 A 
ATOM     19  C   UNL     1       0.540  -1.148   7.538  0.00  0.00    +0.057 A 
ATOM     20  C   UNL     1       0.653  -1.854   6.358  0.00  0.00    +0.162 A 
BRANCH  20  21
ATOM     21  O   UNL     1       1.026  -3.162   6.381  0.00  0.00    -0.491 OA
ATOM     22  C   UNL     1       1.279  -3.741   7.663  0.00  0.00    +0.277 C 
ENDBRANCH  20  21
BRANCH  15  23
ATOM     23  O   UNL     1       0.507  -1.922   3.980  0.00  0.00    -0.484 OA
BRANCH  23  24
ATOM     24  C   UNL     1       0.224  -1.219   2.769  0.00  0.00    +0.265 C 
BRANCH  24  31
ATOM     25  C   UNL     1      -0.236  -0.256   0.084  0.00  0.00    +0.044 C 
ATOM     26  C   UNL     1       0.185  -1.685   0.311  0.00  0.00    -0.044 A 
ATOM     27  C   UNL     1       0.358  -2.534  -0.767  0.00  0.00    +0.004 A 
ATOM     28  C   UNL     1       0.744  -3.845  -0.559  0.00  0.00    +0.000 A 
ATOM     29  C   UNL     1       0.959  -4.307   0.726  0.00  0.00    +0.000 A 
ATOM     30  C   UNL     1       0.788  -3.458   1.803  0.00  0.00    +0.007 A 
ATOM     31  C   UNL     1       0.405  -2.146   1.595  0.00  0.00    -0.007 A 
ENDBRANCH  24  31
ENDBRANCH  23  24
ENDBRANCH  15  23
ENDBRANCH   1  18
BRANCH  12  32
ATOM     32  S   UNL     1       0.716   1.942  13.943  0.00  0.00    +0.031 S 
ATOM     33  O   UNL     1       1.553   1.712  15.068  0.00  0.00    -0.166 OA
ATOM     34  O   UNL     1       1.256   2.445  12.729  0.00  0.00    -0.166 OA
BRANCH  32  35
ATOM     35  C   UNL     1      -0.734   2.916  14.432  0.00  0.00    +0.133 C 
ATOM     36  C   UNL     1      -1.363   2.301  15.684  0.00  0.00    +0.032 C 
ATOM     37  C   UNL     1      -0.306   4.354  14.730  0.00  0.00    +0.032 C 
ENDBRANCH  32  35
ENDBRANCH  12  32
TORSDOF 7
