REMARK  Name = ZINC02140134
REMARK  9 active torsions:
REMARK  status: ('A' for Active; 'I' for Inactive)
REMARK    1  A    between atoms: C_1  and  O_2
REMARK    2  A    between atoms: O_2  and  C_3
REMARK    3  A    between atoms: C_6  and  C_18
REMARK    4  A    between atoms: C_8  and  C_9
REMARK    5  A    between atoms: C_9  and  O_10
REMARK    6  A    between atoms: O_10  and  C_11
REMARK    7  A    between atoms: C_31  and  C_33
REMARK    8  A    between atoms: C_33  and  O_35
REMARK    9  A    between atoms: O_35  and  C_36
REMARK                            x       y       z     vdW  Elec       q    Type
REMARK                         _______ _______ _______ _____ _____    ______ ____
ROOT
ATOM      1  C   UNL     1       7.262   0.427  -0.062  0.00  0.00    +0.008 C 
ATOM      2  C   UNL     1       7.841   0.523   1.330  0.00  0.00    +0.010 A 
ATOM      3  C   UNL     1       9.171   0.495   1.579  0.00  0.00    -0.021 A 
ATOM      4  C   UNL     1       9.340   0.607   3.010  0.00  0.00    +0.003 A 
ATOM      5  C   UNL     1      10.468   0.633   3.836  0.00  0.00    +0.010 A 
ATOM      6  C   UNL     1      10.248   0.753   5.186  0.00  0.00    +0.001 A 
ATOM      7  C   UNL     1       8.973   0.846   5.718  0.00  0.00    +0.002 A 
ATOM      8  C   UNL     1       7.838   0.823   4.926  0.00  0.00    +0.026 A 
ATOM      9  C   UNL     1       8.031   0.702   3.551  0.00  0.00    +0.047 A 
ATOM     10  N   UNL     1       7.153   0.648   2.506  0.00  0.00    -0.359 N 
ATOM     11  H   UNL     1       6.187   0.693   2.586  0.00  0.00    +0.166 HD
ATOM     12  C   UNL     1      10.216   0.367   0.499  0.00  0.00    +0.033 C 
ATOM     13  C   UNL     1       9.548   0.678  -0.847  0.00  0.00    +0.045 C 
ATOM     14  N   UNL     1       8.300  -0.103  -0.973  0.00  0.00    +0.396 N 
ATOM     15  H   UNL     1       7.961  -0.045  -1.940  0.00  0.00    -0.083 HD
ATOM     16  H   UNL     1       8.490  -1.084  -0.735  0.00  0.00    -0.083 HD
ENDROOT
BRANCH   1  20
ATOM     17  C   UNL     1       3.916  -2.232  -0.038  0.00  0.00    +0.126 A 
ATOM     18  C   UNL     1       5.207  -2.740  -0.056  0.00  0.00    +0.046 A 
ATOM     19  C   UNL     1       6.287  -1.878  -0.063  0.00  0.00    +0.006 A 
ATOM     20  C   UNL     1       6.082  -0.511  -0.055  0.00  0.00    -0.055 A 
ATOM     21  C   UNL     1       4.797  -0.002  -0.041  0.00  0.00    +0.013 A 
ATOM     22  C   UNL     1       3.713  -0.859  -0.035  0.00  0.00    +0.031 A 
BRANCH  17  24
ATOM     23  C   UNL     1       3.136  -4.478  -0.030  0.00  0.00    +0.277 C 
ATOM     24  O   UNL     1       2.852  -3.077  -0.026  0.00  0.00    -0.495 OA
ENDBRANCH  17  24
BRANCH  22  25
ATOM     25  C   UNL     1       2.312  -0.304  -0.020  0.00  0.00    +0.268 C 
BRANCH  25  26
ATOM     26  O   UNL     1       2.366   1.124  -0.014  0.00  0.00    -0.484 OA
BRANCH  26  27
ATOM     27  C   UNL     1       1.179   1.786   0.000  0.00  0.00    +0.156 A 
ATOM     28  C   UNL     1      -0.013   1.076   0.008  0.00  0.00    +0.048 A 
ATOM     29  C   UNL     1      -1.218   1.751   0.017  0.00  0.00    +0.004 A 
ATOM     30  C   UNL     1      -1.239   3.133   0.030  0.00  0.00    +0.003 A 
ATOM     31  C   UNL     1      -0.054   3.845   0.022  0.00  0.00    +0.042 A 
ATOM     32  C   UNL     1       1.156   3.175   0.008  0.00  0.00    +0.165 A 
ATOM     33  F   UNL     1       2.315   3.870  -0.000  0.00  0.00    -0.202 F 
ENDBRANCH  26  27
ENDBRANCH  25  26
ENDBRANCH  22  25
ENDBRANCH   1  20
BRANCH  13  34
ATOM     34  C   UNL     1      10.480   0.300  -1.969  0.00  0.00    +0.293 C 
ATOM     35  O   UNL     1      10.325  -0.744  -2.558  0.00  0.00    -0.253 OA
BRANCH  34  36
ATOM     36  O   UNL     1      11.482   1.123  -2.315  0.00  0.00    -0.469 OA
ATOM     37  C   UNL     1      12.341   0.694  -3.405  0.00  0.00    +0.280 C 
ENDBRANCH  34  36
ENDBRANCH  13  34
TORSDOF 7
