REMARK  Name = ZINC16884776
REMARK  9 active torsions:
REMARK  status: ('A' for Active; 'I' for Inactive)
REMARK    1  A    between atoms: C_1  and  C_2
REMARK    2  A    between atoms: C_5  and  C_32
REMARK    3  A    between atoms: C_6  and  C_8
REMARK    4  A    between atoms: C_8  and  C_9
REMARK    5  A    between atoms: C_10  and  C_31
REMARK    6  A    between atoms: N_13  and  C_16
REMARK    7  A    between atoms: C_16  and  C_17
REMARK    8  A    between atoms: N_23  and  C_24
REMARK    9  A    between atoms: C_27  and  O_30
REMARK                            x       y       z     vdW  Elec       q    Type
REMARK                         _______ _______ _______ _____ _____    ______ ____
ROOT
ATOM      1  C   UNL     1      -0.811   1.502   1.209  0.00  0.00    +0.042 A 
ATOM      2  C   UNL     1      -1.813   0.766   1.773  0.00  0.00    +0.050 A 
ATOM      3  N   UNL     1      -2.352   1.148   2.929  0.00  0.00    -0.220 NA
ATOM      4  C   UNL     1      -1.939   2.233   3.553  0.00  0.00    +0.203 A 
ATOM      5  N   UNL     1      -0.944   3.006   3.038  0.00  0.00    -0.276 N 
ATOM      6  C   UNL     1      -0.361   2.658   1.871  0.00  0.00    +0.259 A 
ATOM      7  O   UNL     1       0.536   3.336   1.397  0.00  0.00    -0.267 OA
ATOM      8  N   UNL     1      -2.522   2.590   4.740  0.00  0.00    -0.285 N 
ATOM      9  C   UNL     1      -2.309  -0.480   1.087  0.00  0.00    +0.066 C 
ATOM     10  H   UNL     1      -2.285   3.429   5.164  0.00  0.00    +0.155 HD
ENDROOT
BRANCH   8  11
ATOM     11  C   UNL     1      -3.461   1.742   5.342  0.00  0.00    +0.034 A 
ATOM     12  C   UNL     1      -4.568   2.277   5.987  0.00  0.00    +0.027 A 
ATOM     13  C   UNL     1      -5.496   1.441   6.575  0.00  0.00    +0.047 A 
ATOM     14  C   UNL     1      -5.316   0.066   6.532  0.00  0.00    +0.117 A 
ATOM     15  C   UNL     1      -4.207  -0.470   5.894  0.00  0.00    +0.047 A 
ATOM     16  C   UNL     1      -3.281   0.366   5.300  0.00  0.00    +0.027 A 
BRANCH  14  17
ATOM     17  O   UNL     1      -6.226  -0.757   7.117  0.00  0.00    -0.507 OA
ATOM     18  H   UNL     1      -6.036  -0.959   8.043  0.00  0.00    +0.292 HD
ENDBRANCH  14  17
ENDBRANCH   8  11
BRANCH   1  19
ATOM     19  C   UNL     1      -0.193   1.078  -0.099  0.00  0.00    +0.077 C 
BRANCH  19  25
ATOM     20  C   UNL     1      -3.822   4.101  -1.752  0.00  0.00    +0.044 C 
ATOM     21  C   UNL     1      -2.619   3.235  -2.025  0.00  0.00    -0.050 A 
ATOM     22  C   UNL     1      -2.149   3.093  -3.317  0.00  0.00    +0.003 A 
ATOM     23  C   UNL     1      -1.046   2.299  -3.568  0.00  0.00    +0.004 A 
ATOM     24  C   UNL     1      -0.409   1.651  -2.525  0.00  0.00    -0.047 A 
ATOM     25  C   UNL     1      -0.883   1.788  -1.234  0.00  0.00    -0.040 A 
ATOM     26  C   UNL     1      -1.987   2.583  -0.984  0.00  0.00    +0.007 A 
ATOM     27  C   UNL     1       0.797   0.790  -2.797  0.00  0.00    +0.044 C 
ENDBRANCH  19  25
ENDBRANCH   1  19
BRANCH   5  28
ATOM     28  C   UNL     1      -0.503   4.207   3.750  0.00  0.00    +0.163 C 
BRANCH  28  29
ATOM     29  C   UNL     1       0.611   3.848   4.699  0.00  0.00    -0.028 A 
ATOM     30  C   UNL     1       0.320   3.473   5.997  0.00  0.00    +0.005 A 
ATOM     31  C   UNL     1       1.342   3.139   6.866  0.00  0.00    +0.000 A 
ATOM     32  C   UNL     1       2.656   3.190   6.440  0.00  0.00    +0.000 A 
ATOM     33  C   UNL     1       2.948   3.570   5.144  0.00  0.00    +0.000 A 
ATOM     34  C   UNL     1       1.925   3.899   4.273  0.00  0.00    +0.005 A 
ENDBRANCH  28  29
ENDBRANCH   5  28
TORSDOF 6
