REMARK  Name = ZINC63526728
REMARK  8 active torsions:
REMARK  status: ('A' for Active; 'I' for Inactive)
REMARK    1  A    between atoms: C_1  and  O_2
REMARK    2  A    between atoms: O_2  and  C_3
REMARK    3  A    between atoms: C_9  and  C_12
REMARK    4  A    between atoms: C_12  and  C_13
REMARK    5  A    between atoms: C_13  and  N_14
REMARK    6  A    between atoms: N_14  and  C_15
REMARK    7  A    between atoms: N_20  and  C_23
REMARK    8  A    between atoms: C_28  and  C_29
REMARK                            x       y       z     vdW  Elec       q    Type
REMARK                         _______ _______ _______ _____ _____    ______ ____
ROOT
ATOM      1  N   UNL     1      -0.757  -6.801   1.434  0.00  0.00    +0.387 N 
ATOM      2  H   UNL     1      -1.158  -7.550   0.890  0.00  0.00    -0.085 HD
ATOM      3  H   UNL     1       0.123  -6.523   1.026  0.00  0.00    -0.085 HD
ENDROOT
BRANCH   1   4
ATOM      4  C   UNL     1      -0.534  -7.260   2.811  0.00  0.00    +0.026 C 
ATOM      5  C   UNL     1       0.372  -8.508   2.827  0.00  0.00    +0.090 C 
ATOM      6  C   UNL     1       1.582  -8.058   3.616  0.00  0.00    +0.225 C 
ATOM      7  O   UNL     1       2.550  -8.743   3.868  0.00  0.00    -0.275 OA
ATOM      8  N   UNL     1       1.414  -6.784   3.991  0.00  0.00    -0.211 N 
ATOM      9  C   UNL     1       0.256  -6.234   3.594  0.00  0.00    +0.213 C 
ATOM     10  O   UNL     1      -0.101  -5.099   3.824  0.00  0.00    -0.277 OA
BRANCH   8  11
ATOM     11  C   UNL     1       2.369  -6.082   4.740  0.00  0.00    +0.055 A 
ATOM     12  C   UNL     1       3.364  -5.359   4.096  0.00  0.00    +0.024 A 
ATOM     13  C   UNL     1       4.303  -4.668   4.835  0.00  0.00    +0.002 A 
ATOM     14  C   UNL     1       4.253  -4.695   6.217  0.00  0.00    +0.001 A 
ATOM     15  C   UNL     1       3.263  -5.413   6.862  0.00  0.00    +0.014 A 
ATOM     16  C   UNL     1       2.317  -6.102   6.127  0.00  0.00    +0.077 A 
BRANCH  16  17
ATOM     17  C   UNL     1       1.235  -6.879   6.830  0.00  0.00    +0.419 C 
ATOM     18  F   UNL     1       1.391  -6.749   8.214  0.00  0.00    -0.166 F 
ATOM     19  F   UNL     1      -0.017  -6.381   6.454  0.00  0.00    -0.166 F 
ATOM     20  F   UNL     1       1.326  -8.230   6.476  0.00  0.00    -0.166 F 
ENDBRANCH  16  17
ENDBRANCH   8  11
ENDBRANCH   1   4
BRANCH   1  21
ATOM     21  C   UNL     1      -1.676  -5.655   1.443  0.00  0.00    -0.077 C 
BRANCH  21  22
ATOM     22  C   UNL     1      -1.908  -5.176   0.009  0.00  0.00    +0.014 C 
BRANCH  22  29
ATOM     23  C   UNL     1      -1.200  -0.637   0.010  0.00  0.00    +0.121 A 
ATOM     24  C   UNL     1      -2.375   0.135   0.020  0.00  0.00    +0.047 A 
ATOM     25  C   UNL     1      -3.607  -0.415   0.028  0.00  0.00    +0.029 A 
ATOM     26  C   UNL     1      -3.753  -1.875   0.027  0.00  0.00    +0.043 A 
ATOM     27  N   UNL     1      -4.809  -2.650   0.034  0.00  0.00    -0.380 N 
ATOM     28  C   UNL     1      -4.362  -4.047   0.029  0.00  0.00    +0.144 C 
ATOM     29  C   UNL     1      -2.851  -4.000   0.018  0.00  0.00    -0.043 C 
ATOM     30  C   UNL     1      -2.516  -2.690   0.016  0.00  0.00    +0.002 A 
ATOM     31  C   UNL     1      -1.226  -1.992   0.003  0.00  0.00    +0.055 A 
ATOM     32  H   UNL     1      -5.731  -2.350   0.042  0.00  0.00    +0.160 HD
BRANCH  23  34
ATOM     33  C   UNL     1      -0.017   1.425   0.010  0.00  0.00    +0.277 C 
ATOM     34  O   UNL     1       0.002  -0.004   0.002  0.00  0.00    -0.495 OA
ENDBRANCH  23  34
ENDBRANCH  22  29
ENDBRANCH  21  22
ENDBRANCH   1  21
TORSDOF 7
