REMARK  Name = ZINC08725580
REMARK  17 active torsions:
REMARK  status: ('A' for Active; 'I' for Inactive)
REMARK    1  A    between atoms: C_1  and  C_2
REMARK    2  A    between atoms: C_2  and  C_3
REMARK    3  A    between atoms: C_3  and  C_4
REMARK    4  A    between atoms: C_4  and  N_5
REMARK    5  A    between atoms: C_9  and  S_29
REMARK    6  A    between atoms: C_13  and  C_14
REMARK    7  A    between atoms: C_14  and  N_67
REMARK    8  A    between atoms: C_15  and  C_16
REMARK    9  A    between atoms: C_15  and  N_67
REMARK   10  A    between atoms: C_17  and  C_18
REMARK   11  A    between atoms: C_17  and  N_67
REMARK   12  A    between atoms: C_21  and  O_26
REMARK   13  A    between atoms: C_22  and  O_24
REMARK   14  A    between atoms: O_24  and  C_25
REMARK   15  A    between atoms: O_26  and  C_27
REMARK   16  A    between atoms: C_27  and  C_28
REMARK   17  A    between atoms: S_29  and  N_32
REMARK                            x       y       z     vdW  Elec       q    Type
REMARK                         _______ _______ _______ _____ _____    ______ ____
ROOT
ATOM      1  N   UNL     1      -1.611  -6.718   3.123  0.00  0.00    -0.329 N 
ATOM      2  C   UNL     1      -1.570  -7.110   4.447  0.00  0.00    +0.069 A 
ATOM      3  C   UNL     1      -2.537  -7.405   5.398  0.00  0.00    +0.030 A 
ATOM      4  C   UNL     1      -2.154  -7.770   6.671  0.00  0.00    +0.030 A 
ATOM      5  C   UNL     1      -0.809  -7.843   7.007  0.00  0.00    +0.107 A 
ATOM      6  C   UNL     1       0.156  -7.556   6.084  0.00  0.00    +0.058 A 
ATOM      7  C   UNL     1      -0.209  -7.184   4.787  0.00  0.00    +0.091 A 
ATOM      8  N   UNL     1       0.496  -6.847   3.676  0.00  0.00    -0.234 NA
ATOM      9  C   UNL     1      -0.325  -6.578   2.703  0.00  0.00    +0.094 A 
ENDROOT
BRANCH   5  10
ATOM     10  S   UNL     1      -0.343  -8.312   8.640  0.00  0.00    +0.056 S 
ATOM     11  O   UNL     1       0.956  -7.778   8.860  0.00  0.00    -0.153 OA
ATOM     12  O   UNL     1      -1.446  -8.003   9.481  0.00  0.00    -0.153 OA
BRANCH  10  13
ATOM     13  N   UNL     1      -0.185  -9.960   8.650  0.00  0.00    -0.204 NA
ATOM     14  H   UNL     1      -0.348 -10.468   7.840  0.00  0.00    +0.144 HD
ATOM     15  H   UNL     1       0.069 -10.418   9.467  0.00  0.00    +0.144 HD
ENDBRANCH  10  13
ENDBRANCH   5  10
BRANCH   1  16
ATOM     16  C   UNL     1      -2.816  -6.498   2.320  0.00  0.00    +0.123 C 
BRANCH  16  17
ATOM     17  C   UNL     1      -3.279  -7.827   1.721  0.00  0.00    +0.021 C 
BRANCH  17  19
ATOM     18  C   UNL     1      -4.929  -8.909   0.188  0.00  0.00    +0.004 C 
ATOM     19  C   UNL     1      -4.465  -7.580   0.786  0.00  0.00    -0.002 C 
ENDBRANCH  17  19
ENDBRANCH  16  17
ENDBRANCH   1  16
BRANCH   9  20
ATOM     20  C   UNL     1       0.090  -6.165   1.314  0.00  0.00    -0.003 C 
BRANCH  20  21
ATOM     21  N   UNL     1       0.223  -4.694   1.276  0.00  0.00    +0.387 N 
ATOM     22  H   UNL     1      -0.595  -4.273   1.732  0.00  0.00    -0.081 HD
BRANCH  21  23
ATOM     23  C   UNL     1       1.443  -4.278   2.000  0.00  0.00    -0.081 C 
ATOM     24  C   UNL     1       2.691  -4.836   1.313  0.00  0.00    -0.017 C 
ENDBRANCH  21  23
BRANCH  21  25
ATOM     25  C   UNL     1       0.284  -4.228  -0.125  0.00  0.00    -0.042 C 
BRANCH  25  26
ATOM     26  C   UNL     1       0.051  -2.739  -0.151  0.00  0.00    -0.060 A 
ATOM     27  C   UNL     1       1.128  -1.873  -0.183  0.00  0.00    +0.005 A 
ATOM     28  C   UNL     1       0.919  -0.507  -0.207  0.00  0.00    +0.049 A 
ATOM     29  C   UNL     1      -0.371  -0.003  -0.200  0.00  0.00    +0.162 A 
ATOM     30  C   UNL     1      -1.455  -0.875  -0.163  0.00  0.00    +0.162 A 
ATOM     31  C   UNL     1      -1.239  -2.243  -0.144  0.00  0.00    +0.051 A 
BRANCH  30  32
ATOM     32  O   UNL     1      -2.724  -0.385  -0.150  0.00  0.00    -0.491 OA
ATOM     33  C   UNL     1      -3.787  -1.339  -0.112  0.00  0.00    +0.277 C 
ENDBRANCH  30  32
BRANCH  29  34
ATOM     34  O   UNL     1      -0.578   1.341  -0.224  0.00  0.00    -0.489 OA
BRANCH  34  35
ATOM     35  C   UNL     1       0.581   2.176  -0.256  0.00  0.00    +0.226 C 
ATOM     36  C   UNL     1       0.152   3.644  -0.280  0.00  0.00    +0.048 C 
ENDBRANCH  34  35
ENDBRANCH  29  34
ENDBRANCH  25  26
ENDBRANCH  21  25
ENDBRANCH  20  21
ENDBRANCH   9  20
TORSDOF 13
