REMARK  Name = ZINC61642760
REMARK  8 active torsions:
REMARK  status: ('A' for Active; 'I' for Inactive)
REMARK    1  A    between atoms: C_1  and  N_2
REMARK    2  A    between atoms: N_2  and  C_3
REMARK    3  A    between atoms: N_2  and  C_4
REMARK    4  A    between atoms: C_4  and  C_5
REMARK    5  A    between atoms: N_10  and  C_11
REMARK    6  A    between atoms: C_11  and  C_13
REMARK    7  A    between atoms: C_11  and  C_15
REMARK    8  A    between atoms: C_13  and  N_14
REMARK                            x       y       z     vdW  Elec       q    Type
REMARK                         _______ _______ _______ _____ _____    ______ ____
ROOT
ATOM      1  C   UNL     1       0.463  -1.155   1.726  0.00  0.00    +0.106 C 
ENDROOT
BRANCH   1   2
ATOM      2  C   UNL     1       0.944   0.120   1.082  0.00  0.00    +0.123 A 
ATOM      3  C   UNL     1       1.099   1.304   1.702  0.00  0.00    +0.062 A 
ATOM      4  C   UNL     1       1.567   2.217   0.729  0.00  0.00    +0.070 A 
ATOM      5  C   UNL     1       1.670   1.536  -0.428  0.00  0.00    +0.184 A 
ATOM      6  O   UNL     1       1.296   0.265  -0.206  0.00  0.00    -0.450 OA
ATOM      7 BR   UNL     1       2.248   2.246  -2.083  0.00  0.00    -0.007 Br
ATOM      8 BR   UNL     1       1.971   4.045   1.000  0.00  0.00    -0.046 Br
ENDBRANCH   1   2
BRANCH   1  13
ATOM      9  C   UNL     1      -1.608  -1.337   0.477  0.00  0.00    +0.041 C 
ATOM     10  C   UNL     1      -2.679  -2.406   0.783  0.00  0.00    +0.018 C 
ATOM     11  C   UNL     1      -1.890  -3.736   0.663  0.00  0.00    +0.017 C 
ATOM     12  C   UNL     1      -0.505  -3.330   1.226  0.00  0.00    +0.085 C 
ATOM     13  N   UNL     1      -0.292  -1.945   0.744  0.00  0.00    -0.293 NA
BRANCH   9  14
ATOM     14  C   UNL     1      -1.814  -0.121   1.383  0.00  0.00    -0.061 C 
BRANCH  14  16
ATOM     15  C   UNL     1      -3.426   1.461   2.189  0.00  0.00    -0.097 C 
ATOM     16  N   UNL     1      -3.183   0.385   1.220  0.00  0.00    +0.377 N 
ATOM     17  C   UNL     1      -3.354   0.905  -0.143  0.00  0.00    -0.097 C 
ATOM     18  H   UNL     1      -3.840  -0.365   1.378  0.00  0.00    -0.083 HD
ENDBRANCH  14  16
ENDBRANCH   9  14
ENDBRANCH   1  13
BRANCH   1  19
ATOM     19  C   UNL     1       1.666  -1.964   2.216  0.00  0.00    -0.059 C 
BRANCH  19  20
ATOM     20  N   UNL     1       1.195  -3.130   2.975  0.00  0.00    +0.379 N 
ATOM     21  H   UNL     1       0.375  -2.877   3.505  0.00  0.00    -0.090 HD
ATOM     22  H   UNL     1       0.966  -3.877   2.337  0.00  0.00    -0.090 HD
ATOM     23  H   UNL     1       1.921  -3.437   3.605  0.00  0.00    -0.090 HD
ENDBRANCH  19  20
ENDBRANCH   1  19
TORSDOF 6
