REMARK  Name = ZINC39988949
REMARK  4 active torsions:
REMARK  status: ('A' for Active; 'I' for Inactive)
REMARK    1  A    between atoms: C_4  and  C_7
REMARK    2  A    between atoms: C_17  and  C_19
REMARK    3  A    between atoms: C_22  and  C_25
REMARK    4  A    between atoms: C_30  and  C_32
REMARK                            x       y       z     vdW  Elec       q    Type
REMARK                         _______ _______ _______ _____ _____    ______ ____
ROOT
ATOM      1  C   UNL     1       3.411  -0.617   0.094  0.00  0.00    -0.014 C 
ATOM      2  C   UNL     1       4.609   0.102   0.050  0.00  0.00    +0.002 A 
ATOM      3  C   UNL     1       4.601   1.510  -0.032  0.00  0.00    +0.030 A 
ATOM      4  C   UNL     1       5.782   2.186  -0.073  0.00  0.00    +0.042 A 
ATOM      5  C   UNL     1       7.003   1.514  -0.036  0.00  0.00    +0.022 A 
ATOM      6  C   UNL     1       7.073   0.156   0.043  0.00  0.00    +0.025 A 
ATOM      7  C   UNL     1       5.893  -0.606   0.090  0.00  0.00    +0.041 A 
ATOM      8  N   UNL     1       5.964  -1.940   0.168  0.00  0.00    -0.284 N 
ATOM      9  C   UNL     1       4.906  -2.724   0.215  0.00  0.00    +0.230 C 
ATOM     10  O   UNL     1       5.046  -3.931   0.285  0.00  0.00    -0.274 OA
ATOM     11  C   UNL     1       3.517  -2.127   0.189  0.00  0.00    +0.152 C 
ATOM     12 CL   UNL     1       5.768   3.919  -0.175  0.00  0.00    -0.084 Cl
ATOM     13  H   UNL     1       6.842  -2.351   0.191  0.00  0.00    +0.155 HD
ENDROOT
BRANCH  11  14
ATOM     14  C   UNL     1       2.787  -2.717  -0.990  0.00  0.00    +0.056 C 
ATOM     15  N   UNL     1       2.276  -2.049  -1.941  0.00  0.00    -0.184 NA
ATOM     16  N   UNL     1       1.652  -2.821  -2.918  0.00  0.00    -0.178 N 
ATOM     17  C   UNL     1       1.772  -4.241  -2.546  0.00  0.00    +0.173 C 
ATOM     18  C   UNL     1       2.558  -4.194  -1.220  0.00  0.00    +0.086 C 
ATOM     19  C   UNL     1       1.039  -2.348  -4.022  0.00  0.00    +0.269 C 
ATOM     20  O   UNL     1       0.426  -3.105  -4.750  0.00  0.00    -0.268 OA
BRANCH  19  21
ATOM     21  C   UNL     1       1.112  -0.909  -4.346  0.00  0.00    +0.074 A 
ATOM     22  C   UNL     1       1.937  -0.062  -3.602  0.00  0.00    +0.016 A 
ATOM     23  C   UNL     1       2.000   1.280  -3.910  0.00  0.00    +0.001 A 
ATOM     24  C   UNL     1       1.249   1.791  -4.955  0.00  0.00    +0.003 A 
ATOM     25  C   UNL     1       0.430   0.962  -5.697  0.00  0.00    +0.039 A 
ATOM     26  C   UNL     1       0.360  -0.388  -5.404  0.00  0.00    +0.136 A 
ATOM     27  F   UNL     1      -0.436  -1.200  -6.134  0.00  0.00    -0.205 F 
ENDBRANCH  19  21
BRANCH  17  28
ATOM     28  C   UNL     1       0.410  -4.855  -2.346  0.00  0.00    +0.128 A 
ATOM     29  C   UNL     1       0.048  -6.099  -2.705  0.00  0.00    +0.046 A 
ATOM     30  C   UNL     1      -1.307  -6.255  -2.332  0.00  0.00    +0.041 A 
ATOM     31  C   UNL     1      -1.691  -5.097  -1.766  0.00  0.00    +0.195 A 
ATOM     32  O   UNL     1      -0.645  -4.255  -1.772  0.00  0.00    -0.466 OA
ENDBRANCH  17  28
ENDBRANCH  11  14
BRANCH   1  36
ATOM     33  C   UNL     1      -0.306   1.314  -0.012  0.00  0.00    +0.000 A 
ATOM     34  C   UNL     1      -0.080   0.307   0.912  0.00  0.00    +0.001 A 
ATOM     35  C   UNL     1       1.138  -0.334   0.955  0.00  0.00    +0.008 A 
ATOM     36  C   UNL     1       2.153   0.036   0.058  0.00  0.00    -0.020 A 
ATOM     37  C   UNL     1       1.914   1.058  -0.875  0.00  0.00    +0.008 A 
ATOM     38  C   UNL     1       0.689   1.687  -0.901  0.00  0.00    +0.001 A 
ENDBRANCH   1  36
TORSDOF 4
