REMARK  Name = ZINC01033164
REMARK  8 active torsions:
REMARK  status: ('A' for Active; 'I' for Inactive)
REMARK    1  A    between atoms: C_1  and  C_2
REMARK    2  A    between atoms: C_5  and  S_8
REMARK    3  A    between atoms: S_8  and  N_11
REMARK    4  A    between atoms: N_11  and  N_12
REMARK    5  A    between atoms: C_13  and  C_24
REMARK    6  A    between atoms: C_28  and  O_31
REMARK    7  A    between atoms: C_29  and  O_30
REMARK    8  A    between atoms: O_31  and  C_32
REMARK                            x       y       z     vdW  Elec       q    Type
REMARK                         _______ _______ _______ _____ _____    ______ ____
ROOT
ATOM      1  N   UNL     1       2.596   4.191  -0.291  0.00  0.00    -0.189 N 
ATOM      2  C   UNL     1       3.836   3.653  -0.849  0.00  0.00    +0.214 C 
ATOM      3  N   UNL     1       4.029   2.264  -0.415  0.00  0.00    -0.320 N 
ATOM      4  C   UNL     1       2.941   1.399  -0.454  0.00  0.00    +0.041 A 
ATOM      5  C   UNL     1       3.093   0.039  -0.661  0.00  0.00    +0.024 A 
ATOM      6  C   UNL     1       1.978  -0.776  -0.696  0.00  0.00    +0.002 A 
ATOM      7  C   UNL     1       0.710  -0.243  -0.526  0.00  0.00    +0.001 A 
ATOM      8  C   UNL     1       0.541   1.110  -0.317  0.00  0.00    +0.015 A 
ATOM      9  C   UNL     1       1.657   1.943  -0.278  0.00  0.00    +0.059 A 
ATOM     10  C   UNL     1       1.534   3.394  -0.050  0.00  0.00    +0.265 C 
ATOM     11  O   UNL     1       0.488   3.868   0.351  0.00  0.00    -0.268 OA
ATOM     12  H   UNL     1       4.896   1.956  -0.107  0.00  0.00    +0.148 HD
ENDROOT
BRANCH   2  13
ATOM     13  C   UNL     1       3.768   3.700  -2.354  0.00  0.00    +0.037 A 
ATOM     14  C   UNL     1       2.893   4.570  -2.979  0.00  0.00    +0.011 A 
ATOM     15  C   UNL     1       2.828   4.616  -4.359  0.00  0.00    +0.004 A 
ATOM     16  C   UNL     1       3.637   3.792  -5.120  0.00  0.00    +0.049 A 
ATOM     17  C   UNL     1       4.515   2.919  -4.500  0.00  0.00    +0.162 A 
ATOM     18  C   UNL     1       4.585   2.876  -3.111  0.00  0.00    +0.165 A 
BRANCH  18  19
ATOM     19  O   UNL     1       5.449   2.024  -2.497  0.00  0.00    -0.503 OA
ATOM     20  H   UNL     1       5.076   1.152  -2.311  0.00  0.00    +0.292 HD
ENDBRANCH  18  19
BRANCH  17  21
ATOM     21  O   UNL     1       5.311   2.108  -5.248  0.00  0.00    -0.491 OA
ATOM     22  C   UNL     1       5.190   2.210  -6.668  0.00  0.00    +0.277 C 
ENDBRANCH  17  21
ENDBRANCH   2  13
BRANCH   1  23
ATOM     23  N   UNL     1       2.509   5.559  -0.001  0.00  0.00    -0.103 NA
ATOM     24  H   UNL     1       2.142   6.172  -0.657  0.00  0.00    +0.172 HD
BRANCH  23  25
ATOM     25  S   UNL     1       3.033   6.130   1.463  0.00  0.00    +0.074 S 
ATOM     26  O   UNL     1       2.948   7.547   1.400  0.00  0.00    -0.152 OA
ATOM     27  O   UNL     1       2.361   5.370   2.459  0.00  0.00    -0.152 OA
BRANCH  25  32
ATOM     28  C   UNL     1       8.894   4.771   1.916  0.00  0.00    +0.044 C 
ATOM     29  C   UNL     1       7.430   5.110   1.803  0.00  0.00    -0.050 A 
ATOM     30  C   UNL     1       7.036   6.258   1.141  0.00  0.00    +0.005 A 
ATOM     31  C   UNL     1       5.693   6.569   1.037  0.00  0.00    +0.029 A 
ATOM     32  C   UNL     1       4.744   5.733   1.595  0.00  0.00    +0.107 A 
ATOM     33  C   UNL     1       5.139   4.588   2.261  0.00  0.00    +0.029 A 
ATOM     34  C   UNL     1       6.481   4.274   2.360  0.00  0.00    +0.005 A 
ENDBRANCH  25  32
ENDBRANCH  23  25
ENDBRANCH   1  23
TORSDOF 6
