REMARK  Name = ZINC19346123
REMARK  7 active torsions:
REMARK  status: ('A' for Active; 'I' for Inactive)
REMARK    1  A    between atoms: C_9  and  C_11
REMARK    2  A    between atoms: C_11  and  C_12
REMARK    3  A    between atoms: C_12  and  C_13
REMARK    4  A    between atoms: C_13  and  N_14
REMARK    5  A    between atoms: C_15  and  C_17
REMARK    6  A    between atoms: C_17  and  C_18
REMARK    7  A    between atoms: N_25  and  C_26
REMARK                            x       y       z     vdW  Elec       q    Type
REMARK                         _______ _______ _______ _____ _____    ______ ____
ROOT
ATOM      1  N   UNL     1       8.423   2.944  -2.996  0.00  0.00    -0.315 N 
ATOM      2  C   UNL     1       9.757   3.128  -2.936  0.00  0.00    +0.212 C 
ATOM      3  O   UNL     1      10.415   2.532  -2.110  0.00  0.00    -0.276 OA
ATOM      4  H   UNL     1       7.896   3.421  -3.657  0.00  0.00    +0.149 HD
ENDROOT
BRANCH   1   5
ATOM      5  C   UNL     1       7.768   2.024  -2.062  0.00  0.00    +0.104 C 
BRANCH   5   6
ATOM      6  C   UNL     1       6.263   2.000  -2.341  0.00  0.00    +0.026 C 
BRANCH   6   7
ATOM      7  C   UNL     1       5.579   1.040  -1.366  0.00  0.00    +0.076 C 
BRANCH   7  16
ATOM      8  C   UNL     1      -0.301   1.709  -2.370  0.00  0.00    +0.040 A 
ATOM      9  C   UNL     1       0.851   2.385  -2.083  0.00  0.00    +0.032 A 
ATOM     10  C   UNL     1       2.052   1.686  -1.941  0.00  0.00    +0.089 A 
ATOM     11  C   UNL     1       2.063   0.289  -2.097  0.00  0.00    +0.069 A 
ATOM     12  C   UNL     1       0.884  -0.383  -2.389  0.00  0.00    +0.066 A 
ATOM     13  C   UNL     1      -0.292   0.328  -2.525  0.00  0.00    +0.125 A 
ATOM     14  F   UNL     1      -1.441  -0.324  -2.808  0.00  0.00    -0.205 F 
ATOM     15  N   UNL     1       3.371  -0.105  -1.901  0.00  0.00    -0.342 N 
ATOM     16  C   UNL     1       4.098   1.016  -1.641  0.00  0.00    +0.108 A 
ATOM     17  N   UNL     1       3.327   2.063  -1.665  0.00  0.00    -0.232 NA
ATOM     18  H   UNL     1       3.710  -1.014  -1.941  0.00  0.00    +0.167 HD
ENDBRANCH   7  16
ENDBRANCH   6   7
ENDBRANCH   5   6
ENDBRANCH   1   5
BRANCH   2  19
ATOM     19  C   UNL     1      10.431   4.074  -3.897  0.00  0.00    +0.089 C 
BRANCH  19  20
ATOM     20  C   UNL     1      11.949   3.938  -3.765  0.00  0.00    +0.028 C 
ATOM     21  C   UNL     1      12.369   4.361  -2.386  0.00  0.00    +0.200 C 
ATOM     22  O   UNL     1      11.854   5.343  -1.896  0.00  0.00    -0.278 OA
ATOM     23  N   UNL     1      13.289   3.697  -1.676  0.00  0.00    -0.318 N 
ATOM     24  C   UNL     1      13.943   2.488  -2.171  0.00  0.00    +0.085 C 
ATOM     25  C   UNL     1      13.762   2.381  -3.686  0.00  0.00    -0.058 C 
ATOM     26  N   UNL     1      12.335   2.541  -4.003  0.00  0.00    +0.390 N 
ATOM     27  H   UNL     1      13.530   4.032  -0.798  0.00  0.00    +0.149 HD
ATOM     28  H   UNL     1      11.786   1.934  -3.413  0.00  0.00    -0.080 HD
BRANCH  26  29
ATOM     29  C   UNL     1      12.105   2.200  -5.413  0.00  0.00    -0.067 C 
ATOM     30  C   UNL     1      10.591   2.138  -5.702  0.00  0.00    -0.015 C 
ATOM     31  C   UNL     1      10.443   0.964  -6.701  0.00  0.00    -0.002 C 
ATOM     32  C   UNL     1      11.477  -0.063  -6.177  0.00  0.00    -0.002 C 
ATOM     33  C   UNL     1      12.668   0.801  -5.715  0.00  0.00    -0.015 C 
ENDBRANCH  26  29
ENDBRANCH  19  20
ENDBRANCH   2  19
TORSDOF 7
