REMARK  Name = ZINC22053045
REMARK  10 active torsions:
REMARK  status: ('A' for Active; 'I' for Inactive)
REMARK    1  A    between atoms: C_1  and  C_2
REMARK    2  A    between atoms: C_2  and  C_4
REMARK    3  A    between atoms: C_2  and  N_21
REMARK    4  A    between atoms: C_12  and  N_14
REMARK    5  A    between atoms: N_14  and  C_15
REMARK    6  A    between atoms: N_24  and  S_27
REMARK    7  A    between atoms: S_27  and  C_30
REMARK    8  A    between atoms: C_33  and  C_36
REMARK    9  A    between atoms: C_36  and  C_37
REMARK   10  A    between atoms: C_36  and  C_38
REMARK                            x       y       z     vdW  Elec       q    Type
REMARK                         _______ _______ _______ _____ _____    ______ ____
ROOT
ATOM      1  C   UNL     1      -0.019   1.526   0.010  0.00  0.00    +0.032 C 
ATOM      2  C   UNL     1       0.002  -0.004   0.002  0.00  0.00    +0.120 C 
ENDROOT
BRANCH   2   3
ATOM      3  C   UNL     1       0.731  -0.503   1.223  0.00  0.00    +0.127 A 
ATOM      4  N   UNL     1       2.039  -0.594   1.178  0.00  0.00    -0.342 N 
ATOM      5  C   UNL     1       2.727  -1.034   2.242  0.00  0.00    +0.051 A 
ATOM      6  C   UNL     1       4.124  -1.143   2.229  0.00  0.00    +0.026 A 
ATOM      7  C   UNL     1       4.774  -1.596   3.339  0.00  0.00    +0.002 A 
ATOM      8  C   UNL     1       4.071  -1.952   4.487  0.00  0.00    +0.001 A 
ATOM      9  C   UNL     1       2.711  -1.857   4.533  0.00  0.00    +0.013 A 
ATOM     10  C   UNL     1       2.014  -1.396   3.411  0.00  0.00    +0.038 A 
ATOM     11  C   UNL     1       0.603  -1.275   3.398  0.00  0.00    +0.130 A 
ATOM     12  N   UNL     1       0.023  -0.825   2.294  0.00  0.00    -0.217 NA
ATOM     13  H   UNL     1       2.512  -0.342   0.369  0.00  0.00    +0.167 HD
BRANCH  11  14
ATOM     14  N   UNL     1      -0.146  -1.612   4.505  0.00  0.00    -0.326 N 
ATOM     15  H   UNL     1       0.292  -1.937   5.307  0.00  0.00    +0.148 HD
BRANCH  14  16
ATOM     16  C   UNL     1      -1.605  -1.479   4.470  0.00  0.00    +0.072 C 
ATOM     17  C   UNL     1      -1.995  -0.043   4.825  0.00  0.00    +0.022 C 
ATOM     18  C   UNL     1      -3.518   0.096   4.789  0.00  0.00    +0.002 C 
ATOM     19  C   UNL     1      -4.142  -0.867   5.801  0.00  0.00    +0.000 C 
ATOM     20  C   UNL     1      -3.752  -2.304   5.446  0.00  0.00    +0.002 C 
ATOM     21  C   UNL     1      -2.229  -2.442   5.482  0.00  0.00    +0.022 C 
ENDBRANCH  14  16
ENDBRANCH  11  14
ENDBRANCH   2   3
BRANCH   2  22
ATOM     22  N   UNL     1      -1.376  -0.512   0.012  0.00  0.00    -0.290 NA
ATOM     23  C   UNL     1      -1.396  -1.978   0.108  0.00  0.00    +0.102 C 
ATOM     24  C   UNL     1      -2.840  -2.455   0.298  0.00  0.00    +0.125 C 
ATOM     25  N   UNL     1      -3.664  -1.891  -0.781  0.00  0.00    -0.174 NA
ATOM     26  C   UNL     1      -3.592  -0.443  -1.028  0.00  0.00    +0.125 C 
ATOM     27  C   UNL     1      -2.119  -0.045  -1.166  0.00  0.00    +0.102 C 
BRANCH  25  28
ATOM     28  S   UNL     1      -4.648  -2.861  -1.695  0.00  0.00    +0.061 S 
ATOM     29  O   UNL     1      -4.848  -2.187  -2.930  0.00  0.00    -0.153 OA
ATOM     30  O   UNL     1      -4.106  -4.172  -1.622  0.00  0.00    -0.153 OA
BRANCH  28  31
ATOM     31  C   UNL     1      -6.215  -2.917  -0.892  0.00  0.00    +0.105 A 
ATOM     32  C   UNL     1      -6.471  -3.890   0.056  0.00  0.00    +0.029 A 
ATOM     33  C   UNL     1      -7.701  -3.935   0.686  0.00  0.00    +0.006 A 
ATOM     34  C   UNL     1      -8.674  -3.006   0.369  0.00  0.00    -0.045 A 
ATOM     35  C   UNL     1      -8.417  -2.032  -0.579  0.00  0.00    +0.006 A 
ATOM     36  C   UNL     1      -7.186  -1.985  -1.206  0.00  0.00    +0.029 A 
BRANCH  34  37
ATOM     37  C   UNL     1     -10.015  -3.055   1.055  0.00  0.00    +0.013 C 
ATOM     38  C   UNL     1     -10.254  -1.741   1.802  0.00  0.00    +0.012 C 
ATOM     39  C   UNL     1     -11.115  -3.255   0.011  0.00  0.00    +0.012 C 
ENDBRANCH  34  37
ENDBRANCH  28  31
ENDBRANCH  25  28
ENDBRANCH   2  22
TORSDOF 7
