REMARK  Name = ZINC12794843
REMARK  9 active torsions:
REMARK  status: ('A' for Active; 'I' for Inactive)
REMARK    1  A    between atoms: C_1  and  C_2
REMARK    2  A    between atoms: C_2  and  O_3
REMARK    3  A    between atoms: O_3  and  C_4
REMARK    4  A    between atoms: C_7  and  C_10
REMARK    5  A    between atoms: N_11  and  N_12
REMARK    6  A    between atoms: C_13  and  C_19
REMARK    7  A    between atoms: N_17  and  C_18
REMARK    8  A    between atoms: C_22  and  O_26
REMARK    9  A    between atoms: C_24  and  O_25
REMARK                            x       y       z     vdW  Elec       q    Type
REMARK                         _______ _______ _______ _____ _____    ______ ____
ROOT
ATOM      1  N   UNL     1       1.219   1.934  -0.030  0.00  0.00    -0.208 N 
ATOM      2  C   UNL     1       1.309   3.299   0.047  0.00  0.00    +0.085 A 
ATOM      3  C   UNL     1       2.519   3.892   0.004  0.00  0.00    +0.077 A 
ATOM      4  S   UNL     1       3.619   2.494  -0.153  0.00  0.00    -0.056 S 
ATOM      5  C   UNL     1       2.385   1.203  -0.145  0.00  0.00    +0.189 A 
ATOM      6  N   UNL     1       2.544  -0.094  -0.229  0.00  0.00    -0.263 NA
ATOM      7  C   UNL     1       3.890  -0.661  -0.346  0.00  0.00    +0.173 C 
ENDROOT
BRANCH   2   8
ATOM      8  C   UNL     1       0.085   4.117   0.178  0.00  0.00    +0.043 A 
ATOM      9  C   UNL     1      -1.000   3.642   0.914  0.00  0.00    +0.017 A 
ATOM     10  C   UNL     1      -2.141   4.408   1.034  0.00  0.00    +0.046 A 
ATOM     11  C   UNL     1      -2.213   5.653   0.424  0.00  0.00    +0.120 A 
ATOM     12  C   UNL     1      -1.139   6.134  -0.311  0.00  0.00    +0.091 A 
ATOM     13  C   UNL     1       0.012   5.375  -0.433  0.00  0.00    +0.129 A 
BRANCH  13  14
ATOM     14  O   UNL     1       1.067   5.848  -1.147  0.00  0.00    -0.506 OA
ATOM     15  H   UNL     1       1.046   5.611  -2.084  0.00  0.00    +0.292 HD
ENDBRANCH  13  14
BRANCH  11  16
ATOM     16  O   UNL     1      -3.340   6.404   0.547  0.00  0.00    -0.507 OA
ATOM     17  H   UNL     1      -3.336   6.997   1.310  0.00  0.00    +0.292 HD
ENDBRANCH  11  16
ENDBRANCH   2   8
BRANCH   1  19
ATOM     18  C   UNL     1      -0.171   0.119  -0.522  0.00  0.00    +0.141 C 
ATOM     19  N   UNL     1      -0.026   1.294   0.012  0.00  0.00    -0.172 NA
BRANCH  18  23
ATOM     20  C   UNL     1      -3.833  -1.980  -0.070  0.00  0.00    +0.121 A 
ATOM     21  C   UNL     1      -2.791  -2.552  -0.789  0.00  0.00    +0.046 A 
ATOM     22  C   UNL     1      -1.601  -1.874  -0.938  0.00  0.00    +0.013 A 
ATOM     23  C   UNL     1      -1.443  -0.609  -0.365  0.00  0.00    -0.005 A 
ATOM     24  C   UNL     1      -2.492  -0.040   0.362  0.00  0.00    +0.013 A 
ATOM     25  C   UNL     1      -3.681  -0.723   0.501  0.00  0.00    +0.046 A 
BRANCH  20  26
ATOM     26  O   UNL     1      -5.005  -2.652   0.075  0.00  0.00    -0.492 OA
BRANCH  26  28
ATOM     27  C   UNL     1      -7.269  -2.909   0.880  0.00  0.00    +0.048 C 
ATOM     28  C   UNL     1      -6.035  -2.006   0.826  0.00  0.00    +0.225 C 
ENDBRANCH  26  28
ENDBRANCH  20  26
ENDBRANCH  18  23
ENDBRANCH   1  19
TORSDOF 7
