REMARK  Name = ZINC02641157
REMARK  4 active torsions:
REMARK  status: ('A' for Active; 'I' for Inactive)
REMARK    1  A    between atoms: C_4  and  N_7
REMARK    2  A    between atoms: C_16  and  C_18
REMARK    3  A    between atoms: C_18  and  S_19
REMARK    4  A    between atoms: S_19  and  C_20
REMARK                            x       y       z     vdW  Elec       q    Type
REMARK                         _______ _______ _______ _____ _____    ______ ____
ROOT
ATOM      1  N   UNL     1       1.388   3.354   0.006  0.00  0.00    -0.214 N 
ATOM      2  C   UNL     1       1.114   2.021   0.002  0.00  0.00    +0.170 A 
ATOM      3  C   UNL     1       2.352   1.358  -0.013  0.00  0.00    +0.103 A 
ATOM      4  C   UNL     1       3.355   2.346  -0.017  0.00  0.00    +0.150 A 
ATOM      5  N   UNL     1       2.779   3.517  -0.005  0.00  0.00    -0.172 NA
ATOM      6  C   UNL     1       2.350  -0.104  -0.021  0.00  0.00    +0.262 A 
ATOM      7  O   UNL     1       3.392  -0.737  -0.034  0.00  0.00    -0.267 OA
ATOM      8  N   UNL     1       1.149  -0.729  -0.012  0.00  0.00    -0.310 N 
ATOM      9  H   UNL     1       1.107  -1.728  -0.017  0.00  0.00    +0.170 HD
ATOM     10  C   UNL     1       0.002  -0.004   0.002  0.00  0.00    +0.122 A 
ATOM     11  N   UNL     1      -0.016   1.297   0.009  0.00  0.00    -0.213 NA
ENDROOT
BRANCH   1  15
ATOM     12  C   UNL     1      -1.430   6.425   0.047  0.00  0.00    +0.000 A 
ATOM     13  C   UNL     1      -0.234   6.577   0.725  0.00  0.00    +0.002 A 
ATOM     14  C   UNL     1       0.702   5.561   0.714  0.00  0.00    +0.028 A 
ATOM     15  C   UNL     1       0.441   4.386   0.020  0.00  0.00    +0.068 A 
ATOM     16  C   UNL     1      -0.759   4.239  -0.664  0.00  0.00    +0.028 A 
ATOM     17  C   UNL     1      -1.692   5.257  -0.644  0.00  0.00    +0.002 A 
ENDBRANCH   1  15
BRANCH  10  18
ATOM     18  C   UNL     1      -1.313  -0.741   0.011  0.00  0.00    +0.153 C 
BRANCH  18  19
ATOM     19  S   UNL     1      -2.673   0.453   0.030  0.00  0.00    -0.059 S 
BRANCH  19  20
ATOM     20  C   UNL     1      -4.048  -0.649   0.037  0.00  0.00    +0.258 A 
ATOM     21  N   UNL     1      -5.304  -0.281   0.051  0.00  0.00    -0.203 NA
ATOM     22  C   UNL     1      -6.085  -1.396   0.053  0.00  0.00    +0.112 A 
ATOM     23  C   UNL     1      -7.465  -1.606   0.064  0.00  0.00    +0.051 A 
ATOM     24  C   UNL     1      -7.961  -2.893   0.062  0.00  0.00    +0.043 A 
ATOM     25  C   UNL     1      -7.096  -3.977   0.048  0.00  0.00    +0.024 A 
ATOM     26  C   UNL     1      -5.729  -3.783   0.036  0.00  0.00    +0.050 A 
ATOM     27  C   UNL     1      -5.215  -2.497   0.038  0.00  0.00    +0.156 A 
ATOM     28  O   UNL     1      -3.959  -1.991   0.023  0.00  0.00    -0.431 OA
ATOM     29 CL   UNL     1      -9.676  -3.156   0.076  0.00  0.00    -0.083 Cl
ENDBRANCH  19  20
ENDBRANCH  18  19
ENDBRANCH  10  18
TORSDOF 4
