REMARK  Name = ZINC63023934
REMARK  7 active torsions:
REMARK  status: ('A' for Active; 'I' for Inactive)
REMARK    1  A    between atoms: C_1  and  C_2
REMARK    2  A    between atoms: C_2  and  C_3
REMARK    3  A    between atoms: C_2  and  C_4
REMARK    4  A    between atoms: C_4  and  C_6
REMARK    5  A    between atoms: C_4  and  C_20
REMARK    6  A    between atoms: C_15  and  N_16
REMARK    7  A    between atoms: C_20  and  C_22
REMARK                            x       y       z     vdW  Elec       q    Type
REMARK                         _______ _______ _______ _____ _____    ______ ____
ROOT
ATOM      1  C   UNL     1      -0.112  -0.681   2.974  0.00  0.00    +0.004 A 
ATOM      2  C   UNL     1       0.209   0.132   4.077  0.00  0.00    +0.007 A 
ATOM      3  C   UNL     1       1.492   0.118   4.648  0.00  0.00    +0.025 A 
ATOM      4  C   UNL     1       1.762   0.921   5.715  0.00  0.00    +0.019 A 
ATOM      5  C   UNL     1       0.782   1.756   6.248  0.00  0.00    +0.017 A 
ATOM      6  C   UNL     1      -0.471   1.794   5.720  0.00  0.00    +0.029 A 
ATOM      7  C   UNL     1      -0.789   0.981   4.618  0.00  0.00    +0.071 A 
ATOM      8  N   UNL     1      -2.011   0.999   4.077  0.00  0.00    -0.253 NA
ATOM      9  C   UNL     1      -2.313   0.243   3.049  0.00  0.00    +0.144 A 
ATOM     10  C   UNL     1      -1.378  -0.611   2.467  0.00  0.00    +0.149 A 
ATOM     11 BR   UNL     1       3.490   0.901   6.483  0.00  0.00    -0.050 Br
ENDROOT
BRANCH  10  12
ATOM     12  N   UNL     1      -1.758  -1.444   1.304  0.00  0.00    +0.058 N 
ATOM     13  O   UNL     1      -2.837  -1.988   1.278  0.00  0.00    -0.126 OA
ATOM     14  O   UNL     1      -0.989  -1.580   0.381  0.00  0.00    -0.126 OA
ENDBRANCH  10  12
BRANCH   1  15
ATOM     15  C   UNL     1       0.916  -1.599   2.365  0.00  0.00    +0.090 C 
BRANCH  15  17
ATOM     16  C   UNL     1       0.272  -3.256   4.120  0.00  0.00    +0.008 C 
ATOM     17  C   UNL     1       1.446  -2.554   3.436  0.00  0.00    -0.003 C 
ATOM     18  C   UNL     1       2.356  -3.598   2.785  0.00  0.00    +0.008 C 
ENDBRANCH  15  17
BRANCH  15  19
ATOM     19  C   UNL     1       2.055  -0.782   1.812  0.00  0.00    +0.138 C 
ATOM     20  O   UNL     1       3.122  -0.772   2.379  0.00  0.00    -0.297 OA
ATOM     21  C   UNL     1       1.864   0.023   0.553  0.00  0.00    +0.086 C 
ENDBRANCH  15  19
ENDBRANCH   1  15
TORSDOF 4
