REMARK  Name = ZINC34824191
REMARK  9 active torsions:
REMARK  status: ('A' for Active; 'I' for Inactive)
REMARK    1  A    between atoms: C_1  and  C_2
REMARK    2  A    between atoms: C_2  and  C_3
REMARK    3  A    between atoms: C_3  and  N_4
REMARK    4  A    between atoms: N_4  and  C_5
REMARK    5  A    between atoms: C_5  and  C_6
REMARK    6  A    between atoms: C_11  and  N_12
REMARK    7  A    between atoms: N_15  and  C_18
REMARK    8  A    between atoms: C_18  and  C_19
REMARK    9  A    between atoms: C_19  and  C_20
REMARK                            x       y       z     vdW  Elec       q    Type
REMARK                         _______ _______ _______ _____ _____    ______ ____
ROOT
ATOM      1  C   UNL     1      -2.771  -4.018   0.007  0.00  0.00    -0.043 A 
ATOM      2  C   UNL     1      -2.975  -4.705  -1.174  0.00  0.00    +0.004 A 
ATOM      3  C   UNL     1      -2.956  -6.088  -1.183  0.00  0.00    +0.015 A 
ATOM      4  C   UNL     1      -2.733  -6.787  -0.009  0.00  0.00    +0.020 A 
ATOM      5  C   UNL     1      -2.529  -6.105   1.175  0.00  0.00    +0.038 A 
ATOM      6  C   UNL     1      -2.542  -4.716   1.185  0.00  0.00    +0.032 A 
ATOM      7 BR   UNL     1      -2.709  -8.678  -0.027  0.00  0.00    -0.050 Br
ENDROOT
BRANCH   6   8
ATOM      8  N   UNL     1      -2.330  -4.024   2.380  0.00  0.00    -0.333 N 
ATOM      9  C   UNL     1      -3.455  -3.672   3.260  0.00  0.00    +0.086 C 
ATOM     10  C   UNL     1      -3.118  -4.126   4.684  0.00  0.00    -0.060 C 
ATOM     11  N   UNL     1      -1.829  -3.550   5.088  0.00  0.00    +0.382 N 
ATOM     12  C   UNL     1      -0.755  -4.081   4.239  0.00  0.00    -0.060 C 
ATOM     13  C   UNL     1      -0.975  -3.630   2.796  0.00  0.00    +0.086 C 
ATOM     14  H   UNL     1      -1.866  -2.546   4.992  0.00  0.00    -0.082 HD
BRANCH  11  15
ATOM     15  C   UNL     1      -1.558  -3.895   6.490  0.00  0.00    -0.079 C 
BRANCH  15  16
ATOM     16  C   UNL     1      -0.279  -3.193   6.950  0.00  0.00    -0.022 C 
ATOM     17  C   UNL     1       0.003  -3.552   8.411  0.00  0.00    +0.002 C 
ENDBRANCH  15  16
ENDBRANCH  11  15
ENDBRANCH   6   8
BRANCH   1  18
ATOM     18  C   UNL     1      -2.792  -2.511   0.015  0.00  0.00    -0.045 C 
BRANCH  18  19
ATOM     19  N   UNL     1      -1.413  -2.002   0.005  0.00  0.00    +0.382 N 
ATOM     20  H   UNL     1      -0.941  -2.328  -0.825  0.00  0.00    -0.085 HD
ATOM     21  H   UNL     1      -0.925  -2.337   0.822  0.00  0.00    -0.085 HD
BRANCH  19  22
ATOM     22  C   UNL     1      -1.433  -0.534   0.013  0.00  0.00    -0.082 C 
BRANCH  22  24
ATOM     23  C   UNL     1      -0.019   1.526   0.010  0.00  0.00    +0.002 C 
ATOM     24  C   UNL     1       0.002  -0.004   0.002  0.00  0.00    -0.022 C 
ENDBRANCH  22  24
ENDBRANCH  19  22
ENDBRANCH  18  19
ENDBRANCH   1  18
TORSDOF 7
