REMARK  Name = ZINC39361144
REMARK  6 active torsions:
REMARK  status: ('A' for Active; 'I' for Inactive)
REMARK    1  A    between atoms: C_1  and  C_2
REMARK    2  A    between atoms: C_5  and  C_31
REMARK    3  A    between atoms: C_10  and  C_14
REMARK    4  A    between atoms: C_14  and  C_15
REMARK    5  A    between atoms: C_15  and  N_16
REMARK    6  A    between atoms: C_17  and  C_19
REMARK                            x       y       z     vdW  Elec       q    Type
REMARK                         _______ _______ _______ _____ _____    ______ ____
ROOT
ATOM      1  C   UNL     1      -1.067  -1.216   5.938  0.00  0.00    +0.105 C 
ENDROOT
BRANCH   1   2
ATOM      2  N   UNL     1      -2.252  -0.878   6.731  0.00  0.00    -0.315 N 
ATOM      3  C   UNL     1      -2.352  -1.304   8.006  0.00  0.00    +0.227 C 
ATOM      4  O   UNL     1      -1.463  -1.966   8.497  0.00  0.00    -0.275 OA
ATOM      5  H   UNL     1      -2.963  -0.348   6.339  0.00  0.00    +0.149 HD
BRANCH   3   6
ATOM      6  C   UNL     1      -3.571  -0.956   8.823  0.00  0.00    +0.188 C 
ATOM      7  C   UNL     1      -3.433  -1.534  10.235  0.00  0.00    +0.063 C 
ATOM      8  C   UNL     1      -4.421  -0.870  11.159  0.00  0.00    -0.004 A 
ATOM      9  C   UNL     1      -4.759  -1.514  12.339  0.00  0.00    +0.007 A 
ATOM     10  C   UNL     1      -5.655  -0.938  13.217  0.00  0.00    +0.000 A 
ATOM     11  C   UNL     1      -6.221   0.289  12.923  0.00  0.00    +0.004 A 
ATOM     12  C   UNL     1      -5.890   0.935  11.749  0.00  0.00    +0.046 A 
ATOM     13  C   UNL     1      -4.991   0.355  10.860  0.00  0.00    +0.135 A 
ATOM     14  O   UNL     1      -4.707   1.016   9.705  0.00  0.00    -0.425 OA
ATOM     15  C   UNL     1      -3.690   0.549   8.953  0.00  0.00    +0.325 C 
ATOM     16  O   UNL     1      -2.911   1.295   8.409  0.00  0.00    -0.250 OA
ENDBRANCH   3   6
ENDBRANCH   1   2
BRANCH   1  17
ATOM     17  C   UNL     1      -1.204  -0.616   4.537  0.00  0.00    +0.035 C 
BRANCH  17  27
ATOM     18  C   UNL     1      -0.018   1.503   0.010  0.00  0.00    +0.044 C 
ATOM     19  C   UNL     1       0.002  -0.004   0.002  0.00  0.00    -0.042 A 
ATOM     20  C   UNL     1       0.006  -0.689  -1.171  0.00  0.00    +0.004 A 
ATOM     21  C   UNL     1       0.025  -2.083  -1.198  0.00  0.00    +0.005 A 
ATOM     22  C   UNL     1       0.041  -2.838  -0.068  0.00  0.00    -0.029 A 
ATOM     23  C   UNL     1       0.038  -2.227   1.199  0.00  0.00    +0.043 A 
ATOM     24  N   UNL     1       0.054  -2.978   2.300  0.00  0.00    -0.284 N 
ATOM     25  C   UNL     1       0.053  -2.469   3.521  0.00  0.00    +0.224 C 
ATOM     26  O   UNL     1       0.068  -3.205   4.489  0.00  0.00    -0.275 OA
ATOM     27  C   UNL     1       0.033  -0.969   3.708  0.00  0.00    +0.100 C 
ATOM     28  C   UNL     1       0.015  -0.111   2.459  0.00  0.00    -0.004 C 
ATOM     29  C   UNL     1       0.024  -0.755   1.258  0.00  0.00    -0.004 A 
ATOM     30  C   UNL     1       0.060  -4.341  -0.174  0.00  0.00    +0.045 C 
ATOM     31  H   UNL     1       0.067  -3.943   2.202  0.00  0.00    +0.155 HD
ENDBRANCH  17  27
ENDBRANCH   1  17
TORSDOF 4
