REMARK  Name = ZINC13602587
REMARK  7 active torsions:
REMARK  status: ('A' for Active; 'I' for Inactive)
REMARK    1  A    between atoms: C_4  and  C_7
REMARK    2  A    between atoms: C_13  and  C_15
REMARK    3  A    between atoms: N_17  and  N_18
REMARK    4  A    between atoms: C_19  and  C_20
REMARK    5  A    between atoms: C_23  and  O_26
REMARK    6  A    between atoms: O_26  and  C_27
REMARK    7  A    between atoms: C_27  and  C_29
REMARK                            x       y       z     vdW  Elec       q    Type
REMARK                         _______ _______ _______ _____ _____    ______ ____
ROOT
ATOM      1  N   UNL     1       9.890  -2.789   0.338  0.00  0.00    -0.188 NA
ATOM      2  C   UNL     1       8.974  -3.693   0.169  0.00  0.00    +0.138 C 
ENDROOT
BRANCH   2   3
ATOM      3  C   UNL     1       7.705  -3.341  -0.494  0.00  0.00    -0.005 A 
ATOM      4  C   UNL     1       7.627  -2.203  -1.301  0.00  0.00    +0.013 A 
ATOM      5  C   UNL     1       6.439  -1.878  -1.918  0.00  0.00    +0.047 A 
ATOM      6  C   UNL     1       5.319  -2.680  -1.739  0.00  0.00    +0.132 A 
ATOM      7  C   UNL     1       5.389  -3.809  -0.933  0.00  0.00    +0.047 A 
ATOM      8  C   UNL     1       6.575  -4.144  -0.316  0.00  0.00    +0.013 A 
BRANCH   6   9
ATOM      9  O   UNL     1       4.149  -2.356  -2.350  0.00  0.00    -0.422 OA
BRANCH   9  10
ATOM     10  C   UNL     1       4.042  -2.649  -3.660  0.00  0.00    +0.346 C 
ATOM     11  O   UNL     1       4.996  -3.098  -4.263  0.00  0.00    -0.244 OA
BRANCH  10  12
ATOM     12  C   UNL     1       2.764  -2.425  -4.364  0.00  0.00    +0.078 A 
ATOM     13  C   UNL     1       1.664  -1.908  -3.674  0.00  0.00    +0.018 A 
ATOM     14  C   UNL     1       0.472  -1.707  -4.336  0.00  0.00    +0.021 A 
ATOM     15  C   UNL     1       0.365  -2.005  -5.685  0.00  0.00    +0.042 A 
ATOM     16  C   UNL     1       1.450  -2.516  -6.376  0.00  0.00    +0.040 A 
ATOM     17  C   UNL     1       2.649  -2.728  -5.724  0.00  0.00    +0.056 A 
ATOM     18 CL   UNL     1       4.009  -3.371  -6.590  0.00  0.00    -0.083 Cl
ATOM     19 CL   UNL     1      -1.139  -1.742  -6.512  0.00  0.00    -0.083 Cl
ENDBRANCH  10  12
ENDBRANCH   9  10
ENDBRANCH   6   9
ENDBRANCH   2   3
BRANCH   1  22
ATOM     20  C   UNL     1      10.534  -0.499   0.256  0.00  0.00    +0.245 C 
ATOM     21  O   UNL     1      11.695  -0.836   0.359  0.00  0.00    -0.273 OA
ATOM     22  N   UNL     1       9.561  -1.431   0.238  0.00  0.00    -0.206 N 
ATOM     23  H   UNL     1       8.633  -1.162   0.156  0.00  0.00    +0.177 HD
BRANCH  20  29
ATOM     24  C   UNL     1       9.935   1.564   1.552  0.00  0.00    +0.057 C 
ATOM     25  C   UNL     1      11.328   2.139   1.895  0.00  0.00    +0.113 C 
ATOM     26  N   UNL     1      11.971   2.405   0.603  0.00  0.00    -0.314 N 
ATOM     27  C   UNL     1      11.350   1.752  -0.395  0.00  0.00    +0.226 C 
ATOM     28  O   UNL     1      11.681   1.790  -1.561  0.00  0.00    -0.275 OA
ATOM     29  C   UNL     1      10.180   0.962   0.148  0.00  0.00    +0.171 C 
ATOM     30  H   UNL     1      12.745   2.977   0.484  0.00  0.00    +0.149 HD
BRANCH  24  34
ATOM     31  C   UNL     1       8.804  -1.468   4.340  0.00  0.00    +0.000 A 
ATOM     32  C   UNL     1      10.114  -1.381   3.907  0.00  0.00    +0.000 A 
ATOM     33  C   UNL     1      10.480  -0.400   3.005  0.00  0.00    +0.004 A 
ATOM     34  C   UNL     1       9.536   0.494   2.535  0.00  0.00    -0.042 A 
ATOM     35  C   UNL     1       8.227   0.411   2.973  0.00  0.00    +0.004 A 
ATOM     36  C   UNL     1       7.860  -0.573   3.872  0.00  0.00    +0.000 A 
ENDBRANCH  24  34
ENDBRANCH  20  29
ENDBRANCH   1  22
TORSDOF 7
