REMARK  Name = ZINC66483989
REMARK  9 active torsions:
REMARK  status: ('A' for Active; 'I' for Inactive)
REMARK    1  A    between atoms: C_1  and  C_2
REMARK    2  A    between atoms: C_2  and  O_3
REMARK    3  A    between atoms: O_3  and  C_4
REMARK    4  A    between atoms: C_4  and  C_6
REMARK    5  A    between atoms: C_4  and  C_7
REMARK    6  A    between atoms: N_9  and  C_10
REMARK    7  A    between atoms: C_10  and  C_12
REMARK    8  A    between atoms: C_10  and  C_18
REMARK    9  A    between atoms: C_27  and  O_28
REMARK                            x       y       z     vdW  Elec       q    Type
REMARK                         _______ _______ _______ _____ _____    ______ ____
ROOT
ATOM      1  C   UNL     1       3.450  -3.908  -3.142  0.00  0.00    +0.138 C 
ENDROOT
BRANCH   1   2
ATOM      2  C   UNL     1       4.180  -5.131  -2.649  0.00  0.00    +0.026 A 
ATOM      3  C   UNL     1       5.515  -5.035  -2.226  0.00  0.00    -0.009 A 
ATOM      4  C   UNL     1       6.201  -3.808  -2.250  0.00  0.00    +0.009 A 
ATOM      5  C   UNL     1       7.495  -3.751  -1.832  0.00  0.00    +0.001 A 
ATOM      6  C   UNL     1       8.153  -4.893  -1.380  0.00  0.00    +0.001 A 
ATOM      7  C   UNL     1       7.522  -6.098  -1.343  0.00  0.00    +0.008 A 
ATOM      8  C   UNL     1       6.185  -6.196  -1.766  0.00  0.00    -0.017 A 
ATOM      9  C   UNL     1       5.501  -7.424  -1.740  0.00  0.00    +0.012 A 
ATOM     10  C   UNL     1       4.208  -7.485  -2.157  0.00  0.00    +0.046 A 
ATOM     11  C   UNL     1       3.544  -6.339  -2.607  0.00  0.00    +0.123 A 
BRANCH  11  12
ATOM     12  O   UNL     1       2.250  -6.430  -3.011  0.00  0.00    -0.506 OA
ATOM     13  H   UNL     1       2.144  -6.662  -3.944  0.00  0.00    +0.292 HD
ENDBRANCH  11  12
ENDBRANCH   1   2
BRANCH   1  14
ATOM     14  C   UNL     1       3.293  -3.985  -4.638  0.00  0.00    -0.023 A 
ATOM     15  C   UNL     1       2.193  -4.619  -5.186  0.00  0.00    +0.006 A 
ATOM     16  C   UNL     1       2.049  -4.689  -6.559  0.00  0.00    +0.000 A 
ATOM     17  C   UNL     1       3.005  -4.127  -7.384  0.00  0.00    +0.000 A 
ATOM     18  C   UNL     1       4.104  -3.493  -6.837  0.00  0.00    +0.000 A 
ATOM     19  C   UNL     1       4.246  -3.418  -5.464  0.00  0.00    +0.006 A 
ENDBRANCH   1  14
BRANCH   1  22
ATOM     20  C   UNL     1       1.504  -2.655  -2.381  0.00  0.00    +0.242 C 
ATOM     21  O   UNL     1       2.037  -1.641  -2.780  0.00  0.00    -0.273 OA
ATOM     22  N   UNL     1       2.128  -3.842  -2.515  0.00  0.00    -0.302 N 
ATOM     23  H   UNL     1       1.702  -4.653  -2.196  0.00  0.00    +0.150 HD
BRANCH  20  24
ATOM     24  C   UNL     1       0.143  -2.588  -1.736  0.00  0.00    +0.201 C 
ATOM     25  C   UNL     1      -0.844  -3.436  -2.539  0.00  0.00    +0.048 C 
BRANCH  24  26
ATOM     26  O   UNL     1      -0.305  -1.231  -1.710  0.00  0.00    -0.368 OA
BRANCH  26  28
ATOM     27  C   UNL     1      -1.579   0.547  -0.684  0.00  0.00    +0.034 C 
ATOM     28  C   UNL     1      -1.163  -0.923  -0.610  0.00  0.00    +0.157 C 
ENDBRANCH  26  28
ENDBRANCH  24  26
ENDBRANCH  20  24
ENDBRANCH   1  22
TORSDOF 7
