REMARK  Name = ZINC39961083
REMARK  10 active torsions:
REMARK  status: ('A' for Active; 'I' for Inactive)
REMARK    1  A    between atoms: C_1  and  C_2
REMARK    2  A    between atoms: C_3  and  C_31
REMARK    3  A    between atoms: C_4  and  C_23
REMARK    4  A    between atoms: C_10  and  C_11
REMARK    5  A    between atoms: C_27  and  O_29
REMARK    6  A    between atoms: O_29  and  C_30
REMARK    7  A    between atoms: C_31  and  O_33
REMARK    8  A    between atoms: O_33  and  C_34
REMARK    9  A    between atoms: C_34  and  C_35
REMARK   10  A    between atoms: C_34  and  C_36
REMARK                            x       y       z     vdW  Elec       q    Type
REMARK                         _______ _______ _______ _____ _____    ______ ____
ROOT
ATOM      1  C   UNL     1      -0.001   1.504   0.231  0.00  0.00    +0.066 C 
ATOM      2  C   UNL     1       0.016  -0.001   0.150  0.00  0.00    +0.053 C 
ATOM      3  C   UNL     1      -1.160  -0.687   0.050  0.00  0.00    +0.085 C 
ATOM      4  C   UNL     1      -1.099  -2.195  -0.029  0.00  0.00    +0.162 C 
ATOM      5  N   UNL     1       0.252  -2.824   0.007  0.00  0.00    -0.275 N 
ATOM      6  C   UNL     1       0.508  -4.137  -0.051  0.00  0.00    +0.268 A 
ATOM      7  O   UNL     1      -0.391  -4.950  -0.144  0.00  0.00    -0.266 OA
ATOM      8  C   UNL     1       1.922  -4.566  -0.001  0.00  0.00    +0.080 A 
ATOM      9  C   UNL     1       2.456  -5.838  -0.043  0.00  0.00    +0.026 C 
ATOM     10  S   UNL     1       2.753  -2.990   0.130  0.00  0.00    -0.046 S 
ATOM     11  C   UNL     1       1.308  -1.947   0.111  0.00  0.00    +0.178 A 
ATOM     12  N   UNL     1       1.176  -0.648   0.170  0.00  0.00    -0.228 NA
ENDROOT
BRANCH   9  13
ATOM     13  C   UNL     1       1.618  -6.951   0.060  0.00  0.00    -0.018 C 
ATOM     14  C   UNL     1       1.999  -8.288   0.163  0.00  0.00    +0.003 A 
ATOM     15  C   UNL     1       3.260  -8.921   0.194  0.00  0.00    +0.010 A 
ATOM     16  C   UNL     1       3.333 -10.272   0.302  0.00  0.00    +0.001 A 
ATOM     17  C   UNL     1       2.183 -11.064   0.385  0.00  0.00    +0.002 A 
ATOM     18  C   UNL     1       0.941 -10.527   0.361  0.00  0.00    +0.026 A 
ATOM     19  C   UNL     1       0.783  -9.118   0.250  0.00  0.00    +0.043 A 
ATOM     20  N   UNL     1      -0.292  -8.364   0.206  0.00  0.00    -0.380 N 
ATOM     21  C   UNL     1       0.105  -6.957   0.091  0.00  0.00    +0.149 C 
ATOM     22  H   UNL     1      -1.206  -8.687   0.247  0.00  0.00    +0.160 HD
ENDBRANCH   9  13
BRANCH   4  23
ATOM     23  C   UNL     1      -1.900  -2.753   1.119  0.00  0.00    -0.016 A 
ATOM     24  C   UNL     1      -1.348  -2.806   2.385  0.00  0.00    +0.006 A 
ATOM     25  C   UNL     1      -2.080  -3.317   3.440  0.00  0.00    +0.004 A 
ATOM     26  C   UNL     1      -3.366  -3.776   3.232  0.00  0.00    +0.045 A 
ATOM     27  C   UNL     1      -3.923  -3.724   1.962  0.00  0.00    +0.120 A 
ATOM     28  C   UNL     1      -3.188  -3.205   0.906  0.00  0.00    +0.051 A 
BRANCH  27  29
ATOM     29  O   UNL     1      -5.188  -4.174   1.755  0.00  0.00    -0.495 OA
ATOM     30  C   UNL     1      -5.888  -4.689   2.889  0.00  0.00    +0.277 C 
ENDBRANCH  27  29
ENDBRANCH   4  23
BRANCH   3  31
ATOM     31  C   UNL     1      -2.393  -0.010   0.022  0.00  0.00    +0.339 C 
ATOM     32  O   UNL     1      -2.422   1.205   0.088  0.00  0.00    -0.245 OA
BRANCH  31  33
ATOM     33  O   UNL     1      -3.545  -0.709  -0.077  0.00  0.00    -0.459 OA
BRANCH  33  34
ATOM     34  C   UNL     1      -4.760   0.043  -0.099  0.00  0.00    +0.171 C 
ATOM     35  C   UNL     1      -5.117   0.391  -1.545  0.00  0.00    +0.052 C 
ATOM     36  C   UNL     1      -5.885  -0.788   0.519  0.00  0.00    +0.052 C 
ENDBRANCH  33  34
ENDBRANCH  31  33
ENDBRANCH   3  31
TORSDOF 6
