REMARK  Name = ZINC59564944
REMARK  12 active torsions:
REMARK  status: ('A' for Active; 'I' for Inactive)
REMARK    1  A    between atoms: C_1  and  C_2
REMARK    2  A    between atoms: C_2  and  C_3
REMARK    3  A    between atoms: C_3  and  C_32
REMARK    4  A    between atoms: N_5  and  C_26
REMARK    5  A    between atoms: C_6  and  S_8
REMARK    6  A    between atoms: S_8  and  C_9
REMARK    7  A    between atoms: C_9  and  C_10
REMARK    8  A    between atoms: N_12  and  C_13
REMARK    9  A    between atoms: C_14  and  C_21
REMARK   10  A    between atoms: C_21  and  O_23
REMARK   11  A    between atoms: O_23  and  C_24
REMARK   12  A    between atoms: C_24  and  C_25
REMARK                            x       y       z     vdW  Elec       q    Type
REMARK                         _______ _______ _______ _____ _____    ______ ____
ROOT
ATOM      1  C   UNL     1      -4.702   0.280  -2.868  0.00  0.00    +0.173 C 
ENDROOT
BRANCH   1   2
ATOM      2  C   UNL     1      -5.870   0.324  -3.819  0.00  0.00    +0.228 C 
ATOM      3  O   UNL     1      -6.289  -0.701  -4.313  0.00  0.00    -0.275 OA
ATOM      4  N   UNL     1      -6.449   1.503  -4.121  0.00  0.00    -0.279 N 
ATOM      5  H   UNL     1      -6.113   2.323  -3.726  0.00  0.00    +0.155 HD
BRANCH   4   6
ATOM      6  C   UNL     1      -7.523   1.544  -4.996  0.00  0.00    +0.086 A 
ATOM      7  C   UNL     1      -8.232   2.653  -5.422  0.00  0.00    +0.091 A 
ATOM      8  C   UNL     1      -9.333   2.425  -6.357  0.00  0.00    -0.021 A 
ATOM      9  C   UNL     1      -9.516   1.134  -6.685  0.00  0.00    -0.004 A 
ATOM     10  S   UNL     1      -8.258   0.261  -5.787  0.00  0.00    -0.077 S 
ATOM     11  C   UNL     1     -10.662   0.955  -7.643  0.00  0.00    +0.043 C 
ATOM     12  C   UNL     1     -11.459   2.275  -7.548  0.00  0.00    +0.010 C 
ATOM     13  C   UNL     1     -10.371   3.269  -7.094  0.00  0.00    +0.037 C 
BRANCH   7  14
ATOM     14  C   UNL     1      -7.893   3.999  -4.956  0.00  0.00    +0.342 C 
ATOM     15  O   UNL     1      -7.089   4.672  -5.572  0.00  0.00    -0.245 OA
BRANCH  14  16
ATOM     16  O   UNL     1      -8.473   4.494  -3.843  0.00  0.00    -0.461 OA
BRANCH  16  17
ATOM     17  C   UNL     1      -8.097   5.814  -3.446  0.00  0.00    +0.229 C 
ATOM     18  C   UNL     1      -8.852   6.199  -2.173  0.00  0.00    +0.048 C 
ENDBRANCH  16  17
ENDBRANCH  14  16
ENDBRANCH   7  14
ENDBRANCH   4   6
ENDBRANCH   1   2
BRANCH   1  19
ATOM     19  S   UNL     1      -4.150  -1.437  -2.667  0.00  0.00    -0.082 S 
BRANCH  19  23
ATOM     20  C   UNL     1      -1.240  -0.521  -0.148  0.00  0.00    +0.104 C 
ATOM     21  N   UNL     1      -1.094  -1.987  -0.243  0.00  0.00    -0.209 NA
ATOM     22  N   UNL     1      -2.073  -2.398  -1.105  0.00  0.00    -0.213 N 
ATOM     23  C   UNL     1      -2.799  -1.321  -1.542  0.00  0.00    +0.151 C 
ATOM     24  N   UNL     1      -2.373  -0.205  -1.030  0.00  0.00    -0.348 N 
ATOM     25  C   UNL     1      -1.552  -0.104   1.291  0.00  0.00    +0.053 C 
ATOM     26  H   UNL     1      -1.204  -2.421   0.662  0.00  0.00    +0.147 HD
ATOM     27  H   UNL     1      -2.737   0.678  -1.200  0.00  0.00    +0.163 HD
BRANCH  22  28
ATOM     28  C   UNL     1      -2.300  -3.724  -1.485  0.00  0.00    +0.052 A 
ATOM     29  C   UNL     1      -2.455  -4.047  -2.827  0.00  0.00    +0.025 A 
ATOM     30  C   UNL     1      -2.679  -5.358  -3.199  0.00  0.00    +0.002 A 
ATOM     31  C   UNL     1      -2.749  -6.349  -2.237  0.00  0.00    +0.000 A 
ATOM     32  C   UNL     1      -2.595  -6.031  -0.900  0.00  0.00    +0.002 A 
ATOM     33  C   UNL     1      -2.364  -4.723  -0.522  0.00  0.00    +0.025 A 
ENDBRANCH  22  28
BRANCH  20  35
ATOM     34  C   UNL     1      -0.129   1.690  -0.497  0.00  0.00    +0.007 C 
ATOM     35  C   UNL     1       0.030   0.175  -0.640  0.00  0.00    +0.042 C 
ENDBRANCH  20  35
ENDBRANCH  19  23
ENDBRANCH   1  19
TORSDOF 9
