REMARK  Name = ZINC05025073
REMARK  9 active torsions:
REMARK  status: ('A' for Active; 'I' for Inactive)
REMARK    1  A    between atoms: C_1  and  C_2
REMARK    2  A    between atoms: C_5  and  C_8
REMARK    3  A    between atoms: C_11  and  C_24
REMARK    4  A    between atoms: C_11  and  O_32
REMARK    5  A    between atoms: C_12  and  C_23
REMARK    6  A    between atoms: C_14  and  C_16
REMARK    7  A    between atoms: C_19  and  C_22
REMARK    8  A    between atoms: C_29  and  O_30
REMARK    9  A    between atoms: O_30  and  C_31
REMARK                            x       y       z     vdW  Elec       q    Type
REMARK                         _______ _______ _______ _____ _____    ______ ____
ROOT
ATOM      1  C   UNL     1       4.909   0.697   0.922  0.00  0.00    -0.037 C 
ATOM      2  C   UNL     1       5.487   0.670  -0.495  0.00  0.00    +0.029 C 
ATOM      3  C   UNL     1       4.382   0.286  -1.484  0.00  0.00    +0.094 C 
ATOM      4  C   UNL     1       3.230   1.287  -1.363  0.00  0.00    +0.012 C 
ATOM      5  C   UNL     1       2.718   1.296   0.080  0.00  0.00    -0.034 C 
ATOM      6  C   UNL     1       3.725   2.685  -1.738  0.00  0.00    +0.009 C 
ATOM      7  N   UNL     1       3.811   1.679   0.993  0.00  0.00    +0.388 N 
ATOM      8  H   UNL     1       4.167   2.604   0.725  0.00  0.00    -0.084 HD
ATOM      9  H   UNL     1       3.451   1.716   1.954  0.00  0.00    -0.084 HD
ENDROOT
BRANCH   1  14
ATOM     10  C   UNL     1       9.048   2.217   4.657  0.00  0.00    +0.044 C 
ATOM     11  C   UNL     1       7.969   1.821   3.683  0.00  0.00    -0.050 A 
ATOM     12  C   UNL     1       7.628   0.489   3.534  0.00  0.00    +0.003 A 
ATOM     13  C   UNL     1       6.638   0.126   2.640  0.00  0.00    +0.002 A 
ATOM     14  C   UNL     1       5.988   1.093   1.897  0.00  0.00    -0.061 A 
ATOM     15  C   UNL     1       6.333   2.424   2.043  0.00  0.00    +0.002 A 
ATOM     16  C   UNL     1       7.320   2.788   2.939  0.00  0.00    +0.003 A 
ENDBRANCH   1  14
BRANCH   5  17
ATOM     17  C   UNL     1       1.596   2.294   0.208  0.00  0.00    -0.061 A 
ATOM     18  C   UNL     1       0.282   1.863   0.197  0.00  0.00    +0.002 A 
ATOM     19  C   UNL     1      -0.747   2.779   0.308  0.00  0.00    +0.003 A 
ATOM     20  C   UNL     1      -0.462   4.125   0.442  0.00  0.00    -0.050 A 
ATOM     21  C   UNL     1       0.851   4.556   0.453  0.00  0.00    +0.003 A 
ATOM     22  C   UNL     1       1.880   3.641   0.336  0.00  0.00    +0.002 A 
ATOM     23  C   UNL     1      -1.584   5.124   0.570  0.00  0.00    +0.044 C 
ENDBRANCH   5  17
BRANCH   3  24
ATOM     24  C   UNL     1       4.930   0.316  -2.887  0.00  0.00    +0.026 A 
ATOM     25  C   UNL     1       6.234   0.713  -3.112  0.00  0.00    +0.010 A 
ATOM     26  C   UNL     1       6.737   0.740  -4.399  0.00  0.00    +0.001 A 
ATOM     27  C   UNL     1       5.938   0.370  -5.465  0.00  0.00    +0.004 A 
ATOM     28  C   UNL     1       4.633  -0.027  -5.245  0.00  0.00    +0.046 A 
ATOM     29  C   UNL     1       4.127  -0.061  -3.954  0.00  0.00    +0.126 A 
BRANCH  29  30
ATOM     30  O   UNL     1       2.846  -0.457  -3.735  0.00  0.00    -0.495 OA
ATOM     31  C   UNL     1       2.077  -0.831  -4.880  0.00  0.00    +0.277 C 
ENDBRANCH  29  30
ENDBRANCH   3  24
BRANCH   3  32
ATOM     32  O   UNL     1       3.907  -1.028  -1.183  0.00  0.00    -0.384 OA
ATOM     33  H   UNL     1       4.586  -1.714  -1.240  0.00  0.00    +0.211 HD
ENDBRANCH   3  32
TORSDOF 5
