REMARK  Name = ZINC43741402
REMARK  10 active torsions:
REMARK  status: ('A' for Active; 'I' for Inactive)
REMARK    1  A    between atoms: C_1  and  C_2
REMARK    2  A    between atoms: C_2  and  C_4
REMARK    3  A    between atoms: C_10  and  C_42
REMARK    4  A    between atoms: N_22  and  O_23
REMARK    5  A    between atoms: O_23  and  C_24
REMARK    6  A    between atoms: C_24  and  C_25
REMARK    7  A    between atoms: N_27  and  C_28
REMARK    8  A    between atoms: C_28  and  C_29
REMARK    9  A    between atoms: C_32  and  C_35
REMARK   10  A    between atoms: C_40  and  C_41
REMARK                            x       y       z     vdW  Elec       q    Type
REMARK                         _______ _______ _______ _____ _____    ______ ____
ROOT
ATOM      1  C   UNL     1      -0.192  -0.882  -1.382  0.00  0.00    +0.061 C 
ATOM      2  C   UNL     1      -1.543  -1.460  -1.873  0.00  0.00    +0.012 C 
ATOM      3  C   UNL     1      -1.345  -2.995  -1.992  0.00  0.00    +0.005 C 
ATOM      4  C   UNL     1       0.171  -3.133  -2.173  0.00  0.00    -0.001 C 
ATOM      5  C   UNL     1       0.707  -2.093  -1.151  0.00  0.00    -0.019 C 
ATOM      6  C   UNL     1       2.184  -1.903  -1.437  0.00  0.00    +0.008 C 
ATOM      7  C   UNL     1       2.879  -3.241  -1.139  0.00  0.00    +0.005 C 
ATOM      8  C   UNL     1       2.288  -4.381  -1.964  0.00  0.00    +0.002 C 
ATOM      9  C   UNL     1       0.757  -4.486  -1.812  0.00  0.00    -0.003 C 
ATOM     10  C   UNL     1       0.218  -5.555  -2.766  0.00  0.00    +0.008 C 
ATOM     11  C   UNL     1       0.761  -6.923  -2.346  0.00  0.00    +0.031 C 
ATOM     12  C   UNL     1       2.276  -6.854  -2.296  0.00  0.00    -0.062 C 
ATOM     13  C   UNL     1       2.957  -7.820  -2.903  0.00  0.00    +0.026 C 
ATOM     14  C   UNL     1       4.430  -7.814  -2.875  0.00  0.00    +0.080 C 
ATOM     15  N   UNL     1       5.131  -8.461  -3.751  0.00  0.00    -0.089 NA
ATOM     16  C   UNL     1       5.080  -7.011  -1.766  0.00  0.00    +0.059 C 
ATOM     17  C   UNL     1       4.426  -5.630  -1.759  0.00  0.00    +0.017 C 
ATOM     18  C   UNL     1       2.935  -5.702  -1.532  0.00  0.00    -0.007 C 
ATOM     19  C   UNL     1       2.685  -5.880  -0.033  0.00  0.00    +0.016 C 
ATOM     20  C   UNL     1       0.514  -2.618   0.273  0.00  0.00    +0.012 C 
ENDROOT
BRANCH   1  22
ATOM     21  C   UNL     1       0.610   0.933   0.315  0.00  0.00    +0.086 C 
ATOM     22  C   UNL     1      -0.385  -0.123  -0.094  0.00  0.00    +0.134 C 
ATOM     23  O   UNL     1      -1.337  -0.361   0.610  0.00  0.00    -0.297 OA
ENDBRANCH   1  22
BRANCH  15  24
ATOM     24  O   UNL     1       6.546  -8.430  -3.688  0.00  0.00    -0.384 OA
BRANCH  24  25
ATOM     25  C   UNL     1       7.190  -9.187  -4.715  0.00  0.00    +0.358 C 
BRANCH  25  26
ATOM     26  C   UNL     1       8.684  -9.083  -4.553  0.00  0.00    +0.254 C 
ATOM     27  O   UNL     1       9.152  -8.426  -3.647  0.00  0.00    -0.272 OA
ATOM     28  N   UNL     1       9.502  -9.721  -5.414  0.00  0.00    -0.308 N 
ATOM     29  H   UNL     1       9.128 -10.247  -6.138  0.00  0.00    +0.149 HD
BRANCH  28  30
ATOM     30  C   UNL     1      10.955  -9.620  -5.256  0.00  0.00    +0.139 C 
BRANCH  30  31
ATOM     31  C   UNL     1      11.634 -10.418  -6.339  0.00  0.00    -0.030 A 
ATOM     32  C   UNL     1      11.930 -11.753  -6.127  0.00  0.00    +0.006 A 
ATOM     33  C   UNL     1      12.552 -12.490  -7.113  0.00  0.00    +0.015 A 
ATOM     34  C   UNL     1      12.883 -11.885  -8.329  0.00  0.00    +0.063 A 
ATOM     35  C   UNL     1      12.581 -10.537  -8.535  0.00  0.00    +0.015 A 
ATOM     36  C   UNL     1      11.954  -9.814  -7.542  0.00  0.00    +0.006 A 
BRANCH  34  37
ATOM     37  C   UNL     1      13.550 -12.666  -9.388  0.00  0.00    +0.387 C 
ATOM     38  O   UNL     1      13.813 -13.846  -9.204  0.00  0.00    -0.241 OA
ATOM     39  O   UNL     1      13.838 -12.134 -10.450  0.00  0.00    -0.241 OA
ENDBRANCH  34  37
ENDBRANCH  30  31
ENDBRANCH  28  30
ENDBRANCH  25  26
ENDBRANCH  24  25
ENDBRANCH  15  24
TORSDOF 7
