REMARK  Name = ZINC24729433
REMARK  11 active torsions:
REMARK  status: ('A' for Active; 'I' for Inactive)
REMARK    1  A    between atoms: C_1  and  O_2
REMARK    2  A    between atoms: O_2  and  C_3
REMARK    3  A    between atoms: C_5  and  C_13
REMARK    4  A    between atoms: C_8  and  O_9
REMARK    5  A    between atoms: O_9  and  C_10
REMARK    6  A    between atoms: C_10  and  C_11
REMARK    7  A    between atoms: C_14  and  C_15
REMARK    8  A    between atoms: N_17  and  C_18
REMARK    9  A    between atoms: C_18  and  C_20
REMARK   10  A    between atoms: C_18  and  C_27
REMARK   11  A    between atoms: C_20  and  C_21
REMARK                            x       y       z     vdW  Elec       q    Type
REMARK                         _______ _______ _______ _____ _____    ______ ____
ROOT
ATOM      1  C   UNL     1      -1.829  -0.153   3.448  0.00  0.00    +0.237 C 
ATOM      2  O   UNL     1      -2.514   0.593   4.123  0.00  0.00    -0.271 OA
ATOM      3  N   UNL     1      -1.968  -0.170   2.108  0.00  0.00    -0.302 N 
ATOM      4  H   UNL     1      -1.349  -0.845   1.499  0.00  0.00    +0.150 HD
ENDROOT
BRANCH   1   6
ATOM      5  C   UNL     1      -0.714  -1.016   5.435  0.00  0.00    +0.013 C 
ATOM      6  C   UNL     1      -0.854  -1.033   4.093  0.00  0.00    +0.068 C 
BRANCH   5   9
ATOM      7  C   UNL     1       1.336  -2.716   8.078  0.00  0.00    +0.162 A 
ATOM      8  C   UNL     1       0.417  -1.880   7.474  0.00  0.00    +0.057 A 
ATOM      9  C   UNL     1       0.266  -1.900   6.083  0.00  0.00    -0.021 A 
ATOM     10  C   UNL     1       1.055  -2.759   5.310  0.00  0.00    +0.012 A 
ATOM     11  C   UNL     1       1.973  -3.586   5.920  0.00  0.00    +0.050 A 
ATOM     12  C   UNL     1       2.119  -3.569   7.300  0.00  0.00    +0.163 A 
BRANCH   7  14
ATOM     13  C   UNL     1       0.648  -1.804  10.164  0.00  0.00    +0.277 C 
ATOM     14  O   UNL     1       1.482  -2.703   9.430  0.00  0.00    -0.491 OA
ENDBRANCH   7  14
BRANCH  12  15
ATOM     15  O   UNL     1       3.026  -4.386   7.896  0.00  0.00    -0.474 OA
BRANCH  15  16
ATOM     16  C   UNL     1       3.795  -5.234   7.040  0.00  0.00    +0.347 C 
BRANCH  16  17
ATOM     17  C   UNL     1       4.719  -6.042   7.852  0.00  0.00    +0.104 C 
ATOM     18  N   UNL     1       5.432  -6.666   8.479  0.00  0.00    -0.193 NA
ENDBRANCH  16  17
ENDBRANCH  15  16
ENDBRANCH  12  15
ENDBRANCH   5   9
ENDBRANCH   1   6
BRANCH   3  19
ATOM     19  C   UNL     1      -2.945   0.711   1.462  0.00  0.00    +0.143 C 
BRANCH  19  20
ATOM     20  C   UNL     1      -4.299   0.049   1.467  0.00  0.00    +0.129 A 
ATOM     21  N   UNL     1      -4.586  -1.134   2.076  0.00  0.00    -0.340 N 
ATOM     22  H   UNL     1      -3.798  -1.680   2.616  0.00  0.00    +0.167 HD
ATOM     23  C   UNL     1      -5.923  -1.396   1.853  0.00  0.00    +0.066 A 
ATOM     24  C   UNL     1      -6.779  -2.428   2.214  0.00  0.00    +0.028 A 
ATOM     25  C   UNL     1      -8.099  -2.389   1.820  0.00  0.00    +0.002 A 
ATOM     26  C   UNL     1      -8.577  -1.327   1.065  0.00  0.00    +0.002 A 
ATOM     27  C   UNL     1      -7.749  -0.303   0.701  0.00  0.00    +0.030 A 
ATOM     28  C   UNL     1      -6.407  -0.321   1.089  0.00  0.00    +0.089 A 
ATOM     29  N   UNL     1      -5.364   0.527   0.894  0.00  0.00    -0.231 NA
ENDBRANCH  19  20
BRANCH  19  30
ATOM     30  C   UNL     1      -2.514   0.980   0.019  0.00  0.00    +0.065 C 
BRANCH  30  31
ATOM     31  C   UNL     1      -1.219   1.751   0.017  0.00  0.00    -0.045 A 
ATOM     32  C   UNL     1      -0.013   1.076   0.008  0.00  0.00    +0.004 A 
ATOM     33  C   UNL     1       1.175   1.783   0.000  0.00  0.00    +0.000 A 
ATOM     34  C   UNL     1       1.156   3.165   0.008  0.00  0.00    +0.000 A 
ATOM     35  C   UNL     1      -0.050   3.840   0.022  0.00  0.00    +0.000 A 
ATOM     36  C   UNL     1      -1.238   3.133   0.030  0.00  0.00    +0.004 A 
ENDBRANCH  30  31
ENDBRANCH  19  30
ENDBRANCH   3  19
TORSDOF 10
