REMARK  Name = ZINC01249551
REMARK  8 active torsions:
REMARK  status: ('A' for Active; 'I' for Inactive)
REMARK    1  A    between atoms: C_4  and  C_7
REMARK    2  A    between atoms: C_7  and  C_8
REMARK    3  A    between atoms: C_7  and  C_14
REMARK    4  A    between atoms: C_7  and  O_37
REMARK    5  A    between atoms: N_17  and  C_23
REMARK    6  A    between atoms: C_23  and  C_24
REMARK    7  A    between atoms: C_24  and  O_25
REMARK    8  A    between atoms: O_25  and  C_26
REMARK                            x       y       z     vdW  Elec       q    Type
REMARK                         _______ _______ _______ _____ _____    ______ ____
ROOT
ATOM      1  C   UNL     1      -0.737   2.462   1.321  0.00  0.00    +0.017 C 
ATOM      2  C   UNL     1       0.255   2.206   0.183  0.00  0.00    -0.068 C 
ATOM      3  N   UNL     1       0.268   3.348  -0.734  0.00  0.00    +0.383 N 
ATOM      4  C   UNL     1       0.702   4.562  -0.039  0.00  0.00    -0.075 C 
ATOM      5  C   UNL     1      -0.251   4.898   1.097  0.00  0.00    -0.014 C 
ATOM      6  C   UNL     1      -1.367   3.846   1.129  0.00  0.00    -0.010 C 
ATOM      7  C   UNL     1      -2.079   3.855  -0.230  0.00  0.00    -0.014 C 
ATOM      8  C   UNL     1      -1.056   3.550  -1.326  0.00  0.00    -0.075 C 
ENDROOT
BRANCH   1   9
ATOM      9  C   UNL     1       0.002   2.439   2.660  0.00  0.00    +0.117 C 
BRANCH   9  13
ATOM     10  C   UNL     1      -2.645   3.698   5.768  0.00  0.00    +0.000 A 
ATOM     11  C   UNL     1      -1.416   4.313   5.615  0.00  0.00    +0.000 A 
ATOM     12  C   UNL     1      -0.560   3.906   4.609  0.00  0.00    +0.007 A 
ATOM     13  C   UNL     1      -0.932   2.883   3.756  0.00  0.00    -0.012 A 
ATOM     14  C   UNL     1      -2.163   2.272   3.906  0.00  0.00    +0.007 A 
ATOM     15  C   UNL     1      -3.017   2.676   4.914  0.00  0.00    +0.000 A 
ENDBRANCH   9  13
BRANCH   9  16
ATOM     16  C   UNL     1       0.481   1.039   2.945  0.00  0.00    -0.012 A 
ATOM     17  C   UNL     1      -0.342  -0.040   2.685  0.00  0.00    +0.007 A 
ATOM     18  C   UNL     1       0.099  -1.324   2.943  0.00  0.00    +0.000 A 
ATOM     19  C   UNL     1       1.361  -1.529   3.468  0.00  0.00    +0.000 A 
ATOM     20  C   UNL     1       2.183  -0.449   3.733  0.00  0.00    +0.000 A 
ATOM     21  C   UNL     1       1.743   0.835   3.472  0.00  0.00    +0.007 A 
ENDBRANCH   9  16
BRANCH   9  22
ATOM     22  O   UNL     1       1.123   3.324   2.601  0.00  0.00    -0.379 OA
ATOM     23  H   UNL     1       1.766   3.098   1.916  0.00  0.00    +0.211 HD
ENDBRANCH   9  22
ENDBRANCH   1   9
BRANCH   3  24
ATOM     24  C   UNL     1       1.223   3.065  -1.814  0.00  0.00    -0.033 C 
BRANCH  24  25
ATOM     25  C   UNL     1       2.640   3.009  -1.241  0.00  0.00    +0.211 C 
BRANCH  25  26
ATOM     26  O   UNL     1       2.778   1.843  -0.426  0.00  0.00    -0.494 OA
BRANCH  26  27
ATOM     27  C   UNL     1       3.985   1.642   0.162  0.00  0.00    +0.124 A 
ATOM     28  C   UNL     1       5.018   2.553  -0.050  0.00  0.00    +0.046 A 
ATOM     29  C   UNL     1       6.235   2.368   0.538  0.00  0.00    +0.015 A 
ATOM     30  C   UNL     1       6.451   1.249   1.351  0.00  0.00    +0.018 A 
ATOM     31  C   UNL     1       7.749   1.022   1.991  0.00  0.00    +0.018 A 
ATOM     32  C   UNL     1       7.896  -0.082   2.769  0.00  0.00    +0.092 A 
ATOM     33  C   UNL     1       6.813  -0.969   2.940  0.00  0.00    +0.337 A 
ATOM     34  O   UNL     1       6.959  -1.955   3.640  0.00  0.00    -0.245 OA
ATOM     35  O   UNL     1       5.626  -0.755   2.351  0.00  0.00    -0.422 OA
ATOM     36  C   UNL     1       5.414   0.323   1.566  0.00  0.00    +0.143 A 
ATOM     37  C   UNL     1       4.181   0.530   0.965  0.00  0.00    +0.092 A 
ENDBRANCH  26  27
ENDBRANCH  25  26
ENDBRANCH  24  25
ENDBRANCH   3  24
TORSDOF 8
