REMARK  Name = ZINC20144708
REMARK  8 active torsions:
REMARK  status: ('A' for Active; 'I' for Inactive)
REMARK    1  A    between atoms: C_1  and  C_2
REMARK    2  A    between atoms: C_2  and  C_4
REMARK    3  A    between atoms: C_2  and  O_21
REMARK    4  A    between atoms: N_6  and  C_7
REMARK    5  A    between atoms: C_11  and  C_13
REMARK    6  A    between atoms: C_16  and  C_18
REMARK    7  A    between atoms: C_18  and  O_19
REMARK    8  A    between atoms: O_21  and  C_22
REMARK                            x       y       z     vdW  Elec       q    Type
REMARK                         _______ _______ _______ _____ _____    ______ ____
ROOT
ATOM      1  C   UNL     1      -1.964   0.987  -2.067  0.00  0.00    +0.258 C 
ATOM      2  O   UNL     1      -2.661   1.411  -2.963  0.00  0.00    -0.271 OA
ATOM      3  N   UNL     1      -2.384  -0.055  -1.321  0.00  0.00    -0.282 N 
ATOM      4  H   UNL     1      -1.865  -0.342  -0.553  0.00  0.00    +0.155 HD
ENDROOT
BRANCH   3   5
ATOM      5  C   UNL     1      -3.568  -0.722  -1.655  0.00  0.00    +0.034 A 
ATOM      6  C   UNL     1      -4.379  -1.242  -0.653  0.00  0.00    +0.025 A 
ATOM      7  C   UNL     1      -5.549  -1.902  -0.977  0.00  0.00    +0.022 A 
ATOM      8  C   UNL     1      -5.921  -2.050  -2.299  0.00  0.00    +0.052 A 
ATOM      9  C   UNL     1      -5.112  -1.530  -3.313  0.00  0.00    +0.037 A 
ATOM     10  C   UNL     1      -3.934  -0.860  -2.985  0.00  0.00    +0.036 A 
ATOM     11 CL   UNL     1      -7.391  -2.880  -2.701  0.00  0.00    -0.083 Cl
BRANCH   9  12
ATOM     12  C   UNL     1      -5.506  -1.686  -4.729  0.00  0.00    +0.137 A 
ATOM     13  C   UNL     1      -5.885  -2.846  -5.329  0.00  0.00    +0.050 A 
ATOM     14  C   UNL     1      -6.170  -2.534  -6.673  0.00  0.00    +0.047 A 
ATOM     15  C   UNL     1      -5.953  -1.213  -6.826  0.00  0.00    +0.131 A 
ATOM     16  O   UNL     1      -5.558  -0.703  -5.648  0.00  0.00    -0.457 OA
BRANCH  15  17
ATOM     17  C   UNL     1      -6.131  -0.436  -8.105  0.00  0.00    +0.230 C 
BRANCH  17  18
ATOM     18  O   UNL     1      -7.470   0.058  -8.180  0.00  0.00    -0.387 OA
ATOM     19  H   UNL     1      -7.657   0.570  -8.979  0.00  0.00    +0.210 HD
ENDBRANCH  17  18
ENDBRANCH  15  17
ENDBRANCH   9  12
ENDBRANCH   3   5
BRANCH   1  21
ATOM     20  C   UNL     1       0.488   0.615  -2.072  0.00  0.00    +0.062 C 
ATOM     21  C   UNL     1      -0.627   1.623  -1.786  0.00  0.00    +0.256 C 
BRANCH  21  22
ATOM     22  O   UNL     1      -0.460   2.769  -2.624  0.00  0.00    -0.478 OA
BRANCH  22  23
ATOM     23  C   UNL     1       0.390   3.735  -2.186  0.00  0.00    +0.140 A 
ATOM     24  C   UNL     1       1.136   3.534  -1.034  0.00  0.00    +0.048 A 
ATOM     25  C   UNL     1       1.998   4.518  -0.590  0.00  0.00    +0.023 A 
ATOM     26  C   UNL     1       2.119   5.703  -1.293  0.00  0.00    +0.043 A 
ATOM     27  C   UNL     1       1.377   5.907  -2.443  0.00  0.00    +0.043 A 
ATOM     28  C   UNL     1       0.516   4.923  -2.894  0.00  0.00    +0.084 A 
ATOM     29 CL   UNL     1      -0.410   5.175  -4.340  0.00  0.00    -0.080 Cl
ATOM     30 CL   UNL     1       3.204   6.937  -0.732  0.00  0.00    -0.083 Cl
ENDBRANCH  22  23
ENDBRANCH  21  22
ENDBRANCH   1  21
TORSDOF 7
