REMARK  Name = ZINC09243045
REMARK  11 active torsions:
REMARK  status: ('A' for Active; 'I' for Inactive)
REMARK    1  A    between atoms: C_1  and  C_2
REMARK    2  A    between atoms: C_4  and  O_33
REMARK    3  A    between atoms: C_5  and  C_9
REMARK    4  A    between atoms: N_17  and  C_29
REMARK    5  A    between atoms: C_18  and  C_20
REMARK    6  A    between atoms: C_23  and  O_28
REMARK    7  A    between atoms: C_24  and  O_26
REMARK    8  A    between atoms: O_26  and  C_27
REMARK    9  A    between atoms: C_29  and  C_30
REMARK   10  A    between atoms: C_30  and  C_31
REMARK   11  A    between atoms: C_31  and  O_32
REMARK                            x       y       z     vdW  Elec       q    Type
REMARK                         _______ _______ _______ _____ _____    ______ ____
ROOT
ATOM      1  C   UNL     1      -0.293  -3.813   0.278  0.00  0.00    +0.102 A 
ATOM      2  C   UNL     1      -0.005  -4.831   1.193  0.00  0.00    +0.035 A 
ATOM      3  C   UNL     1      -0.005  -6.005   0.463  0.00  0.00    +0.126 A 
ATOM      4  N   UNL     1      -0.285  -5.650  -0.826  0.00  0.00    -0.272 N 
ATOM      5  H   UNL     1      -0.352  -6.267  -1.571  0.00  0.00    +0.189 HD
ATOM      6  N   UNL     1      -0.452  -4.378  -0.903  0.00  0.00    -0.173 NA
ATOM      7  C   UNL     1       0.291  -7.119   1.371  0.00  0.00    +0.265 C 
ATOM      8  O   UNL     1       0.365  -8.286   1.037  0.00  0.00    -0.268 OA
ATOM      9  N   UNL     1       0.471  -6.666   2.625  0.00  0.00    -0.285 N 
ATOM     10  C   UNL     1       0.302  -5.207   2.617  0.00  0.00    +0.141 C 
ENDROOT
BRANCH   1  15
ATOM     11  C   UNL     1      -0.726   1.811   1.460  0.00  0.00    +0.045 C 
ATOM     12  C   UNL     1      -0.613   0.341   1.148  0.00  0.00    -0.029 A 
ATOM     13  C   UNL     1      -0.685  -0.092  -0.162  0.00  0.00    +0.050 A 
ATOM     14  C   UNL     1      -0.581  -1.442  -0.454  0.00  0.00    +0.126 A 
ATOM     15  C   UNL     1      -0.404  -2.365   0.581  0.00  0.00    +0.045 A 
ATOM     16  C   UNL     1      -0.332  -1.919   1.898  0.00  0.00    +0.034 A 
ATOM     17  C   UNL     1      -0.431  -0.569   2.175  0.00  0.00    +0.045 A 
ATOM     18 CL   UNL     1      -0.336  -0.013   3.817  0.00  0.00    -0.083 Cl
BRANCH  14  19
ATOM     19  O   UNL     1      -0.653  -1.869  -1.742  0.00  0.00    -0.506 OA
ATOM     20  H   UNL     1       0.203  -1.909  -2.191  0.00  0.00    +0.292 HD
ENDBRANCH  14  19
ENDBRANCH   1  15
BRANCH  10  21
ATOM     21  C   UNL     1       1.572  -4.535   3.068  0.00  0.00    -0.019 A 
ATOM     22  C   UNL     1       1.524  -3.545   4.032  0.00  0.00    +0.009 A 
ATOM     23  C   UNL     1       2.687  -2.925   4.450  0.00  0.00    +0.049 A 
ATOM     24  C   UNL     1       3.904  -3.295   3.903  0.00  0.00    +0.158 A 
ATOM     25  C   UNL     1       3.953  -4.292   2.933  0.00  0.00    +0.162 A 
ATOM     26  C   UNL     1       2.785  -4.913   2.522  0.00  0.00    +0.055 A 
BRANCH  25  27
ATOM     27  O   UNL     1       5.146  -4.659   2.392  0.00  0.00    -0.491 OA
ATOM     28  C   UNL     1       5.110  -5.608   1.325  0.00  0.00    +0.277 C 
ENDBRANCH  25  27
BRANCH  24  29
ATOM     29  O   UNL     1       5.049  -2.686   4.312  0.00  0.00    -0.503 OA
ATOM     30  H   UNL     1       5.479  -3.119   5.062  0.00  0.00    +0.292 HD
ENDBRANCH  24  29
ENDBRANCH  10  21
BRANCH   9  31
ATOM     31  C   UNL     1       0.782  -7.487   3.797  0.00  0.00    +0.111 C 
BRANCH  31  32
ATOM     32  C   UNL     1       2.300  -7.611   3.945  0.00  0.00    +0.047 C 
BRANCH  32  33
ATOM     33  C   UNL     1       2.625  -8.468   5.170  0.00  0.00    +0.157 C 
BRANCH  33  34
ATOM     34  O   UNL     1       4.043  -8.584   5.308  0.00  0.00    -0.395 OA
ATOM     35  H   UNL     1       4.322  -9.115   6.066  0.00  0.00    +0.209 HD
ENDBRANCH  33  34
ENDBRANCH  32  33
ENDBRANCH  31  32
ENDBRANCH   9  31
TORSDOF 9
