REMARK  Name = ZINC39545807
REMARK  8 active torsions:
REMARK  status: ('A' for Active; 'I' for Inactive)
REMARK    1  A    between atoms: C_1  and  C_2
REMARK    2  A    between atoms: C_2  and  C_3
REMARK    3  A    between atoms: C_2  and  S_4
REMARK    4  A    between atoms: S_4  and  C_7
REMARK    5  A    between atoms: C_9  and  C_21
REMARK    6  A    between atoms: N_23  and  S_24
REMARK    7  A    between atoms: S_24  and  O_27
REMARK    8  A    between atoms: O_27  and  C_28
REMARK                            x       y       z     vdW  Elec       q    Type
REMARK                         _______ _______ _______ _____ _____    ______ ____
ROOT
ATOM      1  C   UNL     1       2.361   0.198  -1.156  0.00  0.00    +0.102 C 
ATOM      2  C   UNL     1       3.004   1.560  -1.034  0.00  0.00    +0.088 C 
ATOM      3  C   UNL     1       4.515   1.260  -0.996  0.00  0.00    +0.153 C 
ATOM      4  N   UNL     1       4.590  -0.208  -1.066  0.00  0.00    -0.368 NA
ATOM      5  C   UNL     1       3.290  -0.723  -1.171  0.00  0.00    +0.096 C 
ATOM      6  N   UNL     1       3.081  -2.108  -1.304  0.00  0.00    -0.302 N 
ATOM      7  C   UNL     1       4.055  -2.783  -2.061  0.00  0.00    +0.037 A 
ATOM      8  C   UNL     1       3.893  -4.130  -2.350  0.00  0.00    +0.023 A 
ATOM      9  C   UNL     1       4.854  -4.795  -3.086  0.00  0.00    +0.002 A 
ATOM     10  C   UNL     1       5.974  -4.114  -3.530  0.00  0.00    +0.000 A 
ATOM     11  C   UNL     1       6.134  -2.772  -3.244  0.00  0.00    +0.007 A 
ATOM     12  C   UNL     1       5.173  -2.095  -2.511  0.00  0.00    -0.010 A 
ATOM     13  C   UNL     1       5.364  -0.620  -2.242  0.00  0.00    +0.124 C 
ATOM     14  H   UNL     1       2.323  -2.562  -0.905  0.00  0.00    +0.153 HD
ATOM     15  H   UNL     1       5.024  -0.567  -0.229  0.00  0.00    +0.129 HD
ENDROOT
BRANCH   3  16
ATOM     16  C   UNL     1       5.207   1.885  -2.180  0.00  0.00    +0.271 C 
ATOM     17  O   UNL     1       4.732   1.770  -3.290  0.00  0.00    -0.271 OA
ATOM     18  N   UNL     1       6.354   2.570  -2.005  0.00  0.00    -0.047 N 
ATOM     19 CL   UNL     1       7.024   2.732  -0.440  0.00  0.00    +0.030 Cl
BRANCH  18  20
ATOM     20  S   UNL     1       7.115   3.256  -3.306  0.00  0.00    +0.226 S 
ATOM     21  O   UNL     1       8.484   3.395  -2.950  0.00  0.00    -0.114 OA
ATOM     22  O   UNL     1       6.697   2.527  -4.452  0.00  0.00    -0.114 OA
BRANCH  20  23
ATOM     23  O   UNL     1       6.561   4.665  -3.460  0.00  0.00    -0.330 OA
BRANCH  23  24
ATOM     24  C   UNL     1       7.029   5.547  -2.538  0.00  0.00    +0.158 A 
ATOM     25  C   UNL     1       6.361   5.715  -1.335  0.00  0.00    +0.048 A 
ATOM     26  C   UNL     1       6.839   6.612  -0.399  0.00  0.00    +0.004 A 
ATOM     27  C   UNL     1       7.983   7.343  -0.662  0.00  0.00    +0.000 A 
ATOM     28  C   UNL     1       8.651   7.177  -1.861  0.00  0.00    +0.004 A 
ATOM     29  C   UNL     1       8.181   6.277  -2.797  0.00  0.00    +0.048 A 
ENDBRANCH  23  24
ENDBRANCH  20  23
ENDBRANCH  18  20
ENDBRANCH   3  16
BRANCH   1  30
ATOM     30  S   UNL     1       0.628  -0.104  -1.256  0.00  0.00    -0.002 S 
ATOM     31  O   UNL     1       0.512  -1.516  -1.371  0.00  0.00    -0.169 OA
ATOM     32  O   UNL     1       0.171   0.747  -2.299  0.00  0.00    -0.169 OA
BRANCH  30  34
ATOM     33  C   UNL     1      -1.540   0.177   0.388  0.00  0.00    +0.032 C 
ATOM     34  C   UNL     1      -0.035   0.450   0.339  0.00  0.00    +0.130 C 
ATOM     35  C   UNL     1       0.659  -0.310   1.471  0.00  0.00    +0.032 C 
ENDBRANCH  30  34
ENDBRANCH   1  30
TORSDOF 6
