REMARK  Name = ZINC13487338
REMARK  8 active torsions:
REMARK  status: ('A' for Active; 'I' for Inactive)
REMARK    1  A    between atoms: C_1  and  C_2
REMARK    2  A    between atoms: C_2  and  C_3
REMARK    3  A    between atoms: C_3  and  N_4
REMARK    4  A    between atoms: N_4  and  C_5
REMARK    5  A    between atoms: N_4  and  C_10
REMARK    6  A    between atoms: C_15  and  C_16
REMARK    7  A    between atoms: C_15  and  N_77
REMARK    8  A    between atoms: C_21  and  C_23
REMARK                            x       y       z     vdW  Elec       q    Type
REMARK                         _______ _______ _______ _____ _____    ______ ____
ROOT
ATOM      1  C   UNL     1      -1.703   2.799  -6.933  0.00  0.00    -0.073 C 
ENDROOT
BRANCH   1   2
ATOM      2  C   UNL     1      -2.152   2.184  -5.606  0.00  0.00    -0.001 C 
ATOM      3  C   UNL     1      -1.008   1.368  -4.968  0.00  0.00    +0.111 C 
ATOM      4  N   UNL     1      -1.053   1.614  -3.519  0.00  0.00    -0.285 N 
ATOM      5  C   UNL     1      -2.183   2.514  -3.227  0.00  0.00    +0.117 C 
ATOM      6  C   UNL     1      -2.424   3.287  -4.550  0.00  0.00    +0.039 C 
ATOM      7  C   UNL     1      -0.204   1.097  -2.608  0.00  0.00    +0.305 C 
ATOM      8  O   UNL     1       0.761   0.454  -2.973  0.00  0.00    -0.252 OA
ATOM      9  N   UNL     1      -0.426   1.294  -1.293  0.00  0.00    -0.285 N 
ATOM     10  C   UNL     1       0.376   0.733  -0.196  0.00  0.00    +0.109 C 
ATOM     11  C   UNL     1      -0.260   1.204   1.129  0.00  0.00    +0.020 C 
ATOM     12  C   UNL     1      -1.720   1.538   0.709  0.00  0.00    +0.020 C 
ATOM     13  C   UNL     1      -1.512   2.108  -0.717  0.00  0.00    +0.109 C 
BRANCH   6  14
ATOM     14  C   UNL     1      -3.846   3.778  -4.635  0.00  0.00    -0.043 A 
ATOM     15  C   UNL     1      -4.894   2.896  -4.447  0.00  0.00    +0.004 A 
ATOM     16  C   UNL     1      -6.199   3.347  -4.521  0.00  0.00    +0.000 A 
ATOM     17  C   UNL     1      -6.455   4.678  -4.792  0.00  0.00    +0.000 A 
ATOM     18  C   UNL     1      -5.408   5.559  -4.984  0.00  0.00    +0.000 A 
ATOM     19  C   UNL     1      -4.103   5.109  -4.906  0.00  0.00    +0.004 A 
ENDBRANCH   6  14
ENDBRANCH   1   2
BRANCH   1  25
ATOM     20  C   UNL     1      -1.570   0.306 -10.404  0.00  0.00    +0.071 C 
ATOM     21  C   UNL     1      -2.276  -0.197  -9.141  0.00  0.00    +0.004 C 
ATOM     22  C   UNL     1      -2.635   0.998  -8.254  0.00  0.00    -0.077 C 
ATOM     23  C   UNL     1      -0.744   2.261  -9.090  0.00  0.00    -0.077 C 
ATOM     24  C   UNL     1      -0.328   1.104 -10.002  0.00  0.00    +0.004 C 
ATOM     25  N   UNL     1      -1.394   1.710  -7.882  0.00  0.00    +0.380 N 
ATOM     26  H   UNL     1      -0.752   1.047  -7.431  0.00  0.00    -0.082 HD
BRANCH  20  27
ATOM     27  N   UNL     1      -1.172  -0.837 -11.230  0.00  0.00    -0.314 N 
BRANCH  27  28
ATOM     28  C   UNL     1      -1.564  -0.903 -12.561  0.00  0.00    +0.099 A 
ATOM     29  C   UNL     1      -2.141   0.210 -13.166  0.00  0.00    +0.042 A 
ATOM     30  C   UNL     1      -2.526   0.131 -14.492  0.00  0.00    +0.005 A 
ATOM     31  C   UNL     1      -2.322  -1.063 -15.171  0.00  0.00    +0.018 A 
ATOM     32  C   UNL     1      -1.745  -2.127 -14.509  0.00  0.00    +0.084 A 
ATOM     33  N   UNL     1      -1.348  -2.084 -13.209  0.00  0.00    -0.350 N 
ATOM     34  H   UNL     1      -0.912  -2.889 -12.744  0.00  0.00    +0.166 HD
ENDBRANCH  27  28
BRANCH  27  35
ATOM     35  C   UNL     1      -0.360  -1.911 -10.652  0.00  0.00    +0.106 C 
BRANCH  35  37
ATOM     36  C   UNL     1      -0.430  -4.105  -9.458  0.00  0.00    +0.005 C 
ATOM     37  C   UNL     1      -1.278  -2.984 -10.062  0.00  0.00    +0.016 C 
ENDBRANCH  35  37
ENDBRANCH  27  35
ENDBRANCH  20  27
ENDBRANCH   1  25
TORSDOF 7
