REMARK  Name = ZINC40034843
REMARK  8 active torsions:
REMARK  status: ('A' for Active; 'I' for Inactive)
REMARK    1  A    between atoms: C_1  and  C_2
REMARK    2  A    between atoms: C_2  and  C_37
REMARK    3  A    between atoms: N_14  and  C_31
REMARK    4  A    between atoms: N_17  and  N_18
REMARK    5  A    between atoms: C_19  and  C_20
REMARK    6  A    between atoms: C_23  and  O_26
REMARK    7  A    between atoms: O_26  and  C_27
REMARK    8  A    between atoms: C_27  and  C_28
REMARK                            x       y       z     vdW  Elec       q    Type
REMARK                         _______ _______ _______ _____ _____    ______ ____
ROOT
ATOM      1  C   UNL     1      -0.540   0.617  -0.378  0.00  0.00    +0.016 C 
ATOM      2  C   UNL     1      -0.399  -0.867  -0.036  0.00  0.00    +0.001 C 
ATOM      3  C   UNL     1      -1.784  -1.459   0.213  0.00  0.00    +0.047 C 
ATOM      4  C   UNL     1      -2.369  -0.917   1.489  0.00  0.00    -0.037 A 
ATOM      5  C   UNL     1      -3.724  -0.677   1.590  0.00  0.00    +0.004 A 
ATOM      6  C   UNL     1      -4.254  -0.182   2.768  0.00  0.00    +0.000 A 
ATOM      7  C   UNL     1      -3.434   0.076   3.852  0.00  0.00    +0.001 A 
ATOM      8  C   UNL     1      -2.076  -0.159   3.764  0.00  0.00    +0.010 A 
ATOM      9  C   UNL     1      -1.538  -0.655   2.580  0.00  0.00    +0.004 A 
ATOM     10  C   UNL     1      -0.085  -0.907   2.451  0.00  0.00    +0.084 A 
ATOM     11  C   UNL     1       0.467  -1.014   1.183  0.00  0.00    +0.049 A 
ATOM     12  C   UNL     1       1.841  -1.261   1.063  0.00  0.00    +0.264 A 
ATOM     13  O   UNL     1       2.362  -1.364  -0.036  0.00  0.00    -0.267 OA
ATOM     14  N   UNL     1       2.576  -1.383   2.189  0.00  0.00    -0.248 N 
ATOM     15  C   UNL     1       1.985  -1.263   3.412  0.00  0.00    +0.223 A 
ATOM     16  N   UNL     1       0.693  -1.031   3.531  0.00  0.00    -0.214 NA
ATOM     17  N   UNL     1       2.750  -1.386   4.542  0.00  0.00    -0.206 N 
ATOM     18  C   UNL     1       0.256  -1.596  -1.211  0.00  0.00    +0.016 C 
ATOM     19  H   UNL     1       3.687  -1.629   4.470  0.00  0.00    +0.177 HD
ENDROOT
BRANCH  14  20
ATOM     20  C   UNL     1       3.951  -1.633   2.100  0.00  0.00    +0.053 A 
ATOM     21  C   UNL     1       4.422  -2.940   2.096  0.00  0.00    +0.026 A 
ATOM     22  C   UNL     1       5.779  -3.183   2.008  0.00  0.00    +0.002 A 
ATOM     23  C   UNL     1       6.668  -2.128   1.925  0.00  0.00    +0.000 A 
ATOM     24  C   UNL     1       6.203  -0.825   1.930  0.00  0.00    +0.002 A 
ATOM     25  C   UNL     1       4.847  -0.575   2.011  0.00  0.00    +0.026 A 
ENDBRANCH  14  20
BRANCH  17  26
ATOM     26  N   UNL     1       2.181  -1.161   5.802  0.00  0.00    -0.188 NA
ATOM     27  C   UNL     1       2.906  -1.278   6.873  0.00  0.00    +0.138 C 
BRANCH  27  28
ATOM     28  C   UNL     1       2.307  -1.041   8.199  0.00  0.00    -0.005 A 
ATOM     29  C   UNL     1       0.957  -0.697   8.306  0.00  0.00    +0.013 A 
ATOM     30  C   UNL     1       0.402  -0.476   9.548  0.00  0.00    +0.046 A 
ATOM     31  C   UNL     1       1.181  -0.596  10.691  0.00  0.00    +0.121 A 
ATOM     32  C   UNL     1       2.523  -0.938  10.589  0.00  0.00    +0.046 A 
ATOM     33  C   UNL     1       3.086  -1.166   9.352  0.00  0.00    +0.013 A 
BRANCH  31  34
ATOM     34  O   UNL     1       0.629  -0.377  11.913  0.00  0.00    -0.483 OA
BRANCH  34  35
ATOM     35  C   UNL     1       1.487  -0.517  13.047  0.00  0.00    +0.324 C 
BRANCH  35  36
ATOM     36  C   UNL     1       0.706  -0.239  14.306  0.00  0.00    +0.248 C 
ATOM     37  O   UNL     1      -0.470   0.051  14.238  0.00  0.00    -0.272 OA
ATOM     38  N   UNL     1       1.314  -0.312  15.506  0.00  0.00    -0.327 N 
ATOM     39  H   UNL     1       2.254  -0.544  15.560  0.00  0.00    +0.145 HD
ATOM     40  H   UNL     1       0.811  -0.133  16.316  0.00  0.00    +0.145 HD
ENDBRANCH  35  36
ENDBRANCH  34  35
ENDBRANCH  31  34
ENDBRANCH  27  28
ENDBRANCH  17  26
TORSDOF 6
