REMARK  Name = ZINC30964815
REMARK  9 active torsions:
REMARK  status: ('A' for Active; 'I' for Inactive)
REMARK    1  A    between atoms: C_1  and  C_2
REMARK    2  A    between atoms: C_2  and  C_3
REMARK    3  A    between atoms: C_3  and  C_33
REMARK    4  A    between atoms: N_6  and  C_10
REMARK    5  A    between atoms: C_10  and  C_11
REMARK    6  A    between atoms: N_13  and  C_14
REMARK    7  A    between atoms: C_14  and  C_16
REMARK    8  A    between atoms: C_14  and  C_23
REMARK    9  A    between atoms: C_16  and  C_17
REMARK                            x       y       z     vdW  Elec       q    Type
REMARK                         _______ _______ _______ _____ _____    ______ ____
ROOT
ATOM      1  C   UNL     1      -3.406   0.523  -3.573  0.00  0.00    +0.232 C 
ATOM      2  O   UNL     1      -2.521  -0.221  -3.207  0.00  0.00    -0.274 OA
ATOM      3  N   UNL     1      -4.030   0.301  -4.747  0.00  0.00    -0.304 N 
ATOM      4  H   UNL     1      -4.833   0.976  -5.080  0.00  0.00    +0.149 HD
ENDROOT
BRANCH   1   5
ATOM      5  C   UNL     1      -3.809   1.695  -2.716  0.00  0.00    +0.213 C 
BRANCH   5   9
ATOM      6  C   UNL     1      -1.332   2.114   0.020  0.00  0.00    +0.138 C 
ATOM      7  C   UNL     1      -1.812   2.367  -1.395  0.00  0.00    +0.251 C 
ATOM      8  O   UNL     1      -1.255   3.018  -2.253  0.00  0.00    -0.272 OA
ATOM      9  N   UNL     1      -2.988   1.717  -1.502  0.00  0.00    -0.215 N 
ATOM     10  C   UNL     1      -3.314   1.095  -0.363  0.00  0.00    +0.310 C 
ATOM     11  O   UNL     1      -4.329   0.444  -0.216  0.00  0.00    -0.252 OA
ATOM     12  N   UNL     1      -2.392   1.272   0.600  0.00  0.00    -0.281 N 
ATOM     13  H   UNL     1      -2.312   0.926   1.641  0.00  0.00    +0.152 HD
BRANCH   6  14
ATOM     14  C   UNL     1      -0.017   1.378   0.010  0.00  0.00    -0.015 A 
ATOM     15  C   UNL     1       1.171   2.086   0.002  0.00  0.00    +0.006 A 
ATOM     16  C   UNL     1       2.377   1.411  -0.015  0.00  0.00    +0.000 A 
ATOM     17  C   UNL     1       2.396   0.029  -0.022  0.00  0.00    +0.000 A 
ATOM     18  C   UNL     1       1.208  -0.679  -0.013  0.00  0.00    +0.000 A 
ATOM     19  C   UNL     1       0.002  -0.004   0.002  0.00  0.00    +0.006 A 
ENDBRANCH   6  14
BRANCH   6  21
ATOM     20  C   UNL     1      -2.578   4.096   0.891  0.00  0.00    +0.007 C 
ATOM     21  C   UNL     1      -1.204   3.431   0.788  0.00  0.00    +0.037 C 
ENDBRANCH   6  21
ENDBRANCH   5   9
ENDBRANCH   1   5
BRANCH   3  22
ATOM     22  C   UNL     1      -3.639  -0.839  -5.581  0.00  0.00    +0.143 C 
BRANCH  22  23
ATOM     23  C   UNL     1      -3.987  -0.552  -7.019  0.00  0.00    +0.129 A 
ATOM     24  N   UNL     1      -4.489   0.625  -7.479  0.00  0.00    -0.340 N 
ATOM     25  H   UNL     1      -4.672   1.456  -6.781  0.00  0.00    +0.167 HD
ATOM     26  C   UNL     1      -4.668   0.490  -8.841  0.00  0.00    +0.066 A 
ATOM     27  C   UNL     1      -5.137   1.330  -9.843  0.00  0.00    +0.028 A 
ATOM     28  C   UNL     1      -5.198   0.875 -11.143  0.00  0.00    +0.002 A 
ATOM     29  C   UNL     1      -4.794  -0.415 -11.456  0.00  0.00    +0.002 A 
ATOM     30  C   UNL     1      -4.330  -1.256 -10.483  0.00  0.00    +0.030 A 
ATOM     31  C   UNL     1      -4.259  -0.816  -9.159  0.00  0.00    +0.089 A 
ATOM     32  N   UNL     1      -3.855  -1.396  -8.000  0.00  0.00    -0.231 NA
ENDBRANCH  22  23
BRANCH  22  33
ATOM     33  C   UNL     1      -4.385  -2.091  -5.115  0.00  0.00    +0.065 C 
BRANCH  33  34
ATOM     34  C   UNL     1      -3.945  -2.448  -3.719  0.00  0.00    -0.045 A 
ATOM     35  C   UNL     1      -2.875  -3.303  -3.529  0.00  0.00    +0.004 A 
ATOM     36  C   UNL     1      -2.468  -3.627  -2.249  0.00  0.00    +0.000 A 
ATOM     37  C   UNL     1      -3.137  -3.104  -1.158  0.00  0.00    +0.000 A 
ATOM     38  C   UNL     1      -4.210  -2.254  -1.348  0.00  0.00    +0.000 A 
ATOM     39  C   UNL     1      -4.614  -1.926  -2.628  0.00  0.00    +0.004 A 
ENDBRANCH  33  34
ENDBRANCH  22  33
ENDBRANCH   3  22
TORSDOF 8
