REMARK  Name = ZINC35427060
REMARK  3 active torsions:
REMARK  status: ('A' for Active; 'I' for Inactive)
REMARK    1  A    between atoms: C_1  and  N_2
REMARK    2  A    between atoms: C_16  and  C_29
REMARK    3  A    between atoms: N_22  and  C_23
REMARK                            x       y       z     vdW  Elec       q    Type
REMARK                         _______ _______ _______ _____ _____    ______ ____
ROOT
ATOM      1  C   UNL     1      -0.725   1.577  -0.096  0.00  0.00    -0.096 C 
ATOM      2  N   UNL     1      -0.612   0.112  -0.117  0.00  0.00    +0.381 N 
ATOM      3  C   UNL     1      -1.948  -0.483   0.015  0.00  0.00    -0.074 C 
ATOM      4  C   UNL     1      -1.901  -1.977  -0.320  0.00  0.00    +0.018 C 
ATOM      5  C   UNL     1      -0.806  -2.615   0.533  0.00  0.00    -0.034 A 
ATOM      6  C   UNL     1      -0.716  -4.002   0.753  0.00  0.00    +0.004 A 
ATOM      7  C   UNL     1       0.303  -4.430   1.547  0.00  0.00    +0.090 A 
ATOM      8  S   UNL     1       1.172  -2.956   1.987  0.00  0.00    -0.077 S 
ATOM      9  C   UNL     1       0.134  -1.818   1.110  0.00  0.00    -0.021 A 
ATOM     10  C   UNL     1       0.237  -0.332   1.004  0.00  0.00    -0.036 C 
ATOM     11  N   UNL     1       0.515  -5.759   1.892  0.00  0.00    -0.312 N 
ATOM     12  C   UNL     1       1.640  -6.510   1.913  0.00  0.00    +0.092 A 
ATOM     13  C   UNL     1       1.295  -7.771   2.260  0.00  0.00    +0.020 A 
ATOM     14  C   UNL     1      -0.100  -7.785   2.479  0.00  0.00    +0.025 A 
ATOM     15  C   UNL     1      -0.552  -6.539   2.273  0.00  0.00    +0.049 A 
ATOM     16  C   UNL     1      -1.935  -5.988   2.444  0.00  0.00    +0.155 C 
ATOM     17  N   UNL     1      -2.552  -5.633   1.143  0.00  0.00    -0.269 N 
ATOM     18  C   UNL     1      -1.675  -5.000   0.142  0.00  0.00    +0.148 C 
ATOM     19  C   UNL     1      -3.853  -5.878   0.888  0.00  0.00    +0.303 C 
ATOM     20  O   UNL     1      -4.550  -6.401   1.735  0.00  0.00    -0.253 OA
ATOM     21  N   UNL     1      -4.380  -5.542  -0.306  0.00  0.00    -0.296 N 
ATOM     22  H   UNL     1      -3.824  -5.124  -0.982  0.00  0.00    +0.151 HD
ATOM     23  H   UNL     1      -0.198  -0.181  -0.989  0.00  0.00    -0.082 HD
ENDROOT
BRANCH  16  24
ATOM     24  C   UNL     1      -1.869  -4.754   3.307  0.00  0.00    -0.020 A 
ATOM     25  C   UNL     1      -2.709  -3.686   3.052  0.00  0.00    +0.006 A 
ATOM     26  C   UNL     1      -2.649  -2.554   3.843  0.00  0.00    +0.002 A 
ATOM     27  C   UNL     1      -1.747  -2.489   4.888  0.00  0.00    +0.020 A 
ATOM     28  C   UNL     1      -0.905  -3.557   5.144  0.00  0.00    +0.041 A 
ATOM     29  C   UNL     1      -0.971  -4.692   4.355  0.00  0.00    +0.025 A 
ATOM     30 CL   UNL     1       0.227  -3.475   6.457  0.00  0.00    -0.084 Cl
ENDBRANCH  16  24
BRANCH  21  31
ATOM     31  C   UNL     1      -5.794  -5.807  -0.583  0.00  0.00    +0.074 C 
ATOM     32  C   UNL     1      -5.955  -7.245  -1.081  0.00  0.00    +0.022 C 
ATOM     33  C   UNL     1      -7.431  -7.522  -1.371  0.00  0.00    +0.002 C 
ATOM     34  C   UNL     1      -7.932  -6.552  -2.443  0.00  0.00    +0.000 C 
ATOM     35  C   UNL     1      -7.771  -5.115  -1.944  0.00  0.00    +0.002 C 
ATOM     36  C   UNL     1      -6.295  -4.837  -1.655  0.00  0.00    +0.022 C 
ENDBRANCH  21  31
TORSDOF 2
