REMARK  Name = ZINC09159990
REMARK  7 active torsions:
REMARK  status: ('A' for Active; 'I' for Inactive)
REMARK    1  A    between atoms: C_1  and  C_2
REMARK    2  A    between atoms: C_3  and  N_15
REMARK    3  A    between atoms: N_6  and  C_9
REMARK    4  A    between atoms: N_7  and  C_8
REMARK    5  A    between atoms: C_16  and  C_18
REMARK    6  A    between atoms: C_20  and  C_21
REMARK    7  A    between atoms: C_21  and  C_22
REMARK                            x       y       z     vdW  Elec       q    Type
REMARK                         _______ _______ _______ _____ _____    ______ ____
ROOT
ATOM      1  N   UNL     1       0.162  -0.367  -2.504  0.00  0.00    -0.273 N 
ATOM      2  C   UNL     1      -0.334  -1.065  -3.544  0.00  0.00    +0.288 C 
ATOM      3  O   UNL     1      -0.837  -2.157  -3.360  0.00  0.00    -0.266 OA
ATOM      4  H   UNL     1       0.626   0.470  -2.659  0.00  0.00    +0.155 HD
ENDROOT
BRANCH   1   7
ATOM      5  C   UNL     1      -1.229   1.154  -0.232  0.00  0.00    +0.067 C 
ATOM      6  C   UNL     1      -0.599  -0.214  -0.167  0.00  0.00    +0.059 A 
ATOM      7  C   UNL     1       0.007  -0.853  -1.194  0.00  0.00    +0.122 A 
ATOM      8  C   UNL     1       0.471  -2.145  -0.685  0.00  0.00    +0.293 A 
ATOM      9  O   UNL     1       1.064  -3.002  -1.316  0.00  0.00    -0.264 OA
ATOM     10  N   UNL     1       0.117  -2.206   0.615  0.00  0.00    -0.216 N 
ATOM     11  N   UNL     1      -0.539  -1.014   0.943  0.00  0.00    -0.282 N 
ATOM     12  C   UNL     1      -1.079  -0.677   2.262  0.00  0.00    +0.171 C 
BRANCH  10  13
ATOM     13  C   UNL     1       0.366  -3.272   1.485  0.00  0.00    +0.067 A 
ATOM     14  C   UNL     1      -0.654  -3.770   2.285  0.00  0.00    +0.028 A 
ATOM     15  C   UNL     1      -0.405  -4.823   3.143  0.00  0.00    +0.002 A 
ATOM     16  C   UNL     1       0.859  -5.381   3.207  0.00  0.00    +0.000 A 
ATOM     17  C   UNL     1       1.876  -4.888   2.411  0.00  0.00    +0.002 A 
ATOM     18  C   UNL     1       1.632  -3.839   1.546  0.00  0.00    +0.028 A 
ENDBRANCH  10  13
ENDBRANCH   1   7
BRANCH   2  19
ATOM     19  C   UNL     1      -0.268  -0.502  -4.912  0.00  0.00    +0.244 C 
ATOM     20  O   UNL     1       0.291   0.712  -5.118  0.00  0.00    -0.282 OA
ATOM     21  C   UNL     1      -0.767  -1.204  -5.958  0.00  0.00    +0.107 C 
BRANCH  21  22
ATOM     22  C   UNL     1      -0.701  -0.647  -7.311  0.00  0.00    +0.190 C 
ATOM     23  O   UNL     1      -0.198   0.446  -7.496  0.00  0.00    -0.287 OA
BRANCH  22  24
ATOM     24  C   UNL     1      -1.246  -1.413  -8.453  0.00  0.00    +0.022 A 
ATOM     25  C   UNL     1      -1.829  -2.664  -8.243  0.00  0.00    +0.013 A 
ATOM     26  C   UNL     1      -2.335  -3.373  -9.312  0.00  0.00    +0.016 A 
ATOM     27  C   UNL     1      -2.266  -2.847 -10.591  0.00  0.00    +0.018 A 
ATOM     28  C   UNL     1      -1.689  -1.606 -10.806  0.00  0.00    +0.016 A 
ATOM     29  C   UNL     1      -1.185  -0.884  -9.745  0.00  0.00    +0.013 A 
ATOM     30 BR   UNL     1      -2.962  -3.826 -12.051  0.00  0.00    -0.050 Br
ENDBRANCH  22  24
ENDBRANCH  21  22
ENDBRANCH   2  19
TORSDOF 5
