REMARK  Name = ZINC19129239
REMARK  8 active torsions:
REMARK  status: ('A' for Active; 'I' for Inactive)
REMARK    1  A    between atoms: C_1  and  C_2
REMARK    2  A    between atoms: C_6  and  C_12
REMARK    3  A    between atoms: C_8  and  N_11
REMARK    4  A    between atoms: C_18  and  C_19
REMARK    5  A    between atoms: C_18  and  N_52
REMARK    6  A    between atoms: C_22  and  O_27
REMARK    7  A    between atoms: C_23  and  O_25
REMARK    8  A    between atoms: O_25  and  C_26
REMARK                            x       y       z     vdW  Elec       q    Type
REMARK                         _______ _______ _______ _____ _____    ______ ____
ROOT
ATOM      1  C   UNL     1      -4.741   0.062   2.914  0.00  0.00    +0.021 C 
ATOM      2  C   UNL     1      -3.780  -0.863   3.665  0.00  0.00    +0.006 C 
ATOM      3  C   UNL     1      -2.358  -0.305   3.557  0.00  0.00    -0.018 C 
ATOM      4  C   UNL     1      -1.977  -0.175   2.080  0.00  0.00    -0.078 C 
ATOM      5  C   UNL     1      -4.292   0.181   1.456  0.00  0.00    -0.069 C 
ATOM      6  N   UNL     1      -2.926   0.746   1.419  0.00  0.00    +0.383 N 
ATOM      7  H   UNL     1      -2.923   1.643   1.920  0.00  0.00    -0.081 HD
ENDROOT
BRANCH   1  13
ATOM      8  C   UNL     1     -12.114  -0.348   3.264  0.00  0.00    +0.067 C 
ATOM      9  C   UNL     1     -10.625  -0.570   3.184  0.00  0.00    +0.063 A 
ATOM     10  C   UNL     1      -9.662   0.429   3.166  0.00  0.00    +0.073 A 
ATOM     11  C   UNL     1      -8.420  -0.186   3.087  0.00  0.00    +0.158 A 
ATOM     12  N   UNL     1      -7.170   0.297   3.039  0.00  0.00    -0.232 NA
ATOM     13  C   UNL     1      -6.134  -0.510   2.965  0.00  0.00    +0.048 A 
ATOM     14  C   UNL     1      -6.318  -1.893   2.928  0.00  0.00    +0.067 A 
ATOM     15  C   UNL     1      -7.587  -2.402   2.982  0.00  0.00    +0.122 A 
ATOM     16  N   UNL     1      -8.647  -1.538   3.059  0.00  0.00    -0.201 N 
ATOM     17  N   UNL     1     -10.030  -1.738   3.121  0.00  0.00    -0.169 NA
BRANCH  15  18
ATOM     18  N   UNL     1      -7.796  -3.765   2.952  0.00  0.00    -0.343 N 
ATOM     19  H   UNL     1      -8.699  -4.118   2.986  0.00  0.00    +0.144 HD
ATOM     20  H   UNL     1      -7.040  -4.370   2.897  0.00  0.00    +0.144 HD
ENDBRANCH  15  18
ENDBRANCH   1  13
BRANCH   6  21
ATOM     21  C   UNL     1      -2.513   0.978   0.020  0.00  0.00    -0.043 C 
BRANCH  21  22
ATOM     22  C   UNL     1      -1.219   1.751   0.017  0.00  0.00    -0.060 A 
ATOM     23  C   UNL     1      -1.241   3.133   0.030  0.00  0.00    +0.005 A 
ATOM     24  C   UNL     1      -0.057   3.846   0.022  0.00  0.00    +0.049 A 
ATOM     25  C   UNL     1       1.155   3.176   0.008  0.00  0.00    +0.158 A 
ATOM     26  C   UNL     1       1.178   1.785   0.000  0.00  0.00    +0.161 A 
ATOM     27  C   UNL     1      -0.013   1.076   0.008  0.00  0.00    +0.051 A 
BRANCH  26  28
ATOM     28  O   UNL     1       2.365   1.123  -0.014  0.00  0.00    -0.491 OA
ATOM     29  C   UNL     1       2.312  -0.305  -0.020  0.00  0.00    +0.277 C 
ENDBRANCH  26  28
BRANCH  25  30
ATOM     30  O   UNL     1       2.321   3.877  -0.000  0.00  0.00    -0.503 OA
ATOM     31  H   UNL     1       2.650   4.084  -0.886  0.00  0.00    +0.292 HD
ENDBRANCH  25  30
ENDBRANCH  21  22
ENDBRANCH   6  21
TORSDOF 6
