REMARK  Name = ZINC27498281
REMARK  10 active torsions:
REMARK  status: ('A' for Active; 'I' for Inactive)
REMARK    1  A    between atoms: C_1  and  C_2
REMARK    2  A    between atoms: C_2  and  C_3
REMARK    3  A    between atoms: C_2  and  C_4
REMARK    4  A    between atoms: C_4  and  C_6
REMARK    5  A    between atoms: C_4  and  N_23
REMARK    6  A    between atoms: N_8  and  C_9
REMARK    7  A    between atoms: C_9  and  C_10
REMARK    8  A    between atoms: C_10  and  C_12
REMARK    9  A    between atoms: C_10  and  N_17
REMARK   10  A    between atoms: C_24  and  C_26
REMARK                            x       y       z     vdW  Elec       q    Type
REMARK                         _______ _______ _______ _____ _____    ______ ____
ROOT
ATOM      1  C   UNL     1      -3.125   5.301  -1.287  0.00  0.00    +0.234 C 
ATOM      2  O   UNL     1      -2.086   5.416  -1.902  0.00  0.00    -0.274 OA
ATOM      3  N   UNL     1      -3.889   6.385  -1.046  0.00  0.00    -0.315 N 
ATOM      4  H   UNL     1      -4.869   6.269  -0.559  0.00  0.00    +0.149 HD
ENDROOT
BRANCH   1   5
ATOM      5  C   UNL     1      -3.561   3.946  -0.791  0.00  0.00    +0.162 C 
BRANCH   5   6
ATOM      6  N   UNL     1      -2.918   2.902  -1.594  0.00  0.00    -0.300 N 
ATOM      7  C   UNL     1      -3.492   1.688  -1.703  0.00  0.00    +0.245 C 
ATOM      8  O   UNL     1      -4.542   1.458  -1.136  0.00  0.00    -0.270 OA
ATOM      9  H   UNL     1      -1.968   3.110  -2.107  0.00  0.00    +0.150 HD
BRANCH   7  10
ATOM     10  C   UNL     1      -2.844   0.635  -2.513  0.00  0.00    +0.037 A 
ATOM     11  C   UNL     1      -1.641   0.897  -3.171  0.00  0.00    +0.014 A 
ATOM     12  C   UNL     1      -1.044  -0.087  -3.930  0.00  0.00    +0.021 A 
ATOM     13  C   UNL     1      -1.636  -1.335  -4.040  0.00  0.00    +0.041 A 
ATOM     14  C   UNL     1      -2.829  -1.601  -3.390  0.00  0.00    +0.021 A 
ATOM     15  C   UNL     1      -3.436  -0.624  -2.628  0.00  0.00    +0.014 A 
ATOM     16 CL   UNL     1      -0.878  -2.569  -4.997  0.00  0.00    -0.084 Cl
ENDBRANCH   7  10
ENDBRANCH   5   6
BRANCH   5  18
ATOM     17  C   UNL     1      -3.689   2.454   1.209  0.00  0.00    +0.009 C 
ATOM     18  C   UNL     1      -3.154   3.784   0.675  0.00  0.00    +0.012 C 
ATOM     19  C   UNL     1      -1.628   3.802   0.786  0.00  0.00    +0.009 C 
ENDBRANCH   5  18
ENDBRANCH   1   5
BRANCH   3  20
ATOM     20  C   UNL     1      -3.415   7.716  -1.433  0.00  0.00    +0.096 C 
BRANCH  20  21
ATOM     21  C   UNL     1      -4.464   8.762  -1.050  0.00  0.00    +0.016 C 
BRANCH  21  22
ATOM     22  N   UNL     1      -5.756   8.402  -1.651  0.00  0.00    +0.387 N 
ATOM     23  C   UNL     1      -5.642   8.277  -3.109  0.00  0.00    -0.078 C 
ATOM     24  C   UNL     1      -6.963   7.762  -3.683  0.00  0.00    -0.019 C 
ATOM     25  C   UNL     1      -8.086   8.739  -3.323  0.00  0.00    -0.004 C 
ATOM     26  C   UNL     1      -8.152   8.888  -1.800  0.00  0.00    -0.019 C 
ATOM     27  C   UNL     1      -6.796   9.371  -1.281  0.00  0.00    -0.078 C 
ATOM     28  H   UNL     1      -6.054   7.421  -1.252  0.00  0.00    -0.081 HD
ENDBRANCH  21  22
BRANCH  21  29
ATOM     29  C   UNL     1      -4.034  10.114  -1.557  0.00  0.00    +0.093 A 
ATOM     30  C   UNL     1      -3.583  11.130  -0.801  0.00  0.00    +0.043 A 
ATOM     31  C   UNL     1      -3.293  12.199  -1.680  0.00  0.00    +0.041 A 
ATOM     32  C   UNL     1      -3.593  11.774  -2.921  0.00  0.00    +0.195 A 
ATOM     33  O   UNL     1      -4.041  10.510  -2.840  0.00  0.00    -0.469 OA
ENDBRANCH  21  29
ENDBRANCH  20  21
ENDBRANCH   3  20
TORSDOF 8
