REMARK  Name = ZINC39884090
REMARK  4 active torsions:
REMARK  status: ('A' for Active; 'I' for Inactive)
REMARK    1  A    between atoms: C_4  and  O_37
REMARK    2  A    between atoms: C_5  and  C_7
REMARK    3  A    between atoms: N_11  and  C_15
REMARK    4  A    between atoms: C_15  and  C_16
REMARK                            x       y       z     vdW  Elec       q    Type
REMARK                         _______ _______ _______ _____ _____    ______ ____
ROOT
ATOM      1  C   UNL     1       1.227  -2.187  -0.022  0.00  0.00    +0.075 C 
ATOM      2  C   UNL     1       0.472  -2.655  -1.213  0.00  0.00    +0.033 A 
ATOM      3  C   UNL     1      -0.472  -3.610  -1.289  0.00  0.00    +0.091 A 
ATOM      4  N   UNL     1      -0.966  -3.838  -2.554  0.00  0.00    -0.288 N 
ATOM      5  C   UNL     1      -0.519  -3.109  -3.593  0.00  0.00    +0.292 A 
ATOM      6  O   UNL     1      -0.853  -3.177  -4.763  0.00  0.00    -0.259 OA
ATOM      7  S   UNL     1       0.609  -2.081  -2.887  0.00  0.00    -0.030 S 
ATOM      8  S   UNL     1      -1.031  -4.471   0.159  0.00  0.00    -0.093 S 
ATOM      9  C   UNL     1       0.260  -4.123   1.396  0.00  0.00    +0.152 C 
ATOM     10  C   UNL     1       0.718  -2.665   1.285  0.00  0.00    +0.111 C 
ATOM     11  C   UNL     1      -0.373  -1.901   1.969  0.00  0.00    +0.235 C 
ATOM     12  O   UNL     1      -0.700  -0.757   1.763  0.00  0.00    -0.274 OA
ATOM     13  N   UNL     1      -0.918  -2.757   2.866  0.00  0.00    -0.162 N 
ATOM     14  C   UNL     1      -0.482  -4.028   2.742  0.00  0.00    +0.244 C 
ATOM     15  O   UNL     1      -0.649  -4.926   3.533  0.00  0.00    -0.273 OA
ATOM     16  C   UNL     1      -1.808  -2.372   3.802  0.00  0.00    +0.313 C 
ATOM     17  O   UNL     1      -2.155  -1.209   3.869  0.00  0.00    -0.252 OA
ATOM     18  N   UNL     1      -2.312  -3.276   4.665  0.00  0.00    -0.313 N 
ATOM     19  H   UNL     1      -2.035  -4.204   4.612  0.00  0.00    +0.147 HD
ATOM     20  H   UNL     1      -2.952  -2.999   5.339  0.00  0.00    +0.147 HD
ENDROOT
BRANCH   1  25
ATOM     21  C   UNL     1       2.309   1.406   0.397  0.00  0.00    +0.001 A 
ATOM     22  C   UNL     1       1.172   2.088   0.004  0.00  0.00    +0.004 A 
ATOM     23  C   UNL     1       0.050   1.389  -0.397  0.00  0.00    +0.046 A 
ATOM     24  C   UNL     1       0.065   0.002  -0.407  0.00  0.00    +0.121 A 
ATOM     25  C   UNL     1       1.207  -0.680  -0.013  0.00  0.00    +0.003 A 
ATOM     26  C   UNL     1       2.326   0.024   0.388  0.00  0.00    +0.008 A 
BRANCH  24  27
ATOM     27  O   UNL     1      -1.038  -0.688  -0.801  0.00  0.00    -0.506 OA
ATOM     28  H   UNL     1      -1.064  -0.879  -1.748  0.00  0.00    +0.292 HD
ENDBRANCH  24  27
ENDBRANCH   1  25
BRANCH   4  29
ATOM     29  C   UNL     1      -1.978  -4.875  -2.769  0.00  0.00    +0.222 C 
BRANCH  29  30
ATOM     30  C   UNL     1      -3.352  -4.277  -2.613  0.00  0.00    +0.235 C 
ATOM     31  O   UNL     1      -3.474  -3.099  -2.349  0.00  0.00    -0.274 OA
ATOM     32  N   UNL     1      -4.445  -5.050  -2.768  0.00  0.00    -0.300 N 
ATOM     33  C   UNL     1      -4.313  -6.479  -3.083  0.00  0.00    +0.108 C 
ATOM     34  C   UNL     1      -5.111  -7.286  -2.054  0.00  0.00    +0.019 C 
ATOM     35  C   UNL     1      -6.555  -6.780  -2.023  0.00  0.00    +0.003 C 
ATOM     36  C   UNL     1      -6.573  -5.309  -1.602  0.00  0.00    +0.019 C 
ATOM     37  C   UNL     1      -5.791  -4.480  -2.620  0.00  0.00    +0.108 C 
ENDBRANCH  29  30
ENDBRANCH   4  29
TORSDOF 4
