REMARK  Name = ZINC38610422
REMARK  13 active torsions:
REMARK  status: ('A' for Active; 'I' for Inactive)
REMARK    1  A    between atoms: C_1  and  C_2
REMARK    2  A    between atoms: C_6  and  N_9
REMARK    3  A    between atoms: C_7  and  C_8
REMARK    4  A    between atoms: N_12  and  C_15
REMARK    5  A    between atoms: C_15  and  C_16
REMARK    6  A    between atoms: N_18  and  C_19
REMARK    7  A    between atoms: C_22  and  O_35
REMARK    8  A    between atoms: C_23  and  O_33
REMARK    9  A    between atoms: C_27  and  C_29
REMARK   10  A    between atoms: C_29  and  O_31
REMARK   11  A    between atoms: O_31  and  C_32
REMARK   12  A    between atoms: O_33  and  C_34
REMARK   13  A    between atoms: O_35  and  C_36
REMARK                            x       y       z     vdW  Elec       q    Type
REMARK                         _______ _______ _______ _____ _____    ______ ____
ROOT
ATOM      1  C   UNL     1       1.099  -3.750   7.379  0.00  0.00    +0.231 C 
ATOM      2  O   UNL     1       1.670  -4.572   6.694  0.00  0.00    -0.274 OA
ATOM      3  N   UNL     1       1.457  -3.582   8.667  0.00  0.00    -0.285 N 
ATOM      4  H   UNL     1       1.036  -2.891   9.201  0.00  0.00    +0.155 HD
ENDROOT
BRANCH   3   5
ATOM      5  C   UNL     1       2.412  -4.386   9.221  0.00  0.00    +0.053 C 
ATOM      6  C   UNL     1       2.706  -4.526  10.563  0.00  0.00    +0.021 A 
ATOM      7  C   UNL     1       2.159  -3.928  11.727  0.00  0.00    +0.061 A 
ATOM      8  C   UNL     1       2.652  -4.257  12.947  0.00  0.00    +0.162 A 
ATOM      9  C   UNL     1       3.702  -5.184  13.090  0.00  0.00    +0.163 A 
ATOM     10  C   UNL     1       4.270  -5.792  12.013  0.00  0.00    +0.075 A 
ATOM     11  C   UNL     1       3.805  -5.497  10.709  0.00  0.00    +0.049 A 
ATOM     12  N   UNL     1       4.183  -5.944   9.527  0.00  0.00    -0.367 N 
ATOM     13  C   UNL     1       3.360  -5.311   8.492  0.00  0.00    +0.234 C 
ATOM     14  H   UNL     1       4.889  -6.590   9.368  0.00  0.00    +0.161 HD
BRANCH  13  15
ATOM     15  C   UNL     1       4.233  -4.521   7.550  0.00  0.00    +0.335 C 
ATOM     16  O   UNL     1       5.373  -4.265   7.855  0.00  0.00    -0.248 OA
BRANCH  15  17
ATOM     17  O   UNL     1       3.743  -4.103   6.372  0.00  0.00    -0.466 OA
ATOM     18  C   UNL     1       4.625  -3.360   5.529  0.00  0.00    +0.280 C 
ENDBRANCH  15  17
ENDBRANCH  13  15
BRANCH   9  19
ATOM     19  O   UNL     1       4.160  -5.478  14.333  0.00  0.00    -0.491 OA
ATOM     20  C   UNL     1       5.227  -6.424  14.424  0.00  0.00    +0.277 C 
ENDBRANCH   9  19
BRANCH   8  21
ATOM     21  O   UNL     1       2.120  -3.678  14.058  0.00  0.00    -0.491 OA
ATOM     22  C   UNL     1       1.057  -2.745  13.857  0.00  0.00    +0.277 C 
ENDBRANCH   8  21
ENDBRANCH   3   5
BRANCH   1  23
ATOM     23  C   UNL     1      -0.009  -2.917   6.790  0.00  0.00    +0.180 C 
BRANCH  23  27
ATOM     24  N   UNL     1      -0.482  -3.030   2.621  0.00  0.00    -0.327 N 
ATOM     25  C   UNL     1      -1.691  -3.224   3.436  0.00  0.00    +0.120 C 
ATOM     26  C   UNL     1      -1.425  -2.673   4.840  0.00  0.00    +0.104 C 
ATOM     27  N   UNL     1      -0.206  -3.288   5.382  0.00  0.00    -0.291 NA
ATOM     28  C   UNL     1       0.971  -2.936   4.576  0.00  0.00    +0.104 C 
ATOM     29  C   UNL     1       0.803  -3.504   3.158  0.00  0.00    +0.120 C 
BRANCH  24  35
ATOM     30  C   UNL     1      -0.321   1.057  -0.104  0.00  0.00    +0.044 C 
ATOM     31  C   UNL     1      -0.478  -0.437   0.017  0.00  0.00    -0.046 A 
ATOM     32  C   UNL     1      -0.693  -1.203  -1.115  0.00  0.00    +0.004 A 
ATOM     33  C   UNL     1      -0.838  -2.574  -1.008  0.00  0.00    +0.002 A 
ATOM     34  C   UNL     1      -0.769  -3.183   0.230  0.00  0.00    +0.023 A 
ATOM     35  C   UNL     1      -0.553  -2.417   1.368  0.00  0.00    +0.033 A 
ATOM     36  C   UNL     1      -0.402  -1.041   1.257  0.00  0.00    -0.027 A 
ATOM     37  C   UNL     1      -0.162  -0.206   2.489  0.00  0.00    +0.046 C 
ENDBRANCH  24  35
ENDBRANCH  23  27
ENDBRANCH   1  23
TORSDOF 8
