REMARK  Name = ZINC05006630
REMARK  7 active torsions:
REMARK  status: ('A' for Active; 'I' for Inactive)
REMARK    1  A    between atoms: C_1  and  C_2
REMARK    2  A    between atoms: C_2  and  N_3
REMARK    3  A    between atoms: C_7  and  C_23
REMARK    4  A    between atoms: C_8  and  C_22
REMARK    5  A    between atoms: C_12  and  S_13
REMARK    6  A    between atoms: S_13  and  C_14
REMARK    7  A    between atoms: C_14  and  C_15
REMARK                            x       y       z     vdW  Elec       q    Type
REMARK                         _______ _______ _______ _____ _____    ______ ____
ROOT
ATOM      1  N   UNL     1       1.247  -5.374  -2.514  0.00  0.00    -0.288 N 
ATOM      2  C   UNL     1       1.266  -6.708  -2.338  0.00  0.00    +0.263 A 
ATOM      3  O   UNL     1       1.266  -7.457  -3.300  0.00  0.00    -0.267 OA
ATOM      4  C   UNL     1       1.286  -7.236  -1.009  0.00  0.00    +0.075 A 
ATOM      5  C   UNL     1       1.308  -8.620  -0.569  0.00  0.00    -0.026 A 
ATOM      6  C   UNL     1       1.324  -8.890   0.744  0.00  0.00    -0.008 A 
ATOM      7  S   UNL     1       1.310  -7.275   1.499  0.00  0.00    -0.073 S 
ATOM      8  C   UNL     1       1.283  -6.284   0.028  0.00  0.00    +0.117 A 
ATOM      9  N   UNL     1       1.268  -4.979  -0.214  0.00  0.00    -0.216 NA
ATOM     10  C   UNL     1       1.246  -4.520  -1.449  0.00  0.00    +0.173 A 
ATOM     11  C   UNL     1       1.347 -10.237   1.421  0.00  0.00    +0.052 C 
ATOM     12  C   UNL     1       1.313  -9.740  -1.578  0.00  0.00    +0.045 C 
ENDROOT
BRANCH   1  14
ATOM     13  C   UNL     1       2.662  -4.619  -4.360  0.00  0.00    +0.027 C 
ATOM     14  C   UNL     1       1.227  -4.828  -3.873  0.00  0.00    +0.124 C 
ENDBRANCH   1  14
BRANCH  10  15
ATOM     15  S   UNL     1       1.220  -2.781  -1.730  0.00  0.00    -0.083 S 
BRANCH  15  16
ATOM     16  C   UNL     1       1.228  -2.186  -0.020  0.00  0.00    +0.112 C 
BRANCH  16  17
ATOM     17  C   UNL     1       1.208  -0.679  -0.013  0.00  0.00    -0.037 A 
ATOM     18  C   UNL     1       0.002  -0.004   0.002  0.00  0.00    +0.006 A 
ATOM     19  C   UNL     1      -0.017   1.378   0.010  0.00  0.00    +0.020 A 
ATOM     20  C   UNL     1       1.172   2.086   0.002  0.00  0.00    +0.041 A 
ATOM     21  C   UNL     1       2.379   1.409  -0.013  0.00  0.00    +0.020 A 
ATOM     22  C   UNL     1       2.397   0.027  -0.020  0.00  0.00    +0.006 A 
ATOM     23 CL   UNL     1       1.149   3.821   0.011  0.00  0.00    -0.084 Cl
ENDBRANCH  16  17
ENDBRANCH  15  16
ENDBRANCH  10  15
TORSDOF 4
