REMARK  Name = ZINC20208364
REMARK  10 active torsions:
REMARK  status: ('A' for Active; 'I' for Inactive)
REMARK    1  A    between atoms: C_1  and  C_2
REMARK    2  A    between atoms: C_2  and  O_3
REMARK    3  A    between atoms: O_3  and  C_4
REMARK    4  A    between atoms: C_6  and  C_15
REMARK    5  A    between atoms: C_9  and  O_10
REMARK    6  A    between atoms: O_10  and  S_11
REMARK    7  A    between atoms: S_11  and  C_14
REMARK    8  A    between atoms: C_25  and  S_27
REMARK    9  A    between atoms: S_27  and  C_30
REMARK   10  A    between atoms: C_30  and  C_31
REMARK                            x       y       z     vdW  Elec       q    Type
REMARK                         _______ _______ _______ _____ _____    ______ ____
ROOT
ATOM      1  C   UNL     1      -0.129  -4.973   0.641  0.00  0.00    +0.024 C 
ATOM      2  C   UNL     1       0.360  -6.260   0.668  0.00  0.00    +0.081 C 
ATOM      3  C   UNL     1       1.506  -6.683  -0.186  0.00  0.00    +0.153 C 
ATOM      4  N   UNL     1       2.490  -5.888  -0.512  0.00  0.00    -0.283 NA
ATOM      5  N   UNL     1       1.424  -8.027  -0.608  0.00  0.00    -0.150 N 
ATOM      6  C   UNL     1       0.662  -8.888   0.153  0.00  0.00    +0.182 C 
ATOM      7  N   UNL     1      -0.086  -8.591   1.186  0.00  0.00    -0.152 NA
ATOM      8  C   UNL     1      -0.221  -7.299   1.555  0.00  0.00    +0.273 C 
ATOM      9  O   UNL     1      -0.805  -6.994   2.582  0.00  0.00    -0.268 OA
ATOM     10  S   UNL     1       0.951 -10.445  -0.645  0.00  0.00    -0.015 S 
ATOM     11  C   UNL     1       1.971  -9.837  -1.981  0.00  0.00    +0.235 C 
ATOM     12  N   UNL     1       2.049  -8.565  -1.713  0.00  0.00    -0.145 NA
ATOM     13  H   UNL     1       3.212  -6.214  -1.071  0.00  0.00    +0.188 HD
ENDROOT
BRANCH   1  16
ATOM     14  C   UNL     1       0.908  -1.779  -1.020  0.00  0.00    +0.165 A 
ATOM     15  C   UNL     1       0.454  -2.663  -0.064  0.00  0.00    +0.057 A 
ATOM     16  C   UNL     1       0.352  -4.028  -0.369  0.00  0.00    -0.021 A 
ATOM     17  C   UNL     1       0.713  -4.485  -1.645  0.00  0.00    +0.012 A 
ATOM     18  C   UNL     1       1.165  -3.594  -2.591  0.00  0.00    +0.053 A 
ATOM     19  C   UNL     1       1.260  -2.241  -2.289  0.00  0.00    +0.198 A 
BRANCH  14  20
ATOM     20  O   UNL     1       1.008  -0.454  -0.728  0.00  0.00    -0.488 OA
BRANCH  20  22
ATOM     21  C   UNL     1       0.809   1.463   0.730  0.00  0.00    +0.048 C 
ATOM     22  C   UNL     1       0.631  -0.051   0.590  0.00  0.00    +0.226 C 
ENDBRANCH  20  22
ENDBRANCH  14  20
BRANCH  19  23
ATOM     23  O   UNL     1       1.701  -1.367  -3.229  0.00  0.00    -0.343 OA
BRANCH  23  24
ATOM     24  S   UNL     1       3.209  -1.163  -3.225  0.00  0.00    +0.118 S 
ATOM     25  O   UNL     1       3.426  -0.046  -4.077  0.00  0.00    -0.137 OA
ATOM     26  O   UNL     1       3.563  -1.104  -1.850  0.00  0.00    -0.137 OA
ATOM     27  C   UNL     1       3.886  -2.666  -3.981  0.00  0.00    +0.242 C 
ENDBRANCH  23  24
ENDBRANCH  19  23
ENDBRANCH   1  16
BRANCH  11  28
ATOM     28  S   UNL     1       2.688 -10.731  -3.319  0.00  0.00    +0.022 S 
ATOM     29  O   UNL     1       1.779 -11.792  -3.575  0.00  0.00    -0.167 OA
ATOM     30  O   UNL     1       2.953  -9.748  -4.311  0.00  0.00    -0.167 OA
BRANCH  28  31
ATOM     31  C   UNL     1       4.246 -11.388  -2.660  0.00  0.00    +0.171 C 
ATOM     32  C   UNL     1       4.962 -12.191  -3.748  0.00  0.00    +0.028 C 
ENDBRANCH  28  31
ENDBRANCH  11  28
TORSDOF 7
