REMARK  Name = ZINC12774385
REMARK  10 active torsions:
REMARK  status: ('A' for Active; 'I' for Inactive)
REMARK    1  A    between atoms: C_1  and  C_2
REMARK    2  A    between atoms: C_2  and  C_4
REMARK    3  A    between atoms: C_2  and  N_54
REMARK    4  A    between atoms: N_6  and  C_7
REMARK    5  A    between atoms: C_7  and  C_13
REMARK    6  A    between atoms: C_15  and  N_54
REMARK    7  A    between atoms: C_16  and  C_17
REMARK    8  A    between atoms: C_16  and  N_54
REMARK    9  A    between atoms: N_19  and  C_20
REMARK   10  A    between atoms: C_25  and  C_26
REMARK                            x       y       z     vdW  Elec       q    Type
REMARK                         _______ _______ _______ _____ _____    ______ ____
ROOT
ATOM      1  C   UNL     1      -5.190  -0.183   0.537  0.00  0.00    -0.094 C 
ATOM      2  N   UNL     1      -6.168  -1.232   0.179  0.00  0.00    +0.391 N 
ATOM      3  H   UNL     1      -6.238  -1.901   0.954  0.00  0.00    -0.080 HD
ENDROOT
BRANCH   2   5
ATOM      4  C   UNL     1      -7.481   0.229  -1.323  0.00  0.00    -0.004 C 
ATOM      5  C   UNL     1      -7.496  -0.625  -0.054  0.00  0.00    +0.016 C 
BRANCH   5   6
ATOM      6  C   UNL     1      -8.514  -1.726  -0.201  0.00  0.00    +0.200 C 
ATOM      7  O   UNL     1      -8.180  -2.884  -0.060  0.00  0.00    -0.278 OA
ATOM      8  N   UNL     1      -9.796  -1.425  -0.490  0.00  0.00    -0.299 N 
ATOM      9  H   UNL     1     -10.062  -0.499  -0.603  0.00  0.00    +0.150 HD
BRANCH   8  10
ATOM     10  C   UNL     1     -10.785  -2.496  -0.633  0.00  0.00    +0.121 C 
ATOM     11  C   UNL     1     -10.362  -3.433  -1.766  0.00  0.00    +0.041 C 
ATOM     12  C   UNL     1     -11.396  -4.551  -1.916  0.00  0.00    +0.003 C 
ATOM     13  C   UNL     1     -12.761  -3.943  -2.241  0.00  0.00    +0.000 C 
ATOM     14  C   UNL     1     -13.185  -3.005  -1.108  0.00  0.00    +0.003 C 
ATOM     15  C   UNL     1     -12.151  -1.887  -0.958  0.00  0.00    +0.041 C 
BRANCH  10  16
ATOM     16  C   UNL     1     -10.873  -3.254   0.625  0.00  0.00    +0.088 C 
ATOM     17  N   UNL     1     -10.941  -3.840   1.596  0.00  0.00    -0.194 NA
ENDBRANCH  10  16
ENDBRANCH   8  10
ENDBRANCH   5   6
ENDBRANCH   2   5
BRANCH   2  18
ATOM     18  C   UNL     1      -5.720  -1.948  -1.034  0.00  0.00    +0.020 C 
BRANCH  18  19
ATOM     19  C   UNL     1      -4.479  -2.735  -0.704  0.00  0.00    +0.201 C 
ATOM     20  O   UNL     1      -4.011  -2.689   0.415  0.00  0.00    -0.278 OA
ATOM     21  N   UNL     1      -3.888  -3.491  -1.650  0.00  0.00    -0.287 N 
ATOM     22  H   UNL     1      -4.209  -3.461  -2.565  0.00  0.00    +0.155 HD
BRANCH  21  23
ATOM     23  C   UNL     1      -2.811  -4.318  -1.314  0.00  0.00    +0.045 A 
ATOM     24  C   UNL     1      -2.662  -4.770  -0.009  0.00  0.00    +0.024 A 
ATOM     25  C   UNL     1      -1.597  -5.586   0.320  0.00  0.00    +0.002 A 
ATOM     26  C   UNL     1      -0.680  -5.953  -0.648  0.00  0.00    +0.001 A 
ATOM     27  C   UNL     1      -0.829  -5.509  -1.949  0.00  0.00    +0.014 A 
ATOM     28  C   UNL     1      -1.888  -4.688  -2.283  0.00  0.00    +0.076 A 
BRANCH  28  29
ATOM     29  C   UNL     1      -2.046  -4.200  -3.700  0.00  0.00    +0.419 C 
ATOM     30  F   UNL     1      -1.003  -4.702  -4.486  0.00  0.00    -0.166 F 
ATOM     31  F   UNL     1      -3.271  -4.643  -4.212  0.00  0.00    -0.166 F 
ATOM     32  F   UNL     1      -2.012  -2.802  -3.718  0.00  0.00    -0.166 F 
ENDBRANCH  28  29
ENDBRANCH  21  23
ENDBRANCH  18  19
ENDBRANCH   2  18
TORSDOF 8
