REMARK  Name = ZINC66639432
REMARK  16 active torsions:
REMARK  status: ('A' for Active; 'I' for Inactive)
REMARK    1  A    between atoms: C_1  and  C_2
REMARK    2  A    between atoms: C_2  and  C_3
REMARK    3  A    between atoms: C_2  and  C_4
REMARK    4  A    between atoms: C_4  and  C_5
REMARK    5  A    between atoms: C_5  and  C_7
REMARK    6  A    between atoms: C_5  and  N_20
REMARK    7  A    between atoms: N_9  and  C_10
REMARK    8  A    between atoms: C_10  and  C_11
REMARK    9  A    between atoms: N_15  and  C_16
REMARK   10  A    between atoms: C_16  and  C_17
REMARK   11  A    between atoms: C_16  and  C_18
REMARK   12  A    between atoms: C_21  and  O_23
REMARK   13  A    between atoms: O_23  and  C_24
REMARK   14  A    between atoms: C_24  and  C_25
REMARK   15  A    between atoms: C_24  and  C_26
REMARK   16  A    between atoms: C_24  and  C_27
REMARK                            x       y       z     vdW  Elec       q    Type
REMARK                         _______ _______ _______ _____ _____    ______ ____
ROOT
ATOM      1  C   UNL     1       0.898  -0.260   3.648  0.00  0.00    +0.234 C 
ATOM      2  O   UNL     1       1.370   0.669   4.269  0.00  0.00    -0.274 OA
ATOM      3  N   UNL     1       1.106  -1.524   4.066  0.00  0.00    -0.307 N 
ATOM      4  H   UNL     1       0.789  -2.270   3.532  0.00  0.00    +0.149 HD
ENDROOT
BRANCH   1   5
ATOM      5  C   UNL     1       0.079  -0.001   2.410  0.00  0.00    +0.162 C 
BRANCH   5   6
ATOM      6  N   UNL     1      -0.386   1.389   2.414  0.00  0.00    -0.270 N 
ATOM      7  C   UNL     1      -1.537   1.715   1.794  0.00  0.00    +0.401 C 
ATOM      8  O   UNL     1      -2.235   0.846   1.311  0.00  0.00    -0.226 OA
ATOM      9  H   UNL     1       0.134   2.073   2.863  0.00  0.00    +0.153 HD
BRANCH   7  10
ATOM     10  O   UNL     1      -1.914   3.005   1.711  0.00  0.00    -0.445 OA
BRANCH  10  11
ATOM     11  C   UNL     1      -3.146   3.279   1.040  0.00  0.00    +0.107 C 
ATOM     12  C   UNL     1      -4.290   2.562   1.761  0.00  0.00    +0.055 C 
ATOM     13  C   UNL     1      -3.405   4.787   1.046  0.00  0.00    +0.055 C 
ATOM     14  C   UNL     1      -3.062   2.781  -0.404  0.00  0.00    +0.055 C 
ENDBRANCH  10  11
ENDBRANCH   7  10
ENDBRANCH   5   6
BRANCH   5  15
ATOM     15  C   UNL     1       0.940  -0.246   1.169  0.00  0.00    +0.035 C 
BRANCH  15  17
ATOM     16  C   UNL     1       0.059  -2.561   0.843  0.00  0.00    +0.007 C 
ATOM     17  C   UNL     1       1.317  -1.727   1.094  0.00  0.00    -0.015 C 
ATOM     18  C   UNL     1       2.309  -1.944  -0.050  0.00  0.00    +0.007 C 
ENDBRANCH  15  17
ENDBRANCH   5  15
ENDBRANCH   1   5
BRANCH   3  19
ATOM     19  C   UNL     1       1.811  -1.773   5.326  0.00  0.00    +0.180 C 
BRANCH  19  20
ATOM     20  C   UNL     1       1.911  -3.258   5.561  0.00  0.00    +0.149 A 
ATOM     21  N   UNL     1       1.454  -4.178   4.773  0.00  0.00    -0.157 NA
ATOM     22  N   UNL     1       1.745  -5.425   5.343  0.00  0.00    -0.254 N 
ATOM     23  C   UNL     1       2.395  -5.194   6.503  0.00  0.00    +0.176 A 
ATOM     24  N   UNL     1       2.507  -3.857   6.643  0.00  0.00    -0.303 N 
ATOM     25  S   UNL     1       2.977  -6.379   7.592  0.00  0.00    -0.011 S 
ATOM     26  H   UNL     1       1.521  -6.293   4.973  0.00  0.00    +0.191 HD
BRANCH  24  27
ATOM     27  C   UNL     1       3.152  -3.163   7.760  0.00  0.00    +0.085 C 
ATOM     28  C   UNL     1       2.446  -3.533   9.066  0.00  0.00    +0.030 C 
ATOM     29  C   UNL     1       4.622  -3.581   7.839  0.00  0.00    +0.030 C 
ENDBRANCH  24  27
ENDBRANCH  19  20
ENDBRANCH   3  19
TORSDOF 9
