REMARK  Name = ZINC12564178
REMARK  12 active torsions:
REMARK  status: ('A' for Active; 'I' for Inactive)
REMARK    1  A    between atoms: C_1  and  C_2
REMARK    2  A    between atoms: C_2  and  C_3
REMARK    3  A    between atoms: C_3  and  C_4
REMARK    4  A    between atoms: C_3  and  C_6
REMARK    5  A    between atoms: C_4  and  C_5
REMARK    6  A    between atoms: C_6  and  C_8
REMARK    7  A    between atoms: C_6  and  N_54
REMARK    8  A    between atoms: C_8  and  N_9
REMARK    9  A    between atoms: N_9  and  C_10
REMARK   10  A    between atoms: C_21  and  C_24
REMARK   11  A    between atoms: C_28  and  N_54
REMARK   12  A    between atoms: C_29  and  N_54
REMARK                            x       y       z     vdW  Elec       q    Type
REMARK                         _______ _______ _______ _____ _____    ______ ____
ROOT
ATOM      1  C   UNL     1      -0.900  -2.888  -2.643  0.00  0.00    +0.071 A 
ATOM      2  C   UNL     1      -0.350  -1.700  -3.170  0.00  0.00    +0.158 A 
ATOM      3  N   UNL     1      -1.081  -0.898  -3.893  0.00  0.00    -0.168 NA
ATOM      4  N   UNL     1      -2.421  -1.193  -4.165  0.00  0.00    -0.177 N 
ATOM      5  C   UNL     1      -2.987  -2.317  -3.683  0.00  0.00    +0.293 A 
ATOM      6  O   UNL     1      -4.156  -2.570  -3.929  0.00  0.00    -0.264 OA
ATOM      7  C   UNL     1      -2.224  -3.196  -2.902  0.00  0.00    +0.129 A 
ATOM      8 CL   UNL     1      -2.929  -4.651  -2.269  0.00  0.00    -0.076 Cl
ATOM      9  C   UNL     1      -3.179  -0.316  -4.943  0.00  0.00    +0.158 A 
ATOM     10  C   UNL     1      -2.594   0.843  -5.441  0.00  0.00    +0.049 A 
ATOM     11  C   UNL     1      -3.357   1.705  -6.210  0.00  0.00    +0.017 A 
ATOM     12  C   UNL     1      -4.682   1.375  -6.457  0.00  0.00    +0.073 A 
ATOM     13  C   UNL     1      -5.197   0.206  -5.931  0.00  0.00    +0.125 A 
ATOM     14  N   UNL     1      -4.445  -0.598  -5.205  0.00  0.00    -0.235 NA
ENDROOT
BRANCH  12  15
ATOM     15  C   UNL     1      -5.550   2.282  -7.290  0.00  0.00    +0.419 C 
ATOM     16  F   UNL     1      -5.455   1.912  -8.636  0.00  0.00    -0.166 F 
ATOM     17  F   UNL     1      -6.880   2.171  -6.869  0.00  0.00    -0.166 F 
ATOM     18  F   UNL     1      -5.122   3.606  -7.139  0.00  0.00    -0.166 F 
ENDBRANCH  12  15
BRANCH   1  19
ATOM     19  N   UNL     1      -0.121  -3.738  -1.876  0.00  0.00    -0.343 N 
ATOM     20  H   UNL     1      -0.504  -4.554  -1.516  0.00  0.00    +0.146 HD
BRANCH  19  21
ATOM     21  C   UNL     1       1.279  -3.405  -1.606  0.00  0.00    +0.086 C 
BRANCH  21  22
ATOM     22  C   UNL     1       1.907  -4.500  -0.742  0.00  0.00    -0.049 C 
BRANCH  22  25
ATOM     23  C   UNL     1       1.286  -6.034   1.026  0.00  0.00    -0.096 C 
ATOM     24  C   UNL     1       1.424  -3.659   1.476  0.00  0.00    -0.096 C 
ATOM     25  N   UNL     1       1.077  -4.682   0.467  0.00  0.00    +0.379 N 
ATOM     26  H   UNL     1       0.088  -4.576   0.212  0.00  0.00    -0.082 HD
ENDBRANCH  22  25
BRANCH  22  27
ATOM     27  C   UNL     1       3.331  -4.093  -0.357  0.00  0.00    -0.024 C 
BRANCH  27  29
ATOM     28  C   UNL     1       3.933  -6.514  -0.496  0.00  0.00    +0.004 C 
ATOM     29  C   UNL     1       4.015  -5.254   0.368  0.00  0.00    -0.002 C 
ENDBRANCH  27  29
BRANCH  27  30
ATOM     30  C   UNL     1       4.121  -3.744  -1.620  0.00  0.00    -0.002 C 
ATOM     31  C   UNL     1       5.553  -3.366  -1.237  0.00  0.00    +0.004 C 
ENDBRANCH  27  30
ENDBRANCH  22  27
ENDBRANCH  21  22
ENDBRANCH  19  21
ENDBRANCH   1  19
TORSDOF 8
