REMARK  Name = ZINC36812355
REMARK  13 active torsions:
REMARK  status: ('A' for Active; 'I' for Inactive)
REMARK    1  A    between atoms: C_1  and  C_2
REMARK    2  A    between atoms: C_2  and  C_3
REMARK    3  A    between atoms: C_2  and  C_4
REMARK    4  A    between atoms: C_4  and  N_5
REMARK    5  A    between atoms: N_5  and  C_6
REMARK    6  A    between atoms: C_7  and  N_22
REMARK    7  A    between atoms: N_8  and  C_15
REMARK    8  A    between atoms: C_15  and  C_16
REMARK    9  A    between atoms: C_23  and  C_25
REMARK   10  A    between atoms: C_25  and  S_26
REMARK   11  A    between atoms: S_26  and  C_27
REMARK   12  A    between atoms: C_30  and  S_32
REMARK   13  A    between atoms: S_32  and  C_33
REMARK                            x       y       z     vdW  Elec       q    Type
REMARK                         _______ _______ _______ _____ _____    ______ ____
ROOT
ATOM      1  C   UNL     1       3.018  -0.897  -0.615  0.00  0.00    +0.140 A 
ATOM      2  C   UNL     1       4.102  -1.209  -1.410  0.00  0.00    +0.128 A 
ATOM      3  N   UNL     1       5.068  -2.060  -0.925  0.00  0.00    -0.276 N 
ATOM      4  C   UNL     1       4.957  -2.582   0.310  0.00  0.00    +0.331 A 
ATOM      5  O   UNL     1       5.821  -3.333   0.720  0.00  0.00    -0.246 OA
ATOM      6  N   UNL     1       3.908  -2.289   1.099  0.00  0.00    -0.273 N 
ATOM      7  H   UNL     1       3.851  -2.679   1.985  0.00  0.00    +0.173 HD
ATOM      8  C   UNL     1       2.938  -1.456   0.674  0.00  0.00    +0.277 A 
ATOM      9  O   UNL     1       1.993  -1.194   1.399  0.00  0.00    -0.266 OA
ENDROOT
BRANCH   1  10
ATOM     10  N   UNL     1       2.011  -0.027  -1.084  0.00  0.00    -0.263 N 
ATOM     11  C   UNL     1       2.304   1.263  -1.350  0.00  0.00    +0.230 C 
ATOM     12  O   UNL     1       3.449   1.656  -1.263  0.00  0.00    -0.274 OA
BRANCH  10  13
ATOM     13  C   UNL     1       0.648  -0.524  -1.282  0.00  0.00    +0.117 C 
BRANCH  13  15
ATOM     14  C   UNL     1       1.383  -2.292  -2.888  0.00  0.00    +0.009 C 
ATOM     15  C   UNL     1       0.501  -1.055  -2.710  0.00  0.00    +0.001 C 
ATOM     16  C   UNL     1      -0.960  -1.430  -2.966  0.00  0.00    +0.009 C 
ENDBRANCH  13  15
ENDBRANCH  10  13
BRANCH  11  17
ATOM     17  C   UNL     1       1.209   2.216  -1.755  0.00  0.00    +0.172 C 
BRANCH  17  18
ATOM     18  S   UNL     1       1.935   3.822  -2.186  0.00  0.00    -0.088 S 
BRANCH  18  19
ATOM     19  C   UNL     1       0.546   4.811  -2.631  0.00  0.00    +0.160 A 
ATOM     20  N   UNL     1      -0.734   4.494  -2.651  0.00  0.00    -0.134 NA
ATOM     21  N   UNL     1      -1.666   5.431  -3.035  0.00  0.00    -0.134 NA
ATOM     22  C   UNL     1      -1.274   6.642  -3.382  0.00  0.00    +0.159 A 
ATOM     23  S   UNL     1       0.495   6.514  -3.168  0.00  0.00    -0.033 S 
BRANCH  22  24
ATOM     24  S   UNL     1      -2.238   8.019  -3.909  0.00  0.00    -0.100 S 
ATOM     25  C   UNL     1      -3.943   7.401  -3.873  0.00  0.00    +0.092 C 
ENDBRANCH  22  24
ENDBRANCH  18  19
ENDBRANCH  17  18
ENDBRANCH  11  17
ENDBRANCH   1  10
BRANCH   2  26
ATOM     26  N   UNL     1       4.216  -0.675  -2.672  0.00  0.00    -0.343 N 
ATOM     27  H   UNL     1       3.565  -0.028  -2.985  0.00  0.00    +0.144 HD
ATOM     28  H   UNL     1       4.946  -0.947  -3.249  0.00  0.00    +0.144 HD
ENDBRANCH   2  26
BRANCH   3  29
ATOM     29  C   UNL     1       6.224  -2.399  -1.758  0.00  0.00    +0.163 C 
BRANCH  29  30
ATOM     30  C   UNL     1       7.331  -1.407  -1.511  0.00  0.00    -0.028 A 
ATOM     31  C   UNL     1       7.407  -0.254  -2.270  0.00  0.00    +0.005 A 
ATOM     32  C   UNL     1       8.422   0.657  -2.043  0.00  0.00    +0.000 A 
ATOM     33  C   UNL     1       9.360   0.415  -1.057  0.00  0.00    +0.000 A 
ATOM     34  C   UNL     1       9.283  -0.737  -0.297  0.00  0.00    +0.000 A 
ATOM     35  C   UNL     1       8.266  -1.646  -0.521  0.00  0.00    +0.005 A 
ENDBRANCH  29  30
ENDBRANCH   3  29
TORSDOF 10
