REMARK  Name = ZINC16756653
REMARK  5 active torsions:
REMARK  status: ('A' for Active; 'I' for Inactive)
REMARK    1  A    between atoms: C_1  and  C_2
REMARK    2  A    between atoms: C_2  and  N_3
REMARK    3  A    between atoms: C_7  and  C_8
REMARK    4  A    between atoms: C_21  and  C_25
REMARK    5  A    between atoms: N_23  and  C_24
REMARK                            x       y       z     vdW  Elec       q    Type
REMARK                         _______ _______ _______ _____ _____    ______ ____
ROOT
ATOM      1  C   UNL     1       3.330   0.270  -0.027  0.00  0.00    +0.058 A 
ATOM      2  C   UNL     1       4.673   0.703  -0.037  0.00  0.00    +0.009 A 
ATOM      3  C   UNL     1       5.909   0.045  -0.051  0.00  0.00    +0.010 A 
ATOM      4  C   UNL     1       7.062   0.773  -0.057  0.00  0.00    +0.001 A 
ATOM      5  C   UNL     1       7.030   2.165  -0.050  0.00  0.00    +0.001 A 
ATOM      6  C   UNL     1       5.846   2.840  -0.036  0.00  0.00    +0.012 A 
ATOM      7  C   UNL     1       4.639   2.123  -0.029  0.00  0.00    +0.025 A 
ATOM      8  C   UNL     1       3.283   2.507  -0.015  0.00  0.00    +0.127 A 
ATOM      9  N   UNL     1       2.517   1.398  -0.014  0.00  0.00    -0.293 N 
ATOM     10  C   UNL     1       1.179   1.788   0.000  0.00  0.00    +0.072 A 
ATOM     11  C   UNL     1      -0.013   1.076   0.008  0.00  0.00    +0.028 A 
ATOM     12  C   UNL     1      -1.216   1.751   0.017  0.00  0.00    +0.002 A 
ATOM     13  C   UNL     1      -1.241   3.136   0.031  0.00  0.00    +0.005 A 
ATOM     14  C   UNL     1      -0.062   3.854   0.024  0.00  0.00    -0.025 A 
ATOM     15  C   UNL     1       1.155   3.184   0.008  0.00  0.00    +0.070 A 
ATOM     16  N   UNL     1       2.473   3.613  -0.002  0.00  0.00    -0.328 N 
ATOM     17  C   UNL     1       2.923   5.007   0.001  0.00  0.00    +0.151 C 
ATOM     18  C   UNL     1      -0.095   5.361   0.032  0.00  0.00    +0.046 C 
ENDROOT
BRANCH   1  23
ATOM     19  N   UNL     1       3.733  -3.972  -2.110  0.00  0.00    -0.256 N 
ATOM     20  C   UNL     1       3.118  -3.318  -1.140  0.00  0.00    +0.258 C 
ATOM     21  O   UNL     1       2.314  -3.886  -0.417  0.00  0.00    -0.269 OA
ATOM     22  C   UNL     1       3.407  -1.949  -0.962  0.00  0.00    +0.079 C 
ATOM     23  C   UNL     1       2.897  -1.052  -0.030  0.00  0.00    +0.047 C 
ATOM     24  S   UNL     1       4.614  -1.683  -2.253  0.00  0.00    -0.061 S 
ATOM     25  C   UNL     1       4.630  -3.346  -2.906  0.00  0.00    +0.121 C 
ATOM     26  S   UNL     1       5.544  -3.983  -4.205  0.00  0.00    -0.027 S 
BRANCH  19  28
ATOM     27  C   UNL     1       4.405  -6.237  -1.478  0.00  0.00    +0.025 C 
ATOM     28  C   UNL     1       3.447  -5.393  -2.320  0.00  0.00    +0.111 C 
ENDBRANCH  19  28
ENDBRANCH   1  23
TORSDOF 2
