REMARK  Name = ZINC12861677
REMARK  3 active torsions:
REMARK  status: ('A' for Active; 'I' for Inactive)
REMARK    1  A    between atoms: C_4  and  C_7
REMARK    2  A    between atoms: C_9  and  C_12
REMARK    3  A    between atoms: C_12  and  C_13
REMARK                            x       y       z     vdW  Elec       q    Type
REMARK                         _______ _______ _______ _____ _____    ______ ____
ROOT
ATOM      1  C   UNL     1      -3.511  -3.653   0.035  0.00  0.00    +0.155 C 
ENDROOT
BRANCH   1   2
ATOM      2  C   UNL     1      -4.477  -3.691   1.190  0.00  0.00    +0.226 C 
ATOM      3  O   UNL     1      -4.505  -2.778   1.988  0.00  0.00    -0.275 OA
ATOM      4  N   UNL     1      -5.310  -4.740   1.338  0.00  0.00    -0.271 N 
ATOM      5  C   UNL     1      -5.233  -5.890   0.426  0.00  0.00    +0.114 C 
ATOM      6  C   UNL     1      -6.665  -6.267   0.025  0.00  0.00    +0.024 C 
ATOM      7  C   UNL     1      -7.427  -6.710   1.273  0.00  0.00    +0.038 C 
ATOM      8  C   UNL     1      -7.295  -5.681   2.365  0.00  0.00    -0.026 A 
ATOM      9  C   UNL     1      -6.261  -4.756   2.368  0.00  0.00    +0.039 A 
ATOM     10  C   UNL     1      -6.169  -3.820   3.390  0.00  0.00    +0.024 A 
ATOM     11  C   UNL     1      -7.102  -3.814   4.409  0.00  0.00    +0.002 A 
ATOM     12  C   UNL     1      -8.130  -4.738   4.407  0.00  0.00    +0.000 A 
ATOM     13  C   UNL     1      -8.226  -5.667   3.389  0.00  0.00    +0.005 A 
ENDBRANCH   1   2
BRANCH   1  16
ATOM     14  C   UNL     1      -1.253  -0.772   0.026  0.00  0.00    +0.167 A 
ATOM     15  C   UNL     1      -1.392  -2.133   0.033  0.00  0.00    +0.076 A 
ATOM     16  C   UNL     1      -2.788  -2.330   0.028  0.00  0.00    +0.093 A 
ATOM     17  N   UNL     1      -3.331  -1.146   0.012  0.00  0.00    -0.082 NA
ATOM     18  O   UNL     1      -2.500  -0.268   0.011  0.00  0.00    -0.354 OA
BRANCH  14  22
ATOM     19  C   UNL     1       2.385   1.421   0.037  0.00  0.00    +0.000 A 
ATOM     20  C   UNL     1       1.175   2.093   0.020  0.00  0.00    +0.001 A 
ATOM     21  C   UNL     1      -0.010   1.387   0.017  0.00  0.00    +0.011 A 
ATOM     22  C   UNL     1       0.013  -0.009   0.030  0.00  0.00    +0.020 A 
ATOM     23  C   UNL     1       1.236  -0.680   0.047  0.00  0.00    +0.011 A 
ATOM     24  C   UNL     1       2.414   0.038   0.051  0.00  0.00    +0.001 A 
ENDBRANCH  14  22
ENDBRANCH   1  16
TORSDOF 3
