REMARK  Name = ZINC12565751
REMARK  10 active torsions:
REMARK  status: ('A' for Active; 'I' for Inactive)
REMARK    1  A    between atoms: C_1  and  C_2
REMARK    2  A    between atoms: C_2  and  O_3
REMARK    3  A    between atoms: O_3  and  C_4
REMARK    4  A    between atoms: C_4  and  C_6
REMARK    5  A    between atoms: C_10  and  N_11
REMARK    6  A    between atoms: C_12  and  C_14
REMARK    7  A    between atoms: C_14  and  C_16
REMARK    8  A    between atoms: C_14  and  N_71
REMARK    9  A    between atoms: C_22  and  N_71
REMARK   10  A    between atoms: C_31  and  C_35
REMARK                            x       y       z     vdW  Elec       q    Type
REMARK                         _______ _______ _______ _____ _____    ______ ____
ROOT
ATOM      1  N   UNL     1       2.342   3.289  -0.004  0.00  0.00    -0.280 N 
ATOM      2  C   UNL     1       1.634   4.437   0.009  0.00  0.00    +0.208 C 
ATOM      3  O   UNL     1       0.422   4.401   0.020  0.00  0.00    -0.277 OA
ATOM      4  H   UNL     1       3.311   3.318  -0.013  0.00  0.00    +0.155 HD
ENDROOT
BRANCH   1   9
ATOM      5  C   UNL     1       2.232   0.793  -0.015  0.00  0.00    +0.091 A 
ATOM      6  C   UNL     1       1.312  -0.332  -0.012  0.00  0.00    -0.021 A 
ATOM      7  C   UNL     1       0.002  -0.004   0.002  0.00  0.00    -0.004 A 
ATOM      8  S   UNL     1      -0.022   1.766   0.012  0.00  0.00    -0.077 S 
ATOM      9  C   UNL     1       1.684   2.069  -0.003  0.00  0.00    +0.086 A 
ATOM     10  C   UNL     1      -1.164  -0.944   0.007  0.00  0.00    +0.046 C 
ATOM     11  C   UNL     1      -0.661  -2.341  -0.384  0.00  0.00    -0.009 C 
ATOM     12  C   UNL     1       0.589  -2.663   0.440  0.00  0.00    +0.008 C 
ATOM     13  C   UNL     1       1.756  -1.789  -0.023  0.00  0.00    +0.037 C 
ATOM     14  C   UNL     1      -1.748  -3.377  -0.093  0.00  0.00    +0.008 C 
BRANCH   5  15
ATOM     15  C   UNL     1       3.682   0.590  -0.029  0.00  0.00    +0.342 C 
ATOM     16  O   UNL     1       4.274   0.510  -1.089  0.00  0.00    -0.245 OA
BRANCH  15  17
ATOM     17  O   UNL     1       4.361   0.490   1.132  0.00  0.00    -0.461 OA
BRANCH  17  19
ATOM     18  C   UNL     1       6.388   0.200   2.450  0.00  0.00    +0.048 C 
ATOM     19  C   UNL     1       5.796   0.288   1.042  0.00  0.00    +0.229 C 
ENDBRANCH  17  19
ENDBRANCH  15  17
ENDBRANCH   5  15
ENDBRANCH   1   9
BRANCH   2  20
ATOM     20  C   UNL     1       2.350   5.763   0.008  0.00  0.00    +0.047 C 
BRANCH  20  21
ATOM     21  C   UNL     1       3.201   5.874  -1.230  0.00  0.00    -0.053 A 
ATOM     22  C   UNL     1       2.623   6.218  -2.438  0.00  0.00    +0.002 A 
ATOM     23  C   UNL     1       3.406   6.324  -3.573  0.00  0.00    +0.000 A 
ATOM     24  C   UNL     1       4.764   6.076  -3.502  0.00  0.00    +0.000 A 
ATOM     25  C   UNL     1       5.341   5.727  -2.296  0.00  0.00    +0.000 A 
ATOM     26  C   UNL     1       4.559   5.626  -1.160  0.00  0.00    +0.002 A 
ENDBRANCH  20  21
BRANCH  20  27
ATOM     27  N   UNL     1       1.353   6.850   0.019  0.00  0.00    +0.391 N 
ATOM     28  H   UNL     1       0.542   6.561   0.579  0.00  0.00    -0.084 HD
ATOM     29  H   UNL     1       1.053   7.044  -0.943  0.00  0.00    -0.084 HD
BRANCH  27  30
ATOM     30  C   UNL     1       1.936   8.073   0.603  0.00  0.00    -0.070 C 
ATOM     31  C   UNL     1       1.807   8.024   2.126  0.00  0.00    -0.016 C 
ATOM     32  C   UNL     1       2.733   9.070   2.751  0.00  0.00    -0.002 C 
ATOM     33  C   UNL     1       4.094   9.028   2.054  0.00  0.00    -0.000 C 
ATOM     34  C   UNL     1       4.309  10.328   1.275  0.00  0.00    -0.000 C 
ATOM     35  C   UNL     1       3.472  10.297  -0.006  0.00  0.00    -0.000 C 
ATOM     36  C   UNL     1       2.004  10.557   0.338  0.00  0.00    -0.002 C 
ATOM     37  C   UNL     1       1.184   9.293   0.066  0.00  0.00    -0.016 C 
ENDBRANCH  27  30
ENDBRANCH  20  27
ENDBRANCH   2  20
TORSDOF 8
