REMARK  Name = ZINC44452689
REMARK  5 active torsions:
REMARK  status: ('A' for Active; 'I' for Inactive)
REMARK    1  A    between atoms: C_1  and  N_2
REMARK    2  A    between atoms: N_2  and  C_3
REMARK    3  A    between atoms: C_7  and  C_9
REMARK    4  A    between atoms: C_13  and  N_14
REMARK    5  A    between atoms: C_15  and  C_17
REMARK                            x       y       z     vdW  Elec       q    Type
REMARK                         _______ _______ _______ _____ _____    ______ ____
ROOT
ATOM      1  C   UNL     1      -2.276  -4.196   0.001  0.00  0.00    +0.069 A 
ATOM      2  C   UNL     1      -2.259  -4.964   1.245  0.00  0.00    -0.023 A 
ATOM      3  C   UNL     1      -2.240  -6.297   1.067  0.00  0.00    -0.004 A 
ATOM      4  S   UNL     1      -2.248  -6.514  -0.694  0.00  0.00    -0.077 S 
ATOM      5  C   UNL     1      -2.278  -4.910  -1.184  0.00  0.00    +0.085 A 
ATOM      6  C   UNL     1      -2.219  -7.038   2.377  0.00  0.00    +0.043 C 
ATOM      7  C   UNL     1      -1.795  -5.978   3.418  0.00  0.00    +0.010 C 
ATOM      8  C   UNL     1      -2.259  -4.671   2.744  0.00  0.00    +0.037 C 
ENDROOT
BRANCH   1  15
ATOM      9  C   UNL     1      -0.018   1.461   0.010  0.00  0.00    +0.133 C 
ATOM     10  N   UNL     1       0.002  -0.004   0.002  0.00  0.00    -0.291 N 
ATOM     11  C   UNL     1       1.281  -0.719  -0.014  0.00  0.00    +0.133 C 
ATOM     12  C   UNL     1      -1.156  -0.694   0.009  0.00  0.00    +0.308 C 
ATOM     13  O   UNL     1      -2.217  -0.100   0.023  0.00  0.00    -0.252 OA
ATOM     14  N   UNL     1      -1.137  -2.041   0.002  0.00  0.00    -0.236 N 
ATOM     15  C   UNL     1      -2.295  -2.731   0.009  0.00  0.00    +0.254 C 
ATOM     16  O   UNL     1      -3.357  -2.137   0.023  0.00  0.00    -0.270 OA
ATOM     17  H   UNL     1      -0.291  -2.515  -0.009  0.00  0.00    +0.159 HD
ENDBRANCH   1  15
BRANCH   5  18
ATOM     18  N   UNL     1      -2.297  -4.414  -2.477  0.00  0.00    -0.275 N 
ATOM     19  C   UNL     1      -2.296  -5.263  -3.524  0.00  0.00    +0.249 C 
ATOM     20  O   UNL     1      -2.278  -6.463  -3.334  0.00  0.00    -0.270 OA
ATOM     21  H   UNL     1      -2.312  -3.456  -2.629  0.00  0.00    +0.156 HD
BRANCH  19  22
ATOM     22  C   UNL     1      -2.317  -4.734  -4.904  0.00  0.00    +0.037 A 
ATOM     23  C   UNL     1      -2.332  -3.356  -5.126  0.00  0.00    +0.014 A 
ATOM     24  C   UNL     1      -2.351  -2.868  -6.415  0.00  0.00    +0.021 A 
ATOM     25  C   UNL     1      -2.355  -3.743  -7.489  0.00  0.00    +0.041 A 
ATOM     26  C   UNL     1      -2.340  -5.111  -7.275  0.00  0.00    +0.021 A 
ATOM     27  C   UNL     1      -2.316  -5.611  -5.990  0.00  0.00    +0.014 A 
ATOM     28 CL   UNL     1      -2.380  -3.121  -9.110  0.00  0.00    -0.084 Cl
ENDBRANCH  19  22
ENDBRANCH   5  18
TORSDOF 3
