REMARK  Name = ZINC65287634
REMARK  6 active torsions:
REMARK  status: ('A' for Active; 'I' for Inactive)
REMARK    1  A    between atoms: C_1  and  C_2
REMARK    2  A    between atoms: C_2  and  C_3
REMARK    3  A    between atoms: C_3  and  N_4
REMARK    4  A    between atoms: C_8  and  C_10
REMARK    5  A    between atoms: C_16  and  C_18
REMARK    6  A    between atoms: C_18  and  C_19
REMARK                            x       y       z     vdW  Elec       q    Type
REMARK                         _______ _______ _______ _____ _____    ______ ____
ROOT
ATOM      1  C   UNL     1       2.745  -3.321  -1.725  0.00  0.00    +0.025 C 
ATOM      2  C   UNL     1       3.564  -2.461  -0.761  0.00  0.00    +0.025 C 
ATOM      3  C   UNL     1       4.666  -3.317  -0.129  0.00  0.00    +0.108 C 
ATOM      4  N   UNL     1       5.454  -3.941  -1.201  0.00  0.00    -0.301 N 
ATOM      5  C   UNL     1       4.753  -4.716  -2.233  0.00  0.00    +0.108 C 
ATOM      6  C   UNL     1       3.651  -3.844  -2.842  0.00  0.00    +0.025 C 
ATOM      7  C   UNL     1       6.794  -3.803  -1.237  0.00  0.00    +0.220 C 
ATOM      8  O   UNL     1       7.361  -3.160  -0.379  0.00  0.00    -0.275 OA
ENDROOT
BRANCH   1  13
ATOM      9  N   UNL     1       0.738  -1.966  -1.265  0.00  0.00    -0.272 NA
ATOM     10  C   UNL     1      -0.610  -2.514  -1.542  0.00  0.00    +0.185 C 
ATOM     11  N   UNL     1      -0.590  -2.816  -2.997  0.00  0.00    -0.241 NA
ATOM     12  N   UNL     1       0.777  -3.317  -3.213  0.00  0.00    -0.238 NA
ATOM     13  C   UNL     1       1.622  -2.478  -2.333  0.00  0.00    +0.143 C 
ATOM     14  H   UNL     1      -0.760  -1.983  -3.541  0.00  0.00    +0.142 HD
ATOM     15  H   UNL     1       1.050  -3.216  -4.179  0.00  0.00    +0.142 HD
BRANCH   9  16
ATOM     16  C   UNL     1       0.718  -0.497  -1.257  0.00  0.00    +0.087 C 
BRANCH  16  18
ATOM     17  C   UNL     1      -0.019   1.526   0.010  0.00  0.00    +0.005 C 
ATOM     18  C   UNL     1       0.002  -0.004   0.002  0.00  0.00    +0.012 C 
ENDBRANCH  16  18
ENDBRANCH   9  16
ENDBRANCH   1  13
BRANCH   7  19
ATOM     19  C   UNL     1       7.589  -4.449  -2.342  0.00  0.00    +0.129 C 
BRANCH  19  20
ATOM     20  C   UNL     1       9.053  -4.145  -2.153  0.00  0.00    -0.033 C 
ATOM     21  C   UNL     1       9.971  -4.923  -1.536  0.00  0.00    -0.001 A 
ATOM     22  C   UNL     1       9.885  -6.234  -0.881  0.00  0.00    +0.010 A 
ATOM     23  C   UNL     1      11.002  -6.772  -0.341  0.00  0.00    +0.001 A 
ATOM     24  C   UNL     1      12.237  -6.110  -0.389  0.00  0.00    +0.002 A 
ATOM     25  C   UNL     1      12.395  -4.903  -0.973  0.00  0.00    +0.026 A 
ATOM     26  C   UNL     1      11.287  -4.245  -1.574  0.00  0.00    +0.043 A 
ATOM     27  N   UNL     1      11.185  -3.093  -2.191  0.00  0.00    -0.380 N 
ATOM     28  C   UNL     1       9.794  -2.912  -2.619  0.00  0.00    +0.145 C 
ATOM     29  H   UNL     1      11.910  -2.466  -2.342  0.00  0.00    +0.160 HD
ENDBRANCH  19  20
ENDBRANCH   7  19
TORSDOF 5
