REMARK  Name = ZINC06320809
REMARK  12 active torsions:
REMARK  status: ('A' for Active; 'I' for Inactive)
REMARK    1  A    between atoms: C_1  and  C_2
REMARK    2  A    between atoms: C_6  and  C_15
REMARK    3  A    between atoms: C_13  and  C_14
REMARK    4  A    between atoms: C_15  and  N_68
REMARK    5  A    between atoms: C_16  and  C_17
REMARK    6  A    between atoms: C_16  and  N_68
REMARK    7  A    between atoms: C_20  and  O_23
REMARK    8  A    between atoms: O_23  and  C_24
REMARK    9  A    between atoms: C_25  and  C_26
REMARK   10  A    between atoms: C_25  and  N_68
REMARK   11  A    between atoms: N_30  and  C_31
REMARK   12  A    between atoms: C_31  and  C_32
REMARK                            x       y       z     vdW  Elec       q    Type
REMARK                         _______ _______ _______ _____ _____    ______ ____
ROOT
ATOM      1  N   UNL     1       5.670  -2.661   1.770  0.00  0.00    +0.390 N 
ATOM      2  H   UNL     1       5.472  -1.859   2.381  0.00  0.00    -0.080 HD
ENDROOT
BRANCH   1   3
ATOM      3  C   UNL     1       5.412  -2.271   0.368  0.00  0.00    -0.036 C 
BRANCH   3   9
ATOM      4  C   UNL     1       0.768   3.565   0.359  0.00  0.00    +0.044 C 
ATOM      5  C   UNL     1       1.014   2.081   0.268  0.00  0.00    -0.047 A 
ATOM      6  C   UNL     1       2.289   1.599   0.358  0.00  0.00    +0.013 A 
ATOM      7  C   UNL     1       2.518   0.222   0.273  0.00  0.00    -0.001 A 
ATOM      8  C   UNL     1       3.871  -0.328   0.365  0.00  0.00    +0.017 A 
ATOM      9  C   UNL     1       4.032  -1.672   0.276  0.00  0.00    +0.001 A 
ATOM     10  C   UNL     1       2.911  -2.511   0.098  0.00  0.00    +0.251 A 
ATOM     11  O   UNL     1       3.078  -3.716   0.021  0.00  0.00    -0.268 OA
ATOM     12  N   UNL     1       1.664  -2.015   0.012  0.00  0.00    -0.322 N 
ATOM     13  H   UNL     1       0.917  -2.621  -0.111  0.00  0.00    +0.169 HD
ATOM     14  C   UNL     1       1.434  -0.659   0.095  0.00  0.00    +0.049 A 
ATOM     15  C   UNL     1       0.144  -0.145   0.005  0.00  0.00    +0.030 A 
ATOM     16  C   UNL     1      -0.057   1.216   0.092  0.00  0.00    -0.046 A 
ATOM     17  C   UNL     1      -1.455   1.771  -0.011  0.00  0.00    +0.044 C 
ENDBRANCH   3   9
ENDBRANCH   1   3
BRANCH   1  18
ATOM     18  C   UNL     1       4.789  -3.784   2.152  0.00  0.00    -0.042 C 
BRANCH  18  19
ATOM     19  C   UNL     1       4.963  -4.062   3.623  0.00  0.00    -0.064 A 
ATOM     20  C   UNL     1       5.813  -5.070   4.039  0.00  0.00    +0.005 A 
ATOM     21  C   UNL     1       5.979  -5.323   5.387  0.00  0.00    +0.046 A 
ATOM     22  C   UNL     1       5.284  -4.570   6.323  0.00  0.00    +0.120 A 
ATOM     23  C   UNL     1       4.428  -3.563   5.903  0.00  0.00    +0.046 A 
ATOM     24  C   UNL     1       4.270  -3.311   4.554  0.00  0.00    +0.005 A 
BRANCH  22  25
ATOM     25  O   UNL     1       5.441  -4.820   7.650  0.00  0.00    -0.495 OA
ATOM     26  C   UNL     1       6.339  -5.873   8.010  0.00  0.00    +0.277 C 
ENDBRANCH  22  25
ENDBRANCH  18  19
ENDBRANCH   1  18
BRANCH   1  27
ATOM     27  C   UNL     1       7.086  -3.051   1.933  0.00  0.00    +0.001 C 
BRANCH  27  28
ATOM     28  C   UNL     1       7.946  -1.819   1.810  0.00  0.00    +0.135 A 
ATOM     29  N   UNL     1       8.556  -1.396   0.730  0.00  0.00    -0.115 NA
ATOM     30  N   UNL     1       9.187  -0.313   1.028  0.00  0.00    -0.023 NA
ATOM     31  N   UNL     1       9.001  -0.038   2.272  0.00  0.00    -0.044 NA
ATOM     32  N   UNL     1       8.241  -0.944   2.788  0.00  0.00    -0.229 N 
BRANCH  32  33
ATOM     33  C   UNL     1       7.785  -1.007   4.179  0.00  0.00    +0.178 C 
BRANCH  33  34
ATOM     34  C   UNL     1       8.855  -1.688   5.036  0.00  0.00    +0.140 C 
ATOM     35  C   UNL     1       8.337  -1.863   6.479  0.00  0.00    +0.035 C 
ATOM     36  C   UNL     1       9.603  -1.552   7.324  0.00  0.00    +0.031 C 
ATOM     37  C   UNL     1      10.280  -0.467   6.450  0.00  0.00    +0.160 C 
ATOM     38  O   UNL     1      10.027  -0.866   5.093  0.00  0.00    -0.375 OA
ENDBRANCH  33  34
ENDBRANCH  32  33
ENDBRANCH  27  28
ENDBRANCH   1  27
TORSDOF 9
