REMARK  Name = ZINC43258577
REMARK  7 active torsions:
REMARK  status: ('A' for Active; 'I' for Inactive)
REMARK    1  A    between atoms: C_1  and  C_2
REMARK    2  A    between atoms: C_2  and  C_3
REMARK    3  A    between atoms: C_3  and  C_5
REMARK    4  A    between atoms: C_3  and  N_20
REMARK    5  A    between atoms: C_5  and  C_7
REMARK    6  A    between atoms: C_5  and  N_13
REMARK    7  A    between atoms: N_16  and  C_19
REMARK                            x       y       z     vdW  Elec       q    Type
REMARK                         _______ _______ _______ _____ _____    ______ ____
ROOT
ATOM      1  C   UNL     1      -1.351  -2.132  -0.086  0.00  0.00    +0.079 C 
ENDROOT
BRANCH   1   2
ATOM      2  N   UNL     1      -2.709  -2.678   0.037  0.00  0.00    -0.300 NA
ATOM      3  C   UNL     1      -3.390  -2.137   1.222  0.00  0.00    +0.066 C 
ATOM      4  C   UNL     1      -4.818  -2.683   1.280  0.00  0.00    -0.064 C 
ATOM      5  N   UNL     1      -4.780  -4.149   1.345  0.00  0.00    +0.379 N 
ATOM      6  C   UNL     1      -4.119  -4.677   0.143  0.00  0.00    -0.064 C 
ATOM      7  C   UNL     1      -2.685  -4.147   0.075  0.00  0.00    +0.066 C 
ATOM      8  C   UNL     1      -6.151  -4.672   1.419  0.00  0.00    -0.096 C 
ATOM      9  H   UNL     1      -4.266  -4.437   2.164  0.00  0.00    -0.082 HD
ENDBRANCH   1   2
BRANCH   1  10
ATOM     10  C   UNL     1      -0.700  -2.682  -1.329  0.00  0.00    +0.006 A 
ATOM     11  C   UNL     1       0.578  -3.098  -1.510  0.00  0.00    +0.014 A 
ATOM     12  C   UNL     1       0.959  -3.570  -2.752  0.00  0.00    +0.023 A 
ATOM     13  C   UNL     1       0.044  -3.604  -3.752  0.00  0.00    +0.055 A 
ATOM     14  S   UNL     1      -1.411  -2.962  -2.942  0.00  0.00    -0.085 S 
ATOM     15 BR   UNL     1       0.253  -4.187  -5.538  0.00  0.00    -0.043 Br
ENDBRANCH   1  10
BRANCH   1  16
ATOM     16  C   UNL     1      -1.421  -0.607  -0.179  0.00  0.00    -0.053 C 
BRANCH  16  17
ATOM     17  N   UNL     1      -0.076  -0.069  -0.421  0.00  0.00    +0.381 N 
ATOM     18  H   UNL     1      -0.102   0.939  -0.369  0.00  0.00    -0.090 HD
ATOM     19  H   UNL     1       0.559  -0.425   0.277  0.00  0.00    -0.090 HD
ATOM     20  H   UNL     1       0.239  -0.350  -1.337  0.00  0.00    -0.090 HD
ENDBRANCH  16  17
BRANCH  16  22
ATOM     21  C   UNL     1      -2.514   1.313  -1.347  0.00  0.00    +0.002 C 
ATOM     22  C   UNL     1      -2.345  -0.208  -1.331  0.00  0.00    -0.018 C 
ENDBRANCH  16  22
ENDBRANCH   1  16
TORSDOF 5
