REMARK  Name = ZINC03359136
REMARK  8 active torsions:
REMARK  status: ('A' for Active; 'I' for Inactive)
REMARK    1  A    between atoms: C_1  and  C_2
REMARK    2  A    between atoms: C_9  and  N_14
REMARK    3  A    between atoms: C_10  and  C_11
REMARK    4  A    between atoms: C_15  and  C_17
REMARK    5  A    between atoms: C_17  and  O_18
REMARK    6  A    between atoms: O_18  and  C_19
REMARK    7  A    between atoms: C_19  and  C_21
REMARK    8  A    between atoms: C_21  and  N_22
REMARK                            x       y       z     vdW  Elec       q    Type
REMARK                         _______ _______ _______ _____ _____    ______ ____
ROOT
ATOM      1  N   UNL     1      -1.191   1.867   0.018  0.00  0.00    -0.277 N 
ATOM      2  C   UNL     1      -0.014   1.209   0.009  0.00  0.00    +0.255 C 
ATOM      3  O   UNL     1       0.002  -0.004   0.002  0.00  0.00    -0.272 OA
ATOM      4  H   UNL     1      -1.204   2.837   0.023  0.00  0.00    +0.155 HD
ENDROOT
BRANCH   1  12
ATOM      5  C   UNL     1      -7.678  -2.503   0.118  0.00  0.00    +0.008 C 
ATOM      6  C   UNL     1      -6.689  -1.371   0.403  0.00  0.00    -0.009 C 
ATOM      7  C   UNL     1      -7.063  -0.138  -0.425  0.00  0.00    +0.008 C 
ATOM      8  C   UNL     1      -6.239   1.067   0.036  0.00  0.00    +0.037 C 
ATOM      9  C   UNL     1      -4.764   0.684   0.028  0.00  0.00    -0.023 A 
ATOM     10  C   UNL     1      -4.382  -0.611   0.018  0.00  0.00    -0.004 A 
ATOM     11  S   UNL     1      -2.612  -0.560   0.004  0.00  0.00    -0.077 S 
ATOM     12  C   UNL     1      -2.382   1.157   0.020  0.00  0.00    +0.084 A 
ATOM     13  C   UNL     1      -3.679   1.650   0.029  0.00  0.00    +0.068 A 
ATOM     14  C   UNL     1      -5.271  -1.816   0.016  0.00  0.00    +0.046 C 
BRANCH  13  15
ATOM     15  C   UNL     1      -3.944   3.092   0.038  0.00  0.00    +0.244 C 
ATOM     16  O   UNL     1      -4.059   3.696  -1.012  0.00  0.00    -0.270 OA
ATOM     17  N   UNL     1      -4.061   3.748   1.209  0.00  0.00    -0.325 N 
ATOM     18  H   UNL     1      -3.970   3.266   2.046  0.00  0.00    +0.145 HD
ATOM     19  H   UNL     1      -4.237   4.702   1.215  0.00  0.00    +0.145 HD
ENDBRANCH  13  15
ENDBRANCH   1  12
BRANCH   2  20
ATOM     20  C   UNL     1       1.280   1.980   0.001  0.00  0.00    +0.328 C 
BRANCH  20  21
ATOM     21  O   UNL     1       2.397   1.051  -0.015  0.00  0.00    -0.454 OA
BRANCH  21  22
ATOM     22  C   UNL     1       3.630   1.581  -0.024  0.00  0.00    +0.328 C 
ATOM     23  O   UNL     1       3.772   2.781  -0.019  0.00  0.00    -0.249 OA
BRANCH  22  24
ATOM     24  C   UNL     1       4.837   0.680  -0.041  0.00  0.00    +0.243 C 
BRANCH  24  25
ATOM     25  N   UNL     1       6.055   1.494  -0.048  0.00  0.00    -0.319 N 
ATOM     26  C   UNL     1       6.771   1.864  -1.144  0.00  0.00    +0.200 A 
ATOM     27  N   UNL     1       7.792   2.588  -0.787  0.00  0.00    -0.236 NA
ATOM     28  C   UNL     1       7.806   2.724   0.564  0.00  0.00    +0.089 A 
ATOM     29  C   UNL     1       6.692   2.024   1.057  0.00  0.00    +0.069 A 
ATOM     30  C   UNL     1       6.448   1.988   2.423  0.00  0.00    +0.028 A 
ATOM     31  C   UNL     1       7.303   2.640   3.286  0.00  0.00    +0.002 A 
ATOM     32  C   UNL     1       8.403   3.330   2.799  0.00  0.00    +0.002 A 
ATOM     33  C   UNL     1       8.658   3.377   1.457  0.00  0.00    +0.030 A 
ENDBRANCH  24  25
ENDBRANCH  22  24
ENDBRANCH  21  22
ENDBRANCH  20  21
ENDBRANCH   2  20
TORSDOF 7
