REMARK  Name = ZINC60774873
REMARK  3 active torsions:
REMARK  status: ('A' for Active; 'I' for Inactive)
REMARK    1  A    between atoms: C_8  and  C_21
REMARK    2  A    between atoms: N_9  and  C_10
REMARK    3  A    between atoms: C_10  and  C_11
REMARK                            x       y       z     vdW  Elec       q    Type
REMARK                         _______ _______ _______ _____ _____    ______ ____
ROOT
ATOM      1  C   UNL     1       0.413   2.203  -0.201  0.00  0.00    +0.002 A 
ATOM      2  C   UNL     1       1.708   2.702  -0.234  0.00  0.00    +0.002 A 
ATOM      3  C   UNL     1       2.788   1.846  -0.186  0.00  0.00    +0.028 A 
ATOM      4  C   UNL     1       2.578   0.477  -0.105  0.00  0.00    +0.070 A 
ATOM      5  C   UNL     1       1.267  -0.029  -0.072  0.00  0.00    +0.090 A 
ATOM      6  C   UNL     1       0.187   0.858  -0.121  0.00  0.00    +0.030 A 
ATOM      7  N   UNL     1       1.360  -1.379   0.008  0.00  0.00    -0.226 NA
ATOM      8  C   UNL     1       2.623  -1.734   0.025  0.00  0.00    +0.161 A 
ATOM      9  N   UNL     1       3.417  -0.620  -0.042  0.00  0.00    -0.313 N 
ENDROOT
BRANCH   8  10
ATOM     10  C   UNL     1       3.114  -3.124   0.106  0.00  0.00    +0.113 A 
ATOM     11  C   UNL     1       2.255  -4.193   0.165  0.00  0.00    +0.078 A 
ATOM     12  S   UNL     1       3.417  -5.546   0.243  0.00  0.00    -0.083 S 
ATOM     13  C   UNL     1       4.835  -4.641   0.195  0.00  0.00    +0.156 A 
ATOM     14  N   UNL     1       4.410  -3.409   0.119  0.00  0.00    -0.244 NA
ENDBRANCH   8  10
BRANCH   9  15
ATOM     15  C   UNL     1       4.882  -0.596  -0.048  0.00  0.00    +0.219 C 
BRANCH  15  16
ATOM     16  C   UNL     1       5.388  -0.504   1.368  0.00  0.00    +0.235 C 
ATOM     17  O   UNL     1       4.610  -0.572   2.296  0.00  0.00    -0.274 OA
ATOM     18  N   UNL     1       6.706  -0.347   1.604  0.00  0.00    -0.300 N 
ATOM     19  C   UNL     1       7.223  -0.373   2.980  0.00  0.00    +0.108 C 
ATOM     20  C   UNL     1       7.080  -1.783   3.538  0.00  0.00    +0.019 C 
ATOM     21  C   UNL     1       8.120  -2.698   2.870  0.00  0.00    +0.002 C 
ATOM     22  C   UNL     1       7.641  -3.075   1.472  0.00  0.00    +0.000 C 
ATOM     23  C   UNL     1       8.561  -2.468   0.398  0.00  0.00    +0.002 C 
ATOM     24  C   UNL     1       8.874  -1.013   0.750  0.00  0.00    +0.019 C 
ATOM     25  C   UNL     1       7.632  -0.156   0.500  0.00  0.00    +0.108 C 
ENDBRANCH  15  16
ENDBRANCH   9  15
TORSDOF 3
