REMARK  Name = ZINC04248183
REMARK  5 active torsions:
REMARK  status: ('A' for Active; 'I' for Inactive)
REMARK    1  A    between atoms: C_4  and  C_7
REMARK    2  A    between atoms: N_9  and  S_20
REMARK    3  A    between atoms: C_10  and  C_13
REMARK    4  A    between atoms: C_18  and  O_19
REMARK    5  A    between atoms: S_20  and  C_23
REMARK                            x       y       z     vdW  Elec       q    Type
REMARK                         _______ _______ _______ _____ _____    ______ ____
ROOT
ATOM      1  C   UNL     1       2.417   3.937   0.001  0.00  0.00    +0.070 C 
ATOM      2  N   UNL     1       3.595   3.418  -0.013  0.00  0.00    -0.167 NA
ATOM      3  N   UNL     1       4.629   4.353  -0.018  0.00  0.00    -0.115 N 
ATOM      4  C   UNL     1       4.047   5.705  -0.005  0.00  0.00    +0.157 C 
ATOM      5  C   UNL     1       2.528   5.445   0.002  0.00  0.00    +0.088 C 
ENDROOT
BRANCH   1   9
ATOM      6  C   UNL     1      -1.221   1.750   0.017  0.00  0.00    +0.000 A 
ATOM      7  C   UNL     1      -0.013   1.076   0.008  0.00  0.00    +0.001 A 
ATOM      8  C   UNL     1       1.173   1.780   0.000  0.00  0.00    +0.010 A 
ATOM      9  C   UNL     1       1.153   3.177   0.008  0.00  0.00    -0.002 A 
ATOM     10  C   UNL     1      -0.071   3.850   0.023  0.00  0.00    +0.010 A 
ATOM     11  C   UNL     1      -1.249   3.133   0.031  0.00  0.00    +0.001 A 
ENDBRANCH   1   9
BRANCH   4  12
ATOM     12  C   UNL     1       4.448   6.466  -1.243  0.00  0.00    +0.018 A 
ATOM     13  C   UNL     1       4.822   5.783  -2.384  0.00  0.00    +0.009 A 
ATOM     14  C   UNL     1       5.185   6.481  -3.521  0.00  0.00    +0.001 A 
ATOM     15  C   UNL     1       5.184   7.864  -3.516  0.00  0.00    +0.004 A 
ATOM     16  C   UNL     1       4.816   8.551  -2.376  0.00  0.00    +0.046 A 
ATOM     17  C   UNL     1       4.447   7.853  -1.235  0.00  0.00    +0.122 A 
BRANCH  17  18
ATOM     18  O   UNL     1       4.083   8.527  -0.113  0.00  0.00    -0.506 OA
ATOM     19  H   UNL     1       4.819   8.722   0.485  0.00  0.00    +0.292 HD
ENDBRANCH  17  18
ENDBRANCH   4  12
BRANCH   3  20
ATOM     20  S   UNL     1       6.247   4.000  -0.036  0.00  0.00    +0.089 S 
ATOM     21  O   UNL     1       6.383   2.752  -0.701  0.00  0.00    -0.149 OA
ATOM     22  O   UNL     1       6.913   5.175  -0.477  0.00  0.00    -0.149 OA
BRANCH  20  23
ATOM     23  C   UNL     1       6.741   3.737   1.635  0.00  0.00    +0.110 A 
ATOM     24  C   UNL     1       7.195   4.797   2.396  0.00  0.00    +0.029 A 
ATOM     25  C   UNL     1       7.579   4.592   3.708  0.00  0.00    +0.002 A 
ATOM     26  C   UNL     1       7.517   3.324   4.256  0.00  0.00    +0.000 A 
ATOM     27  C   UNL     1       7.067   2.263   3.493  0.00  0.00    +0.002 A 
ATOM     28  C   UNL     1       6.680   2.469   2.182  0.00  0.00    +0.029 A 
ENDBRANCH  20  23
ENDBRANCH   3  20
TORSDOF 5
