REMARK  Name = ZINC02073030
REMARK  16 active torsions:
REMARK  status: ('A' for Active; 'I' for Inactive)
REMARK    1  A    between atoms: C_1  and  C_2
REMARK    2  A    between atoms: C_3  and  C_37
REMARK    3  A    between atoms: C_4  and  C_25
REMARK    4  A    between atoms: C_10  and  C_15
REMARK    5  A    between atoms: C_18  and  O_23
REMARK    6  A    between atoms: C_19  and  O_21
REMARK    7  A    between atoms: O_21  and  C_22
REMARK    8  A    between atoms: O_23  and  C_24
REMARK    9  A    between atoms: C_27  and  O_35
REMARK   10  A    between atoms: C_28  and  O_33
REMARK   11  A    between atoms: C_30  and  O_31
REMARK   12  A    between atoms: O_31  and  C_32
REMARK   13  A    between atoms: O_33  and  C_34
REMARK   14  A    between atoms: O_35  and  C_36
REMARK   15  A    between atoms: C_37  and  O_39
REMARK   16  A    between atoms: O_39  and  C_40
REMARK                            x       y       z     vdW  Elec       q    Type
REMARK                         _______ _______ _______ _____ _____    ______ ____
ROOT
ATOM      1  C   UNL     1       2.454   0.144  -0.238  0.00  0.00    +0.061 C 
ATOM      2  C   UNL     1       1.176  -0.647  -0.120  0.00  0.00    +0.016 C 
ATOM      3  C   UNL     1       0.003  -0.004   0.009  0.00  0.00    +0.065 C 
ATOM      4  C   UNL     1      -1.289  -0.758   0.132  0.00  0.00    +0.096 C 
ATOM      5  C   UNL     1      -1.128  -2.186  -0.328  0.00  0.00    +0.024 C 
ATOM      6  C   UNL     1       0.098  -2.740  -0.441  0.00  0.00    +0.016 C 
ATOM      7  N   UNL     1       1.219  -2.013  -0.141  0.00  0.00    -0.321 N 
ATOM      8  C   UNL     1       0.267  -4.166  -0.902  0.00  0.00    +0.059 C 
ATOM      9  C   UNL     1      -0.948  -4.992  -0.473  0.00  0.00    +0.032 C 
ATOM     10  C   UNL     1      -2.205  -4.356  -1.075  0.00  0.00    +0.088 C 
ATOM     11  C   UNL     1      -2.287  -2.921  -0.632  0.00  0.00    +0.162 C 
ATOM     12  O   UNL     1      -3.374  -2.388  -0.534  0.00  0.00    -0.292 OA
ATOM     13  H   UNL     1       2.159  -2.537   0.085  0.00  0.00    +0.152 HD
ENDROOT
BRANCH   9  14
ATOM     14  C   UNL     1      -0.801  -6.406  -0.974  0.00  0.00    -0.040 A 
ATOM     15  C   UNL     1      -0.695  -6.649  -2.331  0.00  0.00    +0.008 A 
ATOM     16  C   UNL     1      -0.560  -7.944  -2.796  0.00  0.00    +0.049 A 
ATOM     17  C   UNL     1      -0.530  -9.002  -1.901  0.00  0.00    +0.161 A 
ATOM     18  C   UNL     1      -0.636  -8.757  -0.535  0.00  0.00    +0.162 A 
ATOM     19  C   UNL     1      -0.766  -7.456  -0.076  0.00  0.00    +0.053 A 
BRANCH  18  20
ATOM     20  O   UNL     1      -0.607  -9.791   0.347  0.00  0.00    -0.491 OA
ATOM     21  C   UNL     1      -0.721  -9.465   1.733  0.00  0.00    +0.277 C 
ENDBRANCH  18  20
BRANCH  17  22
ATOM     22  O   UNL     1      -0.397 -10.276  -2.357  0.00  0.00    -0.491 OA
ATOM     23  C   UNL     1      -0.293 -10.452  -3.771  0.00  0.00    +0.277 C 
ENDBRANCH  17  22
ENDBRANCH   9  14
BRANCH   4  24
ATOM     24  C   UNL     1      -1.732  -0.749   1.572  0.00  0.00    +0.010 A 
ATOM     25  C   UNL     1      -0.925  -1.307   2.546  0.00  0.00    +0.057 A 
ATOM     26  C   UNL     1      -1.329  -1.295   3.871  0.00  0.00    +0.162 A 
ATOM     27  C   UNL     1      -2.553  -0.731   4.220  0.00  0.00    +0.165 A 
ATOM     28  C   UNL     1      -3.362  -0.177   3.242  0.00  0.00    +0.095 A 
ATOM     29  C   UNL     1      -2.951  -0.186   1.917  0.00  0.00    +0.128 A 
BRANCH  29  30
ATOM     30  O   UNL     1      -3.745   0.357   0.956  0.00  0.00    -0.495 OA
ATOM     31  C   UNL     1      -4.988   0.920   1.383  0.00  0.00    +0.277 C 
ENDBRANCH  29  30
BRANCH  27  32
ATOM     32  O   UNL     1      -2.953  -0.723   5.520  0.00  0.00    -0.491 OA
ATOM     33  C   UNL     1      -4.220  -0.128   5.805  0.00  0.00    +0.277 C 
ENDBRANCH  27  32
BRANCH  26  34
ATOM     34  O   UNL     1      -0.532  -1.840   4.830  0.00  0.00    -0.491 OA
ATOM     35  C   UNL     1       0.710  -2.401   4.401  0.00  0.00    +0.277 C 
ENDBRANCH  26  34
ENDBRANCH   4  24
BRANCH   3  36
ATOM     36  C   UNL     1      -0.016   1.410   0.024  0.00  0.00    +0.337 C 
ATOM     37  O   UNL     1       1.030   2.032   0.029  0.00  0.00    -0.245 OA
BRANCH  36  38
ATOM     38  O   UNL     1      -1.193   2.070   0.029  0.00  0.00    -0.465 OA
ATOM     39  C   UNL     1      -1.137   3.497   0.044  0.00  0.00    +0.280 C 
ENDBRANCH  36  38
ENDBRANCH   3  36
TORSDOF 9
