REMARK  Name = ZINC02802421
REMARK  12 active torsions:
REMARK  status: ('A' for Active; 'I' for Inactive)
REMARK    1  A    between atoms: C_1  and  C_2
REMARK    2  A    between atoms: C_2  and  N_3
REMARK    3  A    between atoms: C_4  and  C_35
REMARK    4  A    between atoms: C_5  and  N_8
REMARK    5  A    between atoms: N_8  and  C_9
REMARK    6  A    between atoms: C_9  and  N_11
REMARK    7  A    between atoms: N_11  and  N_12
REMARK    8  A    between atoms: C_13  and  C_15
REMARK    9  A    between atoms: C_15  and  C_16
REMARK   10  A    between atoms: C_25  and  C_28
REMARK   11  A    between atoms: C_29  and  C_34
REMARK   12  A    between atoms: C_32  and  C_33
REMARK                            x       y       z     vdW  Elec       q    Type
REMARK                         _______ _______ _______ _____ _____    ______ ____
ROOT
ATOM      1  N   UNL     1       6.035  -2.606   4.204  0.00  0.00    -0.235 N 
ATOM      2  C   UNL     1       7.279  -2.742   4.705  0.00  0.00    +0.230 C 
ATOM      3  O   UNL     1       7.435  -2.969   5.886  0.00  0.00    -0.274 OA
ATOM      4  H   UNL     1       5.910  -2.425   3.259  0.00  0.00    +0.173 HD
ENDROOT
BRANCH   1   5
ATOM      5  N   UNL     1       4.923  -2.726   5.047  0.00  0.00    -0.246 N 
ATOM      6  H   UNL     1       5.048  -2.907   5.992  0.00  0.00    +0.172 HD
BRANCH   5   7
ATOM      7  C   UNL     1       3.679  -2.590   4.546  0.00  0.00    +0.151 C 
ATOM      8  S   UNL     1       2.320  -2.736   5.576  0.00  0.00    -0.017 S 
BRANCH   7   9
ATOM      9  N   UNL     1       3.506  -2.338   3.233  0.00  0.00    -0.293 N 
ATOM     10  H   UNL     1       4.269  -2.336   2.635  0.00  0.00    +0.154 HD
BRANCH   9  13
ATOM     11  N   UNL     1       0.496  -1.906   1.384  0.00  0.00    -0.267 N 
ATOM     12  C   UNL     1       1.800  -2.280   1.454  0.00  0.00    +0.057 A 
ATOM     13  C   UNL     1       2.216  -2.078   2.731  0.00  0.00    +0.074 A 
ATOM     14  C   UNL     1       1.134  -1.566   3.459  0.00  0.00    +0.158 A 
ATOM     15  N   UNL     1       0.109  -1.457   2.653  0.00  0.00    -0.178 NA
ATOM     16  C   UNL     1       2.634  -2.821   0.321  0.00  0.00    +0.067 C 
BRANCH  11  18
ATOM     17  C   UNL     1      -0.238  -0.635  -0.572  0.00  0.00    +0.029 C 
ATOM     18  C   UNL     1      -0.352  -1.956   0.191  0.00  0.00    +0.140 C 
ENDBRANCH  11  18
ENDBRANCH   9  13
ENDBRANCH   7   9
ENDBRANCH   5   7
ENDBRANCH   1   5
BRANCH   2  19
ATOM     19  C   UNL     1       8.475  -2.614   3.798  0.00  0.00    +0.104 C 
BRANCH  19  20
ATOM     20  C   UNL     1       9.756  -2.810   4.612  0.00  0.00    -0.020 C 
ATOM     21  C   UNL     1       9.831  -1.746   5.709  0.00  0.00    +0.011 C 
ATOM     22  C   UNL     1      11.111  -1.942   6.523  0.00  0.00    -0.009 C 
ATOM     23  C   UNL     1      11.102  -3.333   7.161  0.00  0.00    +0.007 C 
ATOM     24  C   UNL     1      11.027  -4.396   6.064  0.00  0.00    -0.009 C 
ATOM     25  C   UNL     1       9.747  -4.200   5.250  0.00  0.00    +0.011 C 
ATOM     26  C   UNL     1      12.242  -4.266   5.143  0.00  0.00    +0.015 C 
ATOM     27  C   UNL     1      12.251  -2.875   4.505  0.00  0.00    +0.002 C 
ATOM     28  C   UNL     1      12.326  -1.811   5.602  0.00  0.00    +0.015 C 
ATOM     29  C   UNL     1      10.971  -2.679   3.691  0.00  0.00    +0.019 C 
BRANCH  27  30
ATOM     30  C   UNL     1      13.448  -2.746   3.598  0.00  0.00    +0.023 A 
ATOM     31  C   UNL     1      14.568  -1.925   3.820  0.00  0.00    +0.084 A 
ATOM     32  N   UNL     1      15.389  -2.083   2.822  0.00  0.00    -0.083 NA
ATOM     33  O   UNL     1      14.813  -3.016   1.926  0.00  0.00    -0.359 OA
ATOM     34  C   UNL     1      13.633  -3.402   2.436  0.00  0.00    +0.138 A 
ATOM     35  C   UNL     1      12.681  -4.391   1.816  0.00  0.00    +0.089 C 
ATOM     36  C   UNL     1      14.780  -1.020   5.007  0.00  0.00    +0.069 C 
ENDBRANCH  27  30
ENDBRANCH  19  20
ENDBRANCH   2  19
TORSDOF 8
