REMARK  Name = ZINC46668620
REMARK  6 active torsions:
REMARK  status: ('A' for Active; 'I' for Inactive)
REMARK    1  A    between atoms: C_3  and  N_27
REMARK    2  A    between atoms: C_6  and  N_7
REMARK    3  A    between atoms: C_8  and  C_10
REMARK    4  A    between atoms: C_10  and  S_11
REMARK    5  A    between atoms: S_11  and  C_12
REMARK    6  A    between atoms: C_12  and  C_13
REMARK                            x       y       z     vdW  Elec       q    Type
REMARK                         _______ _______ _______ _____ _____    ______ ____
ROOT
ATOM      1  N   UNL     1      -1.202  -0.721   0.010  0.00  0.00    -0.285 N 
ATOM      2  C   UNL     1      -0.987  -2.048   0.113  0.00  0.00    +0.227 C 
ATOM      3  O   UNL     1       0.141  -2.470   0.259  0.00  0.00    -0.275 OA
ATOM      4  H   UNL     1      -2.108  -0.378  -0.028  0.00  0.00    +0.155 HD
ENDROOT
BRANCH   1  10
ATOM      5  C   UNL     1       1.056  -0.215  -0.687  0.00  0.00    +0.025 A 
ATOM      6  C   UNL     1       2.126   0.656  -0.739  0.00  0.00    +0.025 A 
ATOM      7  C   UNL     1       2.031   1.909  -0.148  0.00  0.00    +0.030 A 
ATOM      8  C   UNL     1       0.860   2.287   0.495  0.00  0.00    +0.025 A 
ATOM      9  C   UNL     1      -0.210   1.416   0.547  0.00  0.00    +0.025 A 
ATOM     10  C   UNL     1      -0.116   0.163  -0.044  0.00  0.00    +0.034 A 
BRANCH   7  11
ATOM     11  N   UNL     1       3.116   2.791  -0.201  0.00  0.00    -0.320 N 
ATOM     12  C   UNL     1       3.011   4.166   0.315  0.00  0.00    +0.124 C 
ATOM     13  C   UNL     1       4.019   4.328   1.454  0.00  0.00    +0.123 C 
ATOM     14  N   UNL     1       5.319   3.793   1.072  0.00  0.00    -0.313 N 
ATOM     15  C   UNL     1       5.514   2.892   0.109  0.00  0.00    +0.230 C 
ATOM     16  O   UNL     1       6.635   2.463  -0.064  0.00  0.00    -0.274 OA
ATOM     17  C   UNL     1       4.409   2.380  -0.768  0.00  0.00    +0.200 C 
ATOM     18  H   UNL     1       6.098   4.115   1.552  0.00  0.00    +0.149 HD
ENDBRANCH   7  11
ENDBRANCH   1  10
BRANCH   2  19
ATOM     19  C   UNL     1      -2.148  -3.006   0.046  0.00  0.00    +0.165 C 
BRANCH  19  20
ATOM     20  S   UNL     1      -1.538  -4.707   0.214  0.00  0.00    -0.144 S 
BRANCH  20  21
ATOM     21  C   UNL     1      -3.038  -5.722   0.115  0.00  0.00    +0.143 C 
BRANCH  21  22
ATOM     22  C   UNL     1      -2.668  -7.178   0.242  0.00  0.00    +0.121 A 
ATOM     23  N   UNL     1      -3.644  -8.120   0.189  0.00  0.00    -0.310 N 
ATOM     24  H   UNL     1      -4.566  -7.843   0.069  0.00  0.00    +0.170 HD
ATOM     25  C   UNL     1      -3.358  -9.431   0.299  0.00  0.00    +0.260 A 
ATOM     26  O   UNL     1      -4.245 -10.267   0.249  0.00  0.00    -0.267 OA
ATOM     27  C   UNL     1      -1.992  -9.827   0.475  0.00  0.00    +0.075 A 
ATOM     28  C   UNL     1      -1.453 -11.187   0.616  0.00  0.00    -0.023 A 
ATOM     29  C   UNL     1      -0.123 -11.300   0.773  0.00  0.00    -0.004 A 
ATOM     30  S   UNL     1       0.487  -9.630   0.740  0.00  0.00    -0.073 S 
ATOM     31  C   UNL     1      -1.056  -8.785   0.518  0.00  0.00    +0.116 A 
ATOM     32  N   UNL     1      -1.414  -7.509   0.397  0.00  0.00    -0.226 NA
ATOM     33  C   UNL     1       0.313 -12.734   0.912  0.00  0.00    +0.043 C 
ATOM     34  C   UNL     1      -0.983 -13.502   1.252  0.00  0.00    +0.010 C 
ATOM     35  C   UNL     1      -2.059 -12.594   0.627  0.00  0.00    +0.037 C 
ENDBRANCH  21  22
ENDBRANCH  20  21
ENDBRANCH  19  20
ENDBRANCH   2  19
TORSDOF 6
