REMARK  Name = ZINC14767739
REMARK  11 active torsions:
REMARK  status: ('A' for Active; 'I' for Inactive)
REMARK    1  A    between atoms: C_1  and  C_2
REMARK    2  A    between atoms: C_2  and  C_3
REMARK    3  A    between atoms: C_3  and  C_5
REMARK    4  A    between atoms: C_3  and  O_24
REMARK    5  A    between atoms: N_7  and  C_8
REMARK    6  A    between atoms: C_9  and  C_21
REMARK    7  A    between atoms: C_10  and  C_20
REMARK    8  A    between atoms: C_11  and  C_13
REMARK    9  A    between atoms: C_13  and  C_14
REMARK   10  A    between atoms: O_24  and  C_25
REMARK   11  A    between atoms: C_28  and  C_31
REMARK                            x       y       z     vdW  Elec       q    Type
REMARK                         _______ _______ _______ _____ _____    ______ ____
ROOT
ATOM      1  C   UNL     1       7.281  -2.949  -0.579  0.00  0.00    +0.258 C 
ATOM      2  O   UNL     1       8.162  -2.221  -0.984  0.00  0.00    -0.271 OA
ATOM      3  N   UNL     1       7.408  -4.286  -0.688  0.00  0.00    -0.276 N 
ATOM      4  H   UNL     1       6.703  -4.869  -0.364  0.00  0.00    +0.155 HD
ENDROOT
BRANCH   3   5
ATOM      5  C   UNL     1       8.547  -4.830  -1.263  0.00  0.00    +0.084 A 
ATOM      6  C   UNL     1       8.860  -6.170  -1.457  0.00  0.00    +0.068 A 
ATOM      7  C   UNL     1      10.125  -6.456  -2.091  0.00  0.00    -0.026 A 
ATOM      8  C   UNL     1      10.894  -5.405  -2.429  0.00  0.00    -0.000 A 
ATOM      9  S   UNL     1       9.926  -4.004  -1.907  0.00  0.00    -0.077 S 
ATOM     10  C   UNL     1      10.569  -7.871  -2.357  0.00  0.00    +0.045 C 
BRANCH   6  11
ATOM     11  C   UNL     1       7.949  -7.241  -1.041  0.00  0.00    +0.244 C 
ATOM     12  O   UNL     1       7.107  -7.658  -1.815  0.00  0.00    -0.270 OA
ATOM     13  N   UNL     1       8.044  -7.764   0.197  0.00  0.00    -0.325 N 
ATOM     14  H   UNL     1       8.715  -7.432   0.814  0.00  0.00    +0.145 HD
ATOM     15  H   UNL     1       7.441  -8.473   0.472  0.00  0.00    +0.145 HD
ENDBRANCH   6  11
BRANCH   8  16
ATOM     16  C   UNL     1      12.248  -5.411  -3.089  0.00  0.00    +0.077 C 
BRANCH  16  17
ATOM     17  C   UNL     1      12.078  -5.368  -4.586  0.00  0.00    -0.043 A 
ATOM     18  C   UNL     1      11.984  -6.545  -5.305  0.00  0.00    +0.004 A 
ATOM     19  C   UNL     1      11.822  -6.506  -6.677  0.00  0.00    +0.000 A 
ATOM     20  C   UNL     1      11.765  -5.290  -7.332  0.00  0.00    +0.000 A 
ATOM     21  C   UNL     1      11.864  -4.113  -6.614  0.00  0.00    +0.000 A 
ATOM     22  C   UNL     1      12.020  -4.152  -5.241  0.00  0.00    +0.004 A 
ENDBRANCH  16  17
ENDBRANCH   8  16
ENDBRANCH   3   5
BRANCH   1  23
ATOM     23  C   UNL     1       6.043  -2.358   0.045  0.00  0.00    +0.259 C 
BRANCH  23  25
ATOM     24  C   UNL     1       4.658  -2.266   2.123  0.00  0.00    +0.008 C 
ATOM     25  C   UNL     1       5.975  -2.760   1.520  0.00  0.00    +0.051 C 
ENDBRANCH  23  25
BRANCH  23  26
ATOM     26  O   UNL     1       6.091  -0.934  -0.059  0.00  0.00    -0.480 OA
BRANCH  26  27
ATOM     27  C   UNL     1       4.907  -0.288  -0.230  0.00  0.00    +0.122 A 
ATOM     28  C   UNL     1       3.732  -1.016  -0.352  0.00  0.00    +0.046 A 
ATOM     29  C   UNL     1       2.529  -0.364  -0.525  0.00  0.00    +0.012 A 
ATOM     30  C   UNL     1       2.495   1.028  -0.578  0.00  0.00    -0.018 A 
ATOM     31  C   UNL     1       3.678   1.757  -0.461  0.00  0.00    +0.012 A 
ATOM     32  C   UNL     1       4.876   1.099  -0.283  0.00  0.00    +0.046 A 
BRANCH  30  33
ATOM     33  C   UNL     1       1.203   1.734  -0.764  0.00  0.00    -0.018 A 
ATOM     34  C   UNL     1       1.167   3.126  -0.817  0.00  0.00    +0.008 A 
ATOM     35  C   UNL     1      -0.038   3.777  -0.986  0.00  0.00    +0.001 A 
ATOM     36  C   UNL     1      -1.208   3.049  -1.113  0.00  0.00    +0.000 A 
ATOM     37  C   UNL     1      -1.178   1.667  -1.061  0.00  0.00    +0.001 A 
ATOM     38  C   UNL     1       0.021   1.006  -0.888  0.00  0.00    +0.008 A 
ENDBRANCH  30  33
ENDBRANCH  26  27
ENDBRANCH  23  26
ENDBRANCH   1  23
TORSDOF 9
