REMARK  Name = ZINC36029059
REMARK  13 active torsions:
REMARK  status: ('A' for Active; 'I' for Inactive)
REMARK    1  A    between atoms: C_1  and  C_2
REMARK    2  A    between atoms: C_2  and  C_3
REMARK    3  A    between atoms: C_2  and  C_4
REMARK    4  A    between atoms: C_4  and  C_5
REMARK    5  A    between atoms: N_9  and  C_28
REMARK    6  A    between atoms: N_14  and  C_17
REMARK    7  A    between atoms: C_17  and  N_19
REMARK    8  A    between atoms: N_19  and  C_20
REMARK    9  A    between atoms: C_23  and  O_26
REMARK   10  A    between atoms: O_26  and  C_27
REMARK   11  A    between atoms: C_28  and  C_29
REMARK   12  A    between atoms: C_29  and  C_30
REMARK   13  A    between atoms: C_29  and  C_31
REMARK                            x       y       z     vdW  Elec       q    Type
REMARK                         _______ _______ _______ _____ _____    ______ ____
ROOT
ATOM      1  C   UNL     1      -0.678  -2.896  -1.393  0.00  0.00    +0.019 C 
ATOM      2  C   UNL     1      -2.010  -3.141  -0.718  0.00  0.00    +0.200 C 
ATOM      3  O   UNL     1      -2.316  -2.780   0.399  0.00  0.00    -0.277 OA
ATOM      4  N   UNL     1      -2.800  -3.830  -1.567  0.00  0.00    -0.313 N 
ATOM      5  C   UNL     1      -2.073  -4.084  -2.814  0.00  0.00    +0.006 C 
ATOM      6  N   UNL     1      -0.930  -3.145  -2.833  0.00  0.00    +0.401 N 
ATOM      7  C   UNL     1      -1.557  -5.522  -2.840  0.00  0.00    +0.025 C 
ATOM      8  C   UNL     1      -2.744  -6.489  -2.780  0.00  0.00    +0.107 C 
ATOM      9  N   UNL     1      -3.681  -6.154  -3.861  0.00  0.00    -0.312 N 
ATOM     10  C   UNL     1      -4.177  -4.775  -3.967  0.00  0.00    +0.107 C 
ATOM     11  C   UNL     1      -2.978  -3.823  -4.017  0.00  0.00    +0.025 C 
ATOM     12  H   UNL     1      -1.180  -2.289  -3.304  0.00  0.00    -0.082 HD
ATOM     13  H   UNL     1      -0.124  -3.570  -3.267  0.00  0.00    -0.082 HD
ENDROOT
BRANCH   9  14
ATOM     14  C   UNL     1      -4.079  -7.095  -4.741  0.00  0.00    +0.137 C 
ATOM     15  S   UNL     1      -3.589  -8.722  -4.533  0.00  0.00    -0.018 S 
BRANCH  14  16
ATOM     16  N   UNL     1      -4.862  -6.755  -5.784  0.00  0.00    -0.297 N 
ATOM     17  H   UNL     1      -4.494  -6.737  -6.681  0.00  0.00    +0.154 HD
BRANCH  16  18
ATOM     18  C   UNL     1      -6.207  -6.428  -5.572  0.00  0.00    +0.033 A 
ATOM     19  C   UNL     1      -6.765  -6.566  -4.308  0.00  0.00    +0.027 A 
ATOM     20  C   UNL     1      -8.091  -6.243  -4.099  0.00  0.00    +0.047 A 
ATOM     21  C   UNL     1      -8.867  -5.781  -5.153  0.00  0.00    +0.120 A 
ATOM     22  C   UNL     1      -8.310  -5.643  -6.416  0.00  0.00    +0.047 A 
ATOM     23  C   UNL     1      -6.982  -5.960  -6.624  0.00  0.00    +0.027 A 
BRANCH  21  24
ATOM     24  O   UNL     1     -10.173  -5.463  -4.947  0.00  0.00    -0.495 OA
ATOM     25  C   UNL     1     -10.912  -4.994  -6.077  0.00  0.00    +0.277 C 
ENDBRANCH  21  24
ENDBRANCH  16  18
ENDBRANCH  14  16
ENDBRANCH   9  14
BRANCH   1  26
ATOM     26  C   UNL     1      -0.229  -1.450  -1.173  0.00  0.00    -0.004 C 
BRANCH  26  28
ATOM     27  C   UNL     1       1.536   0.236  -1.709  0.00  0.00    +0.007 C 
ATOM     28  C   UNL     1       1.142  -1.238  -1.819  0.00  0.00    -0.018 C 
ATOM     29  C   UNL     1       2.183  -2.099  -1.102  0.00  0.00    +0.007 C 
ENDBRANCH  26  28
ENDBRANCH   1  26
BRANCH   4  30
ATOM     30  C   UNL     1      -4.173  -4.258  -1.287  0.00  0.00    +0.109 C 
BRANCH  30  31
ATOM     31  C   UNL     1      -5.107  -3.048  -1.349  0.00  0.00    +0.000 C 
ATOM     32  C   UNL     1      -4.928  -2.332  -2.689  0.00  0.00    +0.009 C 
ATOM     33  C   UNL     1      -6.558  -3.515  -1.210  0.00  0.00    +0.009 C 
ENDBRANCH  30  31
ENDBRANCH   4  30
TORSDOF 8
