REMARK  Name = ZINC50828957
REMARK  3 active torsions:
REMARK  status: ('A' for Active; 'I' for Inactive)
REMARK    1  A    between atoms: C_8  and  C_12
REMARK    2  A    between atoms: C_9  and  N_11
REMARK    3  A    between atoms: C_12  and  N_13
REMARK                            x       y       z     vdW  Elec       q    Type
REMARK                         _______ _______ _______ _____ _____    ______ ____
ROOT
ATOM      1  C   UNL     1      -0.992   0.657  -0.106  0.00  0.00    +0.001 A 
ATOM      2  C   UNL     1       0.027   1.605  -0.148  0.00  0.00    +0.002 A 
ATOM      3  C   UNL     1       1.336   1.231  -0.123  0.00  0.00    +0.028 A 
ATOM      4  C   UNL     1       1.670  -0.133  -0.054  0.00  0.00    +0.073 A 
ATOM      5  C   UNL     1       0.632  -1.095  -0.011  0.00  0.00    +0.001 A 
ATOM      6  C   UNL     1      -0.706  -0.673  -0.038  0.00  0.00    +0.010 A 
ATOM      7  C   UNL     1       0.967  -2.463   0.059  0.00  0.00    +0.018 A 
ATOM      8  C   UNL     1       2.285  -2.804   0.082  0.00  0.00    +0.012 A 
ATOM      9  C   UNL     1       3.267  -1.804   0.037  0.00  0.00    +0.122 A 
ATOM     10  N   UNL     1       2.948  -0.528  -0.028  0.00  0.00    -0.232 NA
ENDROOT
BRANCH   9  11
ATOM     11  N   UNL     1       4.605  -2.167   0.061  0.00  0.00    -0.343 N 
ATOM     12  H   UNL     1       4.857  -3.099  -0.037  0.00  0.00    +0.144 HD
ATOM     13  H   UNL     1       5.290  -1.490   0.175  0.00  0.00    +0.144 HD
ENDBRANCH   9  11
BRANCH   8  14
ATOM     14  C   UNL     1       2.688  -4.255   0.157  0.00  0.00    +0.163 C 
BRANCH  14  15
ATOM     15  N   UNL     1       3.044  -4.592   1.537  0.00  0.00    -0.310 N 
ATOM     16  C   UNL     1       4.346  -4.557   1.922  0.00  0.00    +0.104 A 
ATOM     17  C   UNL     1       4.699  -4.864   3.193  0.00  0.00    +0.034 A 
ATOM     18  C   UNL     1       3.715  -5.223   4.126  0.00  0.00    +0.022 A 
ATOM     19  C   UNL     1       2.409  -5.258   3.736  0.00  0.00    +0.071 A 
ATOM     20  C   UNL     1       2.076  -4.928   2.411  0.00  0.00    +0.252 A 
ATOM     21  O   UNL     1       0.910  -4.951   2.051  0.00  0.00    -0.268 OA
ATOM     22 BR   UNL     1       6.518  -4.809   3.709  0.00  0.00    -0.049 Br
ENDBRANCH  14  15
ENDBRANCH   8  14
TORSDOF 3
