REMARK  Name = ZINC12372930
REMARK  5 active torsions:
REMARK  status: ('A' for Active; 'I' for Inactive)
REMARK    1  A    between atoms: C_6  and  C_7
REMARK    2  A    between atoms: C_7  and  N_59
REMARK    3  A    between atoms: C_13  and  C_15
REMARK    4  A    between atoms: C_15  and  C_16
REMARK    5  A    between atoms: N_18  and  C_19
REMARK                            x       y       z     vdW  Elec       q    Type
REMARK                         _______ _______ _______ _____ _____    ______ ____
ROOT
ATOM      1  C   UNL     1      -3.571   6.792  -1.023  0.00  0.00    -0.058 C 
ATOM      2  C   UNL     1      -2.239   6.339  -0.422  0.00  0.00    +0.085 C 
ATOM      3  N   UNL     1      -2.014   4.926  -0.714  0.00  0.00    -0.318 N 
ATOM      4  C   UNL     1      -2.993   4.095  -1.086  0.00  0.00    +0.200 C 
ATOM      5  O   UNL     1      -2.723   2.929  -1.279  0.00  0.00    -0.278 OA
ATOM      6  C   UNL     1      -4.414   4.546  -1.274  0.00  0.00    +0.028 C 
ATOM      7  H   UNL     1      -1.113   4.574  -0.634  0.00  0.00    +0.149 HD
ATOM      8  N   UNL     1      -4.614   5.839  -0.592  0.00  0.00    +0.391 N 
ATOM      9  H   UNL     1      -4.542   5.698   0.422  0.00  0.00    -0.080 HD
ENDROOT
BRANCH   8  10
ATOM     10  C   UNL     1      -5.957   6.376  -0.910  0.00  0.00    -0.042 C 
BRANCH  10  16
ATOM     11  C   UNL     1      -6.915   7.178   1.258  0.00  0.00    +0.004 A 
ATOM     12  C   UNL     1      -7.221   8.187   2.151  0.00  0.00    +0.038 A 
ATOM     13  C   UNL     1      -6.886   9.498   1.855  0.00  0.00    +0.123 A 
ATOM     14  C   UNL     1      -6.250   9.796   0.662  0.00  0.00    +0.038 A 
ATOM     15  C   UNL     1      -5.950   8.785  -0.232  0.00  0.00    +0.004 A 
ATOM     16  C   UNL     1      -6.285   7.477   0.065  0.00  0.00    -0.064 A 
ATOM     17  F   UNL     1      -7.180  10.484   2.730  0.00  0.00    -0.205 F 
ENDBRANCH  10  16
ENDBRANCH   8  10
BRANCH   6  18
ATOM     18  C   UNL     1      -5.360   3.510  -0.664  0.00  0.00    +0.089 C 
BRANCH  18  19
ATOM     19  C   UNL     1      -5.112   3.415   0.820  0.00  0.00    +0.212 C 
ATOM     20  O   UNL     1      -4.329   4.172   1.353  0.00  0.00    -0.276 OA
ATOM     21  N   UNL     1      -5.759   2.488   1.553  0.00  0.00    -0.310 N 
ATOM     22  H   UNL     1      -6.385   1.882   1.126  0.00  0.00    +0.149 HD
BRANCH  21  23
ATOM     23  C   UNL     1      -5.518   2.395   2.995  0.00  0.00    +0.035 C 
ATOM     24  C   UNL     1      -4.038   2.098   3.246  0.00  0.00    +0.029 C 
ATOM     25  C   UNL     1      -3.786   2.001   4.752  0.00  0.00    -0.008 C 
ATOM     26  C   UNL     1      -4.639   0.875   5.341  0.00  0.00    +0.007 C 
ATOM     27  C   UNL     1      -6.119   1.173   5.090  0.00  0.00    -0.008 C 
ATOM     28  C   UNL     1      -6.371   1.270   3.584  0.00  0.00    +0.029 C 
ATOM     29  C   UNL     1      -6.493   2.499   5.756  0.00  0.00    +0.007 C 
ATOM     30  C   UNL     1      -5.639   3.624   5.167  0.00  0.00    -0.008 C 
ATOM     31  C   UNL     1      -4.160   3.326   5.418  0.00  0.00    +0.007 C 
ATOM     32  C   UNL     1      -5.892   3.721   3.661  0.00  0.00    +0.029 C 
ENDBRANCH  21  23
ENDBRANCH  18  19
ENDBRANCH   6  18
TORSDOF 5
