REMARK  Name = ZINC20977526
REMARK  5 active torsions:
REMARK  status: ('A' for Active; 'I' for Inactive)
REMARK    1  A    between atoms: C_3  and  S_15
REMARK    2  A    between atoms: C_5  and  C_6
REMARK    3  A    between atoms: C_8  and  C_11
REMARK    4  A    between atoms: S_15  and  N_18
REMARK    5  A    between atoms: N_18  and  C_19
REMARK                            x       y       z     vdW  Elec       q    Type
REMARK                         _______ _______ _______ _____ _____    ______ ____
ROOT
ATOM      1  C   UNL     1      -2.080   3.118  -3.758  0.00  0.00    +0.020 A 
ATOM      2  C   UNL     1      -2.096   2.253  -2.687  0.00  0.00    +0.037 A 
ATOM      3  C   UNL     1      -1.571   2.658  -1.502  0.00  0.00    +0.143 A 
ATOM      4  S   UNL     1      -1.034   4.318  -1.878  0.00  0.00    -0.067 S 
ATOM      5  C   UNL     1      -1.533   4.362  -3.592  0.00  0.00    +0.043 A 
ENDROOT
BRANCH   5   6
ATOM      6  C   UNL     1      -1.397   5.458  -4.573  0.00  0.00    +0.120 A 
ATOM      7  C   UNL     1      -0.818   6.741  -4.351  0.00  0.00    +0.085 A 
ATOM      8  C   UNL     1      -0.936   7.363  -5.544  0.00  0.00    +0.240 A 
ATOM      9  O   UNL     1      -1.535   6.497  -6.374  0.00  0.00    -0.350 OA
ATOM     10  N   UNL     1      -1.780   5.446  -5.829  0.00  0.00    -0.077 NA
BRANCH   8  11
ATOM     11  C   UNL     1      -0.482   8.761  -5.879  0.00  0.00    +0.453 C 
ATOM     12  F   UNL     1       0.838   8.724  -6.343  0.00  0.00    -0.163 F 
ATOM     13  F   UNL     1      -1.310   9.296  -6.871  0.00  0.00    -0.163 F 
ATOM     14  F   UNL     1      -0.551   9.560  -4.733  0.00  0.00    -0.163 F 
ENDBRANCH   8  11
ENDBRANCH   5   6
BRANCH   3  15
ATOM     15  S   UNL     1      -1.456   1.774   0.019  0.00  0.00    +0.065 S 
ATOM     16  O   UNL     1      -2.475   0.784  -0.009  0.00  0.00    -0.153 OA
ATOM     17  O   UNL     1      -1.369   2.749   1.049  0.00  0.00    -0.153 OA
BRANCH  15  18
ATOM     18  N   UNL     1      -0.011   0.966   0.007  0.00  0.00    -0.186 NA
ATOM     19  H   UNL     1      -0.005  -0.121  -0.159  0.00  0.00    +0.148 HD
BRANCH  18  20
ATOM     20  C   UNL     1       1.248   1.716  -0.001  0.00  0.00    +0.077 C 
ATOM     21  C   UNL     1       1.736   1.876  -1.442  0.00  0.00    +0.020 C 
ATOM     22  C   UNL     1       3.051   2.659  -1.450  0.00  0.00    +0.002 C 
ATOM     23  C   UNL     1       4.101   1.901  -0.637  0.00  0.00    +0.000 C 
ATOM     24  C   UNL     1       3.613   1.740   0.804  0.00  0.00    +0.002 C 
ATOM     25  C   UNL     1       2.298   0.957   0.813  0.00  0.00    +0.020 C 
ENDBRANCH  18  20
ENDBRANCH  15  18
ENDBRANCH   3  15
TORSDOF 5
