REMARK  Name = ZINC16856429
REMARK  8 active torsions:
REMARK  status: ('A' for Active; 'I' for Inactive)
REMARK    1  A    between atoms: C_1  and  C_2
REMARK    2  A    between atoms: C_5  and  C_9
REMARK    3  A    between atoms: C_6  and  C_8
REMARK    4  A    between atoms: C_9  and  C_10
REMARK    5  A    between atoms: C_11  and  C_17
REMARK    6  A    between atoms: C_15  and  O_16
REMARK    7  A    between atoms: C_18  and  C_19
REMARK    8  A    between atoms: C_24  and  O_25
REMARK                            x       y       z     vdW  Elec       q    Type
REMARK                         _______ _______ _______ _____ _____    ______ ____
ROOT
ATOM      1  C   UNL     1      -0.732   4.010  -0.957  0.00  0.00    +0.044 A 
ATOM      2  C   UNL     1      -2.102   4.014  -1.236  0.00  0.00    +0.074 A 
ATOM      3  N   UNL     1      -2.776   2.861  -1.179  0.00  0.00    -0.235 NA
ATOM      4  C   UNL     1      -2.167   1.740  -0.856  0.00  0.00    +0.225 A 
ATOM      5  N   UNL     1      -0.877   1.699  -0.587  0.00  0.00    -0.201 NA
ATOM      6  C   UNL     1      -0.133   2.800  -0.626  0.00  0.00    +0.219 A 
ENDROOT
BRANCH   6   7
ATOM      7  O   UNL     1       1.192   2.744  -0.346  0.00  0.00    -0.492 OA
ATOM      8  H   UNL     1       1.751   2.579  -1.119  0.00  0.00    +0.294 HD
ENDBRANCH   6   7
BRANCH   2   9
ATOM      9  C   UNL     1      -2.790   5.265  -1.593  0.00  0.00    +0.029 C 
ATOM     10  C   UNL     1      -4.116   5.265  -1.812  0.00  0.00    +0.013 C 
BRANCH  10  11
ATOM     11  C   UNL     1      -4.789   6.496  -2.260  0.00  0.00    +0.016 A 
ATOM     12  C   UNL     1      -4.139   7.729  -2.157  0.00  0.00    +0.011 A 
ATOM     13  C   UNL     1      -4.775   8.877  -2.579  0.00  0.00    +0.001 A 
ATOM     14  C   UNL     1      -6.055   8.815  -3.104  0.00  0.00    +0.004 A 
ATOM     15  C   UNL     1      -6.708   7.602  -3.210  0.00  0.00    +0.046 A 
ATOM     16  C   UNL     1      -6.083   6.437  -2.797  0.00  0.00    +0.124 A 
BRANCH  16  17
ATOM     17  O   UNL     1      -6.722   5.244  -2.907  0.00  0.00    -0.506 OA
ATOM     18  H   UNL     1      -7.247   5.006  -2.131  0.00  0.00    +0.292 HD
ENDBRANCH  16  17
ENDBRANCH  10  11
ENDBRANCH   2   9
BRANCH   1  19
ATOM     19  C   UNL     1       0.073   5.282  -1.014  0.00  0.00    +0.078 C 
BRANCH  19  24
ATOM     20  C   UNL     1       0.322   7.637   4.258  0.00  0.00    +0.044 C 
ATOM     21  C   UNL     1       0.257   7.024   2.883  0.00  0.00    -0.050 A 
ATOM     22  C   UNL     1      -0.945   6.980   2.201  0.00  0.00    +0.003 A 
ATOM     23  C   UNL     1      -1.004   6.416   0.941  0.00  0.00    +0.004 A 
ATOM     24  C   UNL     1       0.138   5.897   0.361  0.00  0.00    -0.040 A 
ATOM     25  C   UNL     1       1.339   5.936   1.044  0.00  0.00    -0.047 A 
ATOM     26  C   UNL     1       1.400   6.504   2.303  0.00  0.00    +0.007 A 
ATOM     27  C   UNL     1       2.583   5.364   0.415  0.00  0.00    +0.044 C 
ENDBRANCH  19  24
ENDBRANCH   1  19
TORSDOF 6
