REMARK  Name = ZINC40758810
REMARK  6 active torsions:
REMARK  status: ('A' for Active; 'I' for Inactive)
REMARK    1  A    between atoms: C_1  and  C_2
REMARK    2  A    between atoms: C_11  and  N_12
REMARK    3  A    between atoms: C_14  and  N_31
REMARK    4  A    between atoms: C_15  and  N_19
REMARK    5  A    between atoms: N_19  and  C_20
REMARK    6  A    between atoms: C_27  and  C_30
REMARK                            x       y       z     vdW  Elec       q    Type
REMARK                         _______ _______ _______ _____ _____    ______ ____
ROOT
ATOM      1  N   UNL     1       0.093  -4.883  -1.140  0.00  0.00    -0.297 N 
ATOM      2  C   UNL     1       0.209  -6.268  -1.085  0.00  0.00    +0.149 A 
ATOM      3  C   UNL     1       0.319  -7.017  -2.258  0.00  0.00    +0.106 A 
ATOM      4  C   UNL     1       0.435  -8.404  -2.146  0.00  0.00    +0.149 A 
ATOM      5  N   UNL     1       0.435  -8.955  -0.934  0.00  0.00    -0.219 NA
ATOM      6  C   UNL     1       0.330  -8.211   0.148  0.00  0.00    +0.225 A 
ATOM      7  N   UNL     1       0.224  -6.899   0.086  0.00  0.00    -0.219 NA
ATOM      8  H   UNL     1      -0.002  -4.438  -1.997  0.00  0.00    +0.154 HD
ENDROOT
BRANCH   1  19
ATOM      9  C   UNL     1      -2.286   0.958   0.396  0.00  0.00    +0.063 C 
ATOM     10  C   UNL     1      -1.650  -0.404   0.286  0.00  0.00    +0.013 A 
ATOM     11  C   UNL     1      -1.714  -1.086  -0.926  0.00  0.00    +0.021 A 
ATOM     12  C   UNL     1      -1.142  -2.322  -1.044  0.00  0.00    +0.013 A 
ATOM     13  C   UNL     1      -0.501  -2.866   0.081  0.00  0.00    +0.020 A 
ATOM     14  C   UNL     1      -0.472  -2.120   1.285  0.00  0.00    +0.048 A 
ATOM     15  N   UNL     1      -1.047  -0.913   1.333  0.00  0.00    -0.358 N 
ATOM     16  C   UNL     1       0.168  -2.661   2.413  0.00  0.00    +0.026 A 
ATOM     17  C   UNL     1       0.752  -3.889   2.342  0.00  0.00    +0.004 A 
ATOM     18  C   UNL     1       0.730  -4.630   1.165  0.00  0.00    +0.024 A 
ATOM     19  C   UNL     1       0.112  -4.136   0.035  0.00  0.00    +0.042 A 
ATOM     20  H   UNL     1      -1.020  -0.406   2.159  0.00  0.00    +0.166 HD
ENDBRANCH   1  19
BRANCH   3  21
ATOM     21  N   UNL     1       0.314  -6.393  -3.516  0.00  0.00    -0.353 N 
ATOM     22  H   UNL     1       0.232  -5.429  -3.578  0.00  0.00    +0.143 HD
ATOM     23  H   UNL     1       0.391  -6.927  -4.322  0.00  0.00    +0.143 HD
ENDBRANCH   3  21
BRANCH   4  24
ATOM     24  N   UNL     1       0.546  -9.197  -3.282  0.00  0.00    -0.296 N 
ATOM     25  H   UNL     1       0.612  -8.784  -4.158  0.00  0.00    +0.154 HD
BRANCH  24  26
ATOM     26  C   UNL     1       0.564 -10.587  -3.164  0.00  0.00    +0.059 A 
ATOM     27  C   UNL     1       1.165 -11.184  -2.076  0.00  0.00    +0.025 A 
ATOM     28  C   UNL     1       1.189 -12.569  -1.945  0.00  0.00    +0.003 A 
ATOM     29  C   UNL     1       0.621 -13.371  -2.888  0.00  0.00    +0.010 A 
ATOM     30  C   UNL     1      -0.001 -12.802  -4.011  0.00  0.00    +0.002 A 
ATOM     31  C   UNL     1      -0.038 -11.394  -4.154  0.00  0.00    +0.092 A 
ATOM     32  N   UNL     1      -0.633 -10.848  -5.219  0.00  0.00    -0.250 NA
ATOM     33  C   UNL     1      -1.193 -11.592  -6.142  0.00  0.00    +0.039 A 
ATOM     34  C   UNL     1      -1.198 -12.983  -6.059  0.00  0.00    +0.023 A 
ATOM     35  C   UNL     1      -0.596 -13.605  -5.003  0.00  0.00    +0.012 A 
ATOM     36  C   UNL     1      -1.850 -10.925  -7.322  0.00  0.00    +0.065 C 
ENDBRANCH  24  26
ENDBRANCH   4  24
TORSDOF 4
