REMARK  Name = ZINC02622236
REMARK  10 active torsions:
REMARK  status: ('A' for Active; 'I' for Inactive)
REMARK    1  A    between atoms: C_1  and  C_2
REMARK    2  A    between atoms: C_2  and  C_3
REMARK    3  A    between atoms: C_3  and  N_4
REMARK    4  A    between atoms: N_9  and  C_10
REMARK    5  A    between atoms: C_10  and  C_11
REMARK    6  A    between atoms: C_13  and  O_28
REMARK    7  A    between atoms: C_14  and  O_18
REMARK    8  A    between atoms: O_18  and  C_19
REMARK    9  A    between atoms: C_19  and  C_20
REMARK   10  A    between atoms: O_28  and  C_29
REMARK                            x       y       z     vdW  Elec       q    Type
REMARK                         _______ _______ _______ _____ _____    ______ ____
ROOT
ATOM      1  C   UNL     1       1.534   0.026   3.639  0.00  0.00    -0.026 A 
ATOM      2  C   UNL     1       0.990   0.393   2.422  0.00  0.00    +0.054 A 
ATOM      3  C   UNL     1      -0.148   1.182   2.380  0.00  0.00    +0.163 A 
ATOM      4  C   UNL     1      -0.748   1.595   3.566  0.00  0.00    +0.176 A 
ATOM      5  C   UNL     1      -0.201   1.220   4.783  0.00  0.00    +0.063 A 
ATOM      6  C   UNL     1       0.939   0.437   4.817  0.00  0.00    +0.024 A 
ATOM      7 BR   UNL     1      -1.012   1.780   6.397  0.00  0.00    -0.046 Br
ENDROOT
BRANCH   3   8
ATOM      8  O   UNL     1      -0.682   1.547   1.184  0.00  0.00    -0.491 OA
ATOM      9  C   UNL     1      -0.013   1.086   0.008  0.00  0.00    +0.277 C 
ENDBRANCH   3   8
BRANCH   1  10
ATOM     10  C   UNL     1       2.775  -0.827   3.682  0.00  0.00    +0.140 C 
BRANCH  10  16
ATOM     11  N   UNL     1       4.454  -5.118   3.792  0.00  0.00    -0.162 N 
ATOM     12  N   UNL     1       3.178  -4.531   3.753  0.00  0.00    -0.115 NA
ATOM     13  C   UNL     1       3.380  -3.230   3.736  0.00  0.00    +0.256 A 
ATOM     14  N   UNL     1       4.698  -3.028   3.756  0.00  0.00    -0.092 NA
ATOM     15  N   UNL     1       5.313  -4.157   3.795  0.00  0.00    -0.044 NA
ATOM     16  N   UNL     1       2.394  -2.242   3.697  0.00  0.00    -0.307 N 
ATOM     17  H   UNL     1       1.457  -2.492   3.680  0.00  0.00    +0.149 HD
BRANCH  11  18
ATOM     18  C   UNL     1       4.752  -6.553   3.822  0.00  0.00    +0.168 C 
BRANCH  18  20
ATOM     19  C   UNL     1       5.199  -8.573   2.422  0.00  0.00    +0.006 C 
ATOM     20  C   UNL     1       4.888  -7.075   2.391  0.00  0.00    +0.022 C 
ENDBRANCH  18  20
ENDBRANCH  11  18
ENDBRANCH  10  16
ENDBRANCH   1  10
BRANCH   4  21
ATOM     21  O   UNL     1      -1.869   2.366   3.531  0.00  0.00    -0.483 OA
BRANCH  21  22
ATOM     22  C   UNL     1      -3.124   1.684   3.514  0.00  0.00    +0.266 C 
BRANCH  22  23
ATOM     23  C   UNL     1      -4.243   2.693   3.475  0.00  0.00    +0.008 A 
ATOM     24  C   UNL     1      -3.954   4.045   3.461  0.00  0.00    +0.010 A 
ATOM     25  C   UNL     1      -4.979   4.971   3.424  0.00  0.00    +0.020 A 
ATOM     26  C   UNL     1      -6.296   4.546   3.403  0.00  0.00    +0.042 A 
ATOM     27  C   UNL     1      -6.586   3.193   3.417  0.00  0.00    +0.040 A 
ATOM     28  C   UNL     1      -5.559   2.267   3.448  0.00  0.00    +0.049 A 
ATOM     29 CL   UNL     1      -5.921   0.569   3.460  0.00  0.00    -0.083 Cl
ATOM     30 CL   UNL     1      -7.584   5.709   3.357  0.00  0.00    -0.083 Cl
ENDBRANCH  22  23
ENDBRANCH  21  22
ENDBRANCH   4  21
TORSDOF 8
