REMARK  Name = ZINC39654033
REMARK  8 active torsions:
REMARK  status: ('A' for Active; 'I' for Inactive)
REMARK    1  A    between atoms: C_1  and  C_2
REMARK    2  A    between atoms: C_2  and  O_3
REMARK    3  A    between atoms: O_3  and  C_4
REMARK    4  A    between atoms: C_7  and  C_10
REMARK    5  A    between atoms: C_10  and  C_11
REMARK    6  A    between atoms: C_11  and  N_12
REMARK    7  A    between atoms: C_13  and  C_15
REMARK    8  A    between atoms: C_26  and  C_28
REMARK                            x       y       z     vdW  Elec       q    Type
REMARK                         _______ _______ _______ _____ _____    ______ ____
ROOT
ATOM      1  C   UNL     1      -0.719 -10.862  -2.958  0.00  0.00    +0.100 C 
ATOM      2  C   UNL     1       0.220 -10.795  -4.184  0.00  0.00    +0.121 C 
ATOM      3  N   UNL     1      -0.218 -11.913  -5.052  0.00  0.00    -0.300 N 
ATOM      4  C   UNL     1      -1.697 -11.905  -4.946  0.00  0.00    +0.115 C 
ATOM      5  C   UNL     1      -1.976 -11.590  -3.463  0.00  0.00    -0.004 C 
ATOM      6  C   UNL     1      -3.197 -10.685  -3.337  0.00  0.00    -0.010 C 
ATOM      7  C   UNL     1      -4.444 -11.450  -3.790  0.00  0.00    -0.082 C 
ATOM      8  N   UNL     1      -4.612 -12.650  -2.961  0.00  0.00    +0.379 N 
ATOM      9  C   UNL     1      -3.476 -13.559  -3.159  0.00  0.00    -0.082 C 
ATOM     10  C   UNL     1      -2.189 -12.882  -2.680  0.00  0.00    -0.010 C 
ATOM     11  C   UNL     1       0.553 -12.749  -5.775  0.00  0.00    +0.219 C 
ATOM     12  O   UNL     1       1.761 -12.679  -5.697  0.00  0.00    -0.275 OA
ATOM     13  H   UNL     1      -4.660 -12.382  -1.989  0.00  0.00    -0.086 HD
ATOM     14  H   UNL     1      -5.466 -13.120  -3.220  0.00  0.00    -0.086 HD
ENDROOT
BRANCH  11  15
ATOM     15  C   UNL     1      -0.086 -13.770  -6.681  0.00  0.00    +0.079 C 
ATOM     16  C   UNL     1       0.871 -14.952  -6.882  0.00  0.00    +0.017 C 
ATOM     17  C   UNL     1       0.133 -16.047  -7.654  0.00  0.00    +0.027 C 
ATOM     18  C   UNL     1      -0.533 -15.465  -8.866  0.00  0.00    -0.031 C 
ATOM     19  C   UNL     1      -0.755 -14.201  -9.035  0.00  0.00    -0.030 C 
ATOM     20  C   UNL     1      -0.374 -13.138  -8.045  0.00  0.00    +0.039 C 
ENDBRANCH  11  15
BRANCH   1  22
ATOM     21  N   UNL     1      -1.373  -9.256  -1.194  0.00  0.00    -0.315 N 
ATOM     22  C   UNL     1      -1.069  -9.473  -2.489  0.00  0.00    +0.218 C 
ATOM     23  O   UNL     1      -1.078  -8.552  -3.277  0.00  0.00    -0.275 OA
ATOM     24  H   UNL     1      -1.366  -9.993  -0.564  0.00  0.00    +0.149 HD
BRANCH  21  25
ATOM     25  C   UNL     1      -1.714  -7.906  -0.738  0.00  0.00    +0.109 C 
BRANCH  25  26
ATOM     26  C   UNL     1      -2.014  -7.935   0.762  0.00  0.00    +0.054 C 
BRANCH  26  30
ATOM     27  C   UNL     1      -3.008  -3.997   2.092  0.00  0.00    +0.121 A 
ATOM     28  C   UNL     1      -4.004  -4.850   1.640  0.00  0.00    +0.046 A 
ATOM     29  C   UNL     1      -3.680  -6.122   1.210  0.00  0.00    +0.007 A 
ATOM     30  C   UNL     1      -2.364  -6.546   1.231  0.00  0.00    -0.046 A 
ATOM     31  C   UNL     1      -1.369  -5.698   1.681  0.00  0.00    +0.007 A 
ATOM     32  C   UNL     1      -1.688  -4.423   2.106  0.00  0.00    +0.046 A 
BRANCH  27  33
ATOM     33  O   UNL     1      -3.324  -2.745   2.515  0.00  0.00    -0.492 OA
BRANCH  33  35
ATOM     34  C   UNL     1      -4.863  -0.941   2.982  0.00  0.00    +0.048 C 
ATOM     35  C   UNL     1      -4.703  -2.375   2.472  0.00  0.00    +0.225 C 
ENDBRANCH  33  35
ENDBRANCH  27  33
ENDBRANCH  26  30
ENDBRANCH  25  26
ENDBRANCH  21  25
ENDBRANCH   1  22
TORSDOF 7
