REMARK  Name = ZINC36897617
REMARK  2 active torsions:
REMARK  status: ('A' for Active; 'I' for Inactive)
REMARK    1  A    between atoms: C_1  and  C_2
REMARK    2  A    between atoms: N_10  and  C_11
REMARK                            x       y       z     vdW  Elec       q    Type
REMARK                         _______ _______ _______ _____ _____    ______ ____
ROOT
ATOM      1  C   UNL     1      -0.847   1.433   0.081  0.00  0.00    +0.044 C 
ATOM      2  C   UNL     1      -0.618  -0.056   0.055  0.00  0.00    -0.048 A 
ATOM      3  C   UNL     1      -0.709  -0.747  -1.141  0.00  0.00    +0.005 A 
ATOM      4  C   UNL     1      -0.501  -2.112  -1.176  0.00  0.00    +0.028 A 
ATOM      5  C   UNL     1      -0.199  -2.793  -0.006  0.00  0.00    +0.072 A 
ATOM      6  C   UNL     1      -0.106  -2.097   1.200  0.00  0.00    +0.066 A 
ATOM      7  C   UNL     1      -0.312  -0.726   1.224  0.00  0.00    +0.031 A 
ATOM      8  N   UNL     1       0.206  -3.033   2.183  0.00  0.00    -0.333 N 
ATOM      9  C   UNL     1       0.299  -4.244   1.601  0.00  0.00    +0.163 A 
ATOM     10  N   UNL     1       0.060  -4.132   0.281  0.00  0.00    -0.288 N 
ATOM     11  S   UNL     1       0.665  -5.704   2.417  0.00  0.00    -0.013 S 
ATOM     12  H   UNL     1       0.334  -2.845   3.126  0.00  0.00    +0.168 HD
ENDROOT
BRANCH  10  13
ATOM     13  C   UNL     1       0.070  -5.183  -0.647  0.00  0.00    +0.053 A 
ATOM     14  C   UNL     1       1.054  -5.237  -1.625  0.00  0.00    +0.030 A 
ATOM     15  C   UNL     1       1.065  -6.272  -2.540  0.00  0.00    +0.051 A 
ATOM     16  C   UNL     1       0.094  -7.259  -2.484  0.00  0.00    +0.166 A 
ATOM     17  C   UNL     1      -0.894  -7.208  -1.504  0.00  0.00    +0.168 A 
ATOM     18  C   UNL     1      -0.901  -6.174  -0.584  0.00  0.00    +0.075 A 
ATOM     19  O   UNL     1      -1.721  -8.283  -1.661  0.00  0.00    -0.453 OA
ATOM     20  C   UNL     1      -1.472  -8.768  -2.994  0.00  0.00    +0.466 C 
ATOM     21  O   UNL     1      -0.114  -8.367  -3.256  0.00  0.00    -0.453 OA
ENDBRANCH  10  13
TORSDOF 1
