REMARK  Name = ZINC12659841
REMARK  10 active torsions:
REMARK  status: ('A' for Active; 'I' for Inactive)
REMARK    1  A    between atoms: C_1  and  C_2
REMARK    2  A    between atoms: C_8  and  C_33
REMARK    3  A    between atoms: C_9  and  O_32
REMARK    4  A    between atoms: C_19  and  C_21
REMARK    5  A    between atoms: C_21  and  N_61
REMARK    6  A    between atoms: C_22  and  C_23
REMARK    7  A    between atoms: C_22  and  N_61
REMARK    8  A    between atoms: C_23  and  C_24
REMARK    9  A    between atoms: C_29  and  O_30
REMARK   10  A    between atoms: O_30  and  C_31
REMARK                            x       y       z     vdW  Elec       q    Type
REMARK                         _______ _______ _______ _____ _____    ______ ____
ROOT
ATOM      1  C   UNL     1      -0.320   3.434  -2.154  0.00  0.00    +0.008 C 
ATOM      2  C   UNL     1       1.134   3.646  -1.728  0.00  0.00    -0.001 C 
ATOM      3  C   UNL     1       1.503   5.106  -1.978  0.00  0.00    +0.008 C 
ATOM      4  C   UNL     1       2.983   5.312  -1.653  0.00  0.00    +0.027 C 
ATOM      5  C   UNL     1       3.269   4.781  -0.279  0.00  0.00    -0.027 C 
ATOM      6  C   UNL     1       2.530   3.900   0.325  0.00  0.00    -0.061 C 
ATOM      7  C   UNL     1       1.281   3.290  -0.246  0.00  0.00    +0.018 C 
ATOM      8  C   UNL     1       1.313   1.776  -0.093  0.00  0.00    +0.132 C 
ATOM      9  C   UNL     1       2.016   1.187   1.076  0.00  0.00    +0.071 C 
ATOM     10  C   UNL     1       3.274   1.932   1.566  0.00  0.00    +0.187 C 
ATOM     11  C   UNL     1       2.969   3.427   1.700  0.00  0.00    +0.076 C 
ATOM     12  O   UNL     1       3.468   1.382   2.917  0.00  0.00    -0.460 OA
ATOM     13  C   UNL     1       2.236   1.284   3.465  0.00  0.00    +0.309 C 
ATOM     14  O   UNL     1       1.939   1.508   4.610  0.00  0.00    -0.251 OA
ATOM     15  C   UNL     1       1.280   0.838   2.361  0.00  0.00    +0.090 C 
ATOM     16  C   UNL     1       0.065   3.878   0.475  0.00  0.00    +0.018 C 
ENDROOT
BRANCH   8  17
ATOM     17  O   UNL     1      -0.005   1.235  -0.217  0.00  0.00    -0.391 OA
ATOM     18  H   UNL     1      -0.026   0.277  -0.339  0.00  0.00    +0.210 HD
ENDBRANCH   8  17
BRANCH  15  19
ATOM     19  C   UNL     1      -0.077   1.496   2.559  0.00  0.00    -0.067 C 
BRANCH  19  20
ATOM     20  N   UNL     1      -0.709   0.944   3.772  0.00  0.00    +0.380 N 
ATOM     21  H   UNL     1      -0.108   1.134   4.583  0.00  0.00    -0.086 HD
ATOM     22  H   UNL     1      -0.826  -0.070   3.663  0.00  0.00    -0.086 HD
BRANCH  20  23
ATOM     23  C   UNL     1      -2.030   1.565   3.989  0.00  0.00    -0.078 C 
BRANCH  23  24
ATOM     24  C   UNL     1      -2.660   0.975   5.252  0.00  0.00    +0.020 C 
BRANCH  24  25
ATOM     25  C   UNL     1      -4.010   1.605   5.481  0.00  0.00    -0.007 A 
ATOM     26  C   UNL     1      -4.132   2.691   6.326  0.00  0.00    +0.007 A 
ATOM     27  C   UNL     1      -5.370   3.270   6.535  0.00  0.00    +0.000 A 
ATOM     28  C   UNL     1      -6.489   2.763   5.901  0.00  0.00    +0.004 A 
ATOM     29  C   UNL     1      -6.372   1.677   5.055  0.00  0.00    +0.046 A 
ATOM     30  C   UNL     1      -5.130   1.098   4.839  0.00  0.00    +0.123 A 
BRANCH  30  31
ATOM     31  O   UNL     1      -5.012   0.033   4.003  0.00  0.00    -0.495 OA
ATOM     32  C   UNL     1      -6.207  -0.436   3.376  0.00  0.00    +0.277 C 
ENDBRANCH  30  31
ENDBRANCH  24  25
ENDBRANCH  23  24
ENDBRANCH  20  23
ENDBRANCH  19  20
ENDBRANCH  15  19
TORSDOF 7
