REMARK  Name = ZINC58556720
REMARK  6 active torsions:
REMARK  status: ('A' for Active; 'I' for Inactive)
REMARK    1  A    between atoms: C_3  and  C_11
REMARK    2  A    between atoms: C_4  and  N_10
REMARK    3  A    between atoms: C_6  and  N_7
REMARK    4  A    between atoms: C_11  and  O_13
REMARK    5  A    between atoms: O_13  and  C_14
REMARK    6  A    between atoms: C_14  and  C_15
REMARK                            x       y       z     vdW  Elec       q    Type
REMARK                         _______ _______ _______ _____ _____    ______ ____
ROOT
ATOM      1  C   UNL     1      -0.079   1.256   0.032  0.00  0.00    +0.033 A 
ATOM      2  C   UNL     1       1.022   2.084   0.004  0.00  0.00    +0.019 A 
ATOM      3  C   UNL     1       2.307   1.535  -0.034  0.00  0.00    +0.080 A 
ATOM      4  C   UNL     1       2.464   0.140  -0.043  0.00  0.00    +0.041 A 
ATOM      5  C   UNL     1       1.341  -0.678  -0.015  0.00  0.00    +0.056 A 
ATOM      6  C   UNL     1       0.080  -0.120   0.023  0.00  0.00    +0.128 A 
ENDROOT
BRANCH   6   7
ATOM      7  N   UNL     1      -1.112  -0.998   0.053  0.00  0.00    +0.056 N 
ATOM      8  O   UNL     1      -2.219  -0.513   0.086  0.00  0.00    -0.126 OA
ATOM      9  O   UNL     1      -0.978  -2.199   0.045  0.00  0.00    -0.126 OA
ENDBRANCH   6   7
BRANCH   4  10
ATOM     10  N   UNL     1       3.734  -0.419  -0.082  0.00  0.00    -0.357 N 
ATOM     11  H   UNL     1       4.517   0.150  -0.021  0.00  0.00    +0.142 HD
ATOM     12  H   UNL     1       3.839  -1.380  -0.169  0.00  0.00    +0.142 HD
ENDBRANCH   4  10
BRANCH   3  13
ATOM     13  C   UNL     1       3.488   2.414  -0.065  0.00  0.00    +0.341 C 
ATOM     14  O   UNL     1       4.603   1.937   0.010  0.00  0.00    -0.245 OA
BRANCH  13  15
ATOM     15  O   UNL     1       3.332   3.748  -0.176  0.00  0.00    -0.456 OA
BRANCH  15  16
ATOM     16  C   UNL     1       4.521   4.541  -0.199  0.00  0.00    +0.270 C 
BRANCH  16  17
ATOM     17  C   UNL     1       4.153   5.996  -0.327  0.00  0.00    +0.025 A 
ATOM     18  C   UNL     1       2.824   6.369  -0.395  0.00  0.00    +0.011 A 
ATOM     19  C   UNL     1       2.485   7.704  -0.511  0.00  0.00    +0.016 A 
ATOM     20  C   UNL     1       3.476   8.668  -0.561  0.00  0.00    +0.021 A 
ATOM     21  C   UNL     1       4.806   8.297  -0.493  0.00  0.00    +0.054 A 
ATOM     22  C   UNL     1       5.146   6.960  -0.370  0.00  0.00    +0.131 A 
ATOM     23  F   UNL     1       6.445   6.597  -0.299  0.00  0.00    -0.205 F 
ATOM     24 BR   UNL     1       3.011  10.495  -0.721  0.00  0.00    -0.050 Br
ENDBRANCH  16  17
ENDBRANCH  15  16
ENDBRANCH  13  15
ENDBRANCH   3  13
TORSDOF 6
