REMARK  Name = ZINC34803551
REMARK  10 active torsions:
REMARK  status: ('A' for Active; 'I' for Inactive)
REMARK    1  A    between atoms: C_1  and  C_2
REMARK    2  A    between atoms: C_2  and  O_3
REMARK    3  A    between atoms: O_3  and  C_4
REMARK    4  A    between atoms: C_4  and  C_6
REMARK    5  A    between atoms: C_7  and  C_22
REMARK    6  A    between atoms: C_12  and  C_14
REMARK    7  A    between atoms: C_17  and  O_20
REMARK    8  A    between atoms: O_20  and  C_21
REMARK    9  A    between atoms: C_22  and  N_23
REMARK   10  A    between atoms: C_27  and  C_29
REMARK                            x       y       z     vdW  Elec       q    Type
REMARK                         _______ _______ _______ _____ _____    ______ ____
ROOT
ATOM      1  C   UNL     1      -2.946  -2.502   0.223  0.00  0.00    +0.076 C 
ATOM      2  C   UNL     1      -3.042  -3.810  -0.098  0.00  0.00    +0.008 C 
ATOM      3  N   UNL     1      -4.256  -4.392  -0.324  0.00  0.00    -0.274 N 
ATOM      4  C   UNL     1      -5.421  -3.735  -0.249  0.00  0.00    +0.304 C 
ATOM      5  O   UNL     1      -6.452  -4.340  -0.468  0.00  0.00    -0.252 OA
ATOM      6  N   UNL     1      -5.486  -2.425   0.061  0.00  0.00    -0.288 N 
ATOM      7  C   UNL     1      -4.230  -1.705   0.330  0.00  0.00    +0.143 C 
ATOM      8  H   UNL     1      -4.277  -5.335  -0.552  0.00  0.00    +0.156 HD
ATOM      9  H   UNL     1      -6.340  -1.969   0.110  0.00  0.00    +0.151 HD
ENDROOT
BRANCH   7  10
ATOM     10  C   UNL     1      -4.306  -1.131   1.721  0.00  0.00    -0.022 A 
ATOM     11  C   UNL     1      -4.723  -1.925   2.773  0.00  0.00    +0.009 A 
ATOM     12  C   UNL     1      -4.794  -1.402   4.050  0.00  0.00    +0.046 A 
ATOM     13  C   UNL     1      -4.447  -0.077   4.275  0.00  0.00    +0.120 A 
ATOM     14  C   UNL     1      -4.029   0.717   3.218  0.00  0.00    +0.046 A 
ATOM     15  C   UNL     1      -3.955   0.187   1.944  0.00  0.00    +0.009 A 
BRANCH  13  16
ATOM     16  O   UNL     1      -4.517   0.441   5.530  0.00  0.00    -0.495 OA
ATOM     17  C   UNL     1      -4.145   1.811   5.687  0.00  0.00    +0.277 C 
ENDBRANCH  13  16
ENDBRANCH   7  10
BRANCH   1  18
ATOM     18  C   UNL     1      -1.688  -1.897   0.458  0.00  0.00    +0.339 C 
ATOM     19  O   UNL     1      -0.681  -2.580   0.490  0.00  0.00    -0.245 OA
BRANCH  18  20
ATOM     20  O   UNL     1      -1.606  -0.564   0.647  0.00  0.00    -0.462 OA
BRANCH  20  22
ATOM     21  C   UNL     1      -0.410   1.494   1.070  0.00  0.00    +0.048 C 
ATOM     22  C   UNL     1      -0.305  -0.021   0.879  0.00  0.00    +0.229 C 
ENDBRANCH  20  22
ENDBRANCH  18  20
ENDBRANCH   1  18
BRANCH   2  23
ATOM     23  C   UNL     1      -1.789  -4.640  -0.210  0.00  0.00    -0.026 C 
BRANCH  23  24
ATOM     24  N   UNL     1      -1.415  -5.143   1.119  0.00  0.00    +0.388 N 
ATOM     25  C   UNL     1      -2.433  -6.107   1.590  0.00  0.00    -0.078 C 
ATOM     26  C   UNL     1      -1.868  -7.497   1.207  0.00  0.00    -0.020 C 
ATOM     27  C   UNL     1      -0.350  -7.300   1.461  0.00  0.00    -0.013 C 
ATOM     28  C   UNL     1      -0.115  -5.834   1.040  0.00  0.00    -0.037 C 
ATOM     29  H   UNL     1      -1.352  -4.374   1.768  0.00  0.00    -0.080 HD
BRANCH  28  30
ATOM     30  C   UNL     1       0.869  -5.183   1.977  0.00  0.00    -0.061 A 
ATOM     31  C   UNL     1       0.459  -4.766   3.230  0.00  0.00    +0.002 A 
ATOM     32  C   UNL     1       1.361  -4.169   4.090  0.00  0.00    +0.000 A 
ATOM     33  C   UNL     1       2.674  -3.989   3.697  0.00  0.00    +0.000 A 
ATOM     34  C   UNL     1       3.085  -4.406   2.445  0.00  0.00    +0.000 A 
ATOM     35  C   UNL     1       2.183  -5.007   1.587  0.00  0.00    +0.002 A 
ENDBRANCH  28  30
ENDBRANCH  23  24
ENDBRANCH   2  23
TORSDOF 8
