REMARK  Name = ZINC02193360
REMARK  9 active torsions:
REMARK  status: ('A' for Active; 'I' for Inactive)
REMARK    1  A    between atoms: C_1  and  N_60
REMARK    2  A    between atoms: C_2  and  N_60
REMARK    3  A    between atoms: C_3  and  C_4
REMARK    4  A    between atoms: C_3  and  N_60
REMARK    5  A    between atoms: C_5  and  C_15
REMARK    6  A    between atoms: N_17  and  N_18
REMARK    7  A    between atoms: C_19  and  C_20
REMARK    8  A    between atoms: N_22  and  C_31
REMARK    9  A    between atoms: C_24  and  C_25
REMARK                            x       y       z     vdW  Elec       q    Type
REMARK                         _______ _______ _______ _____ _____    ______ ____
ROOT
ATOM      1  C   UNL     1      -4.615  -0.892   0.910  0.00  0.00    +0.285 C 
ATOM      2  O   UNL     1      -3.760  -1.753   0.831  0.00  0.00    -0.267 OA
ATOM      3  N   UNL     1      -4.277   0.407   0.786  0.00  0.00    -0.202 N 
ATOM      4  H   UNL     1      -4.959   1.094   0.849  0.00  0.00    +0.178 HD
ENDROOT
BRANCH   1   6
ATOM      5  C   UNL     1      -6.495  -2.542   1.286  0.00  0.00    +0.063 A 
ATOM      6  C   UNL     1      -6.022  -1.268   1.143  0.00  0.00    +0.170 A 
ATOM      7  N   UNL     1      -7.056  -0.416   1.256  0.00  0.00    -0.124 NA
ATOM      8  N   UNL     1      -8.142  -1.078   1.452  0.00  0.00    -0.058 NA
ATOM      9  N   UNL     1      -7.829  -2.444   1.482  0.00  0.00    -0.194 N 
ATOM     10  C   UNL     1      -8.724  -3.502   1.676  0.00  0.00    +0.240 A 
ATOM     11  C   UNL     1     -10.169  -3.375   1.887  0.00  0.00    +0.206 A 
ATOM     12  N   UNL     1     -10.669  -4.572   2.029  0.00  0.00    -0.032 NA
ATOM     13  O   UNL     1      -9.606  -5.502   1.921  0.00  0.00    -0.239 OA
ATOM     14  N   UNL     1      -8.416  -4.768   1.695  0.00  0.00    -0.027 NA
ATOM     15  N   UNL     1     -10.884  -2.183   1.928  0.00  0.00    -0.337 N 
ATOM     16  H   UNL     1     -10.424  -1.337   1.811  0.00  0.00    +0.144 HD
ATOM     17  H   UNL     1     -11.843  -2.198   2.073  0.00  0.00    +0.144 HD
BRANCH   5  18
ATOM     18  C   UNL     1      -5.685  -3.812   1.236  0.00  0.00    -0.021 C 
BRANCH  18  21
ATOM     19  C   UNL     1      -4.659  -5.398  -0.278  0.00  0.00    -0.096 C 
ATOM     20  C   UNL     1      -6.958  -4.717  -0.613  0.00  0.00    -0.096 C 
ATOM     21  N   UNL     1      -5.619  -4.281  -0.164  0.00  0.00    +0.380 N 
ATOM     22  H   UNL     1      -5.303  -3.507  -0.760  0.00  0.00    -0.082 HD
ENDBRANCH  18  21
ENDBRANCH   5  18
ENDBRANCH   1   6
BRANCH   3  23
ATOM     23  N   UNL     1      -2.941   0.764   0.565  0.00  0.00    -0.187 NA
ATOM     24  C   UNL     1      -2.615   2.015   0.445  0.00  0.00    +0.142 C 
BRANCH  24  25
ATOM     25  C   UNL     1      -1.209   2.392   0.212  0.00  0.00    +0.040 A 
ATOM     26  C   UNL     1      -0.700   3.660   0.166  0.00  0.00    +0.124 A 
ATOM     27  N   UNL     1       0.625   3.569  -0.075  0.00  0.00    -0.239 N 
ATOM     28  N   UNL     1       0.988   2.223  -0.181  0.00  0.00    -0.166 NA
ATOM     29  C   UNL     1      -0.084   1.479  -0.011  0.00  0.00    +0.102 A 
BRANCH  29  30
ATOM     30  C   UNL     1      -0.144  -0.001  -0.046  0.00  0.00    +0.003 A 
ATOM     31  C   UNL     1       0.821  -0.756   0.620  0.00  0.00    +0.010 A 
ATOM     32  C   UNL     1       0.757  -2.134   0.588  0.00  0.00    +0.001 A 
ATOM     33  C   UNL     1      -0.255  -2.767  -0.111  0.00  0.00    +0.000 A 
ATOM     34  C   UNL     1      -1.212  -2.023  -0.777  0.00  0.00    +0.001 A 
ATOM     35  C   UNL     1      -1.162  -0.645  -0.749  0.00  0.00    +0.010 A 
ENDBRANCH  29  30
BRANCH  27  36
ATOM     36  C   UNL     1       1.501   4.655  -0.200  0.00  0.00    +0.065 A 
ATOM     37  C   UNL     1       1.021   5.953  -0.081  0.00  0.00    +0.028 A 
ATOM     38  C   UNL     1       1.888   7.022  -0.200  0.00  0.00    +0.002 A 
ATOM     39  C   UNL     1       3.230   6.801  -0.448  0.00  0.00    +0.000 A 
ATOM     40  C   UNL     1       3.710   5.510  -0.572  0.00  0.00    +0.002 A 
ATOM     41  C   UNL     1       2.849   4.437  -0.449  0.00  0.00    +0.028 A 
ENDBRANCH  27  36
ENDBRANCH  24  25
ENDBRANCH   3  23
TORSDOF 7
