REMARK  Name = ZINC20168302
REMARK  9 active torsions:
REMARK  status: ('A' for Active; 'I' for Inactive)
REMARK    1  A    between atoms: C_1  and  C_2
REMARK    2  A    between atoms: C_2  and  O_3
REMARK    3  A    between atoms: O_3  and  C_4
REMARK    4  A    between atoms: C_4  and  C_6
REMARK    5  A    between atoms: C_10  and  N_11
REMARK    6  A    between atoms: C_12  and  C_14
REMARK    7  A    between atoms: C_22  and  C_24
REMARK    8  A    between atoms: C_28  and  C_29
REMARK    9  A    between atoms: C_28  and  C_30
REMARK                            x       y       z     vdW  Elec       q    Type
REMARK                         _______ _______ _______ _____ _____    ______ ____
ROOT
ATOM      1  C   UNL     1      -0.179  -1.432   2.390  0.00  0.00    +0.091 A 
ATOM      2  C   UNL     1      -1.188  -0.885   1.488  0.00  0.00    -0.021 A 
ATOM      3  C   UNL     1      -1.496  -1.674   0.446  0.00  0.00    -0.004 A 
ATOM      4  S   UNL     1      -0.488  -3.117   0.635  0.00  0.00    -0.077 S 
ATOM      5  C   UNL     1       0.345  -2.681   2.090  0.00  0.00    +0.086 A 
ATOM      6  C   UNL     1      -2.484  -1.363  -0.623  0.00  0.00    +0.043 C 
ATOM      7  C   UNL     1      -1.853  -0.533  -1.762  0.00  0.00    +0.005 C 
ATOM      8  C   UNL     1      -2.106   0.961  -1.443  0.00  0.00    +0.000 C 
ATOM      9  C   UNL     1      -0.761   1.616  -1.116  0.00  0.00    +0.000 C 
ATOM     10  C   UNL     1      -0.076   1.112   0.122  0.00  0.00    +0.000 C 
ATOM     11  C   UNL     1      -0.800   1.546   1.404  0.00  0.00    +0.005 C 
ATOM     12  C   UNL     1      -1.837   0.467   1.714  0.00  0.00    +0.037 C 
ENDROOT
BRANCH   5  13
ATOM     13  N   UNL     1       1.302  -3.404   2.785  0.00  0.00    -0.279 N 
ATOM     14  C   UNL     1       1.690  -4.614   2.336  0.00  0.00    +0.222 C 
ATOM     15  O   UNL     1       1.203  -5.070   1.323  0.00  0.00    -0.275 OA
ATOM     16  H   UNL     1       1.745  -2.991   3.704  0.00  0.00    +0.155 HD
BRANCH  14  17
ATOM     17  C   UNL     1       2.731  -5.400   3.091  0.00  0.00    +0.097 C 
ATOM     18  C   UNL     1       2.075  -6.178   4.273  0.00  0.00    +0.028 C 
ATOM     19  C   UNL     1       0.831  -6.877   3.645  0.00  0.00    +0.009 C 
ATOM     20  C   UNL     1       1.430  -7.984   2.747  0.00  0.00    +0.009 C 
ATOM     21  C   UNL     1       2.971  -7.834   2.930  0.00  0.00    +0.030 C 
ATOM     22  C   UNL     1       3.330  -6.508   2.193  0.00  0.00    +0.122 C 
ATOM     23  C   UNL     1       3.044  -7.375   4.404  0.00  0.00    -0.063 C 
ATOM     24  C   UNL     1       3.710  -7.846   5.430  0.00  0.00    -0.076 C 
ATOM     25  C   UNL     1       3.587  -7.183   6.777  0.00  0.00    +0.039 C 
ATOM     26  C   UNL     1       4.598  -9.052   5.262  0.00  0.00    +0.039 C 
BRANCH  22  27
ATOM     27  C   UNL     1       4.825  -6.351   2.089  0.00  0.00    +0.360 C 
ATOM     28  O   UNL     1       5.554  -7.229   2.486  0.00  0.00    -0.246 OA
ATOM     29  O   UNL     1       5.347  -5.236   1.553  0.00  0.00    -0.246 OA
ENDBRANCH  22  27
ENDBRANCH  14  17
ENDBRANCH   5  13
BRANCH   1  30
ATOM     30  C   UNL     1       0.265  -0.688   3.571  0.00  0.00    +0.342 C 
ATOM     31  O   UNL     1      -0.309  -0.834   4.633  0.00  0.00    -0.245 OA
BRANCH  30  32
ATOM     32  O   UNL     1       1.311   0.160   3.480  0.00  0.00    -0.461 OA
BRANCH  32  34
ATOM     33  C   UNL     1       2.890   1.772   4.394  0.00  0.00    +0.048 C 
ATOM     34  C   UNL     1       1.696   0.864   4.690  0.00  0.00    +0.229 C 
ENDBRANCH  32  34
ENDBRANCH  30  32
ENDBRANCH   1  30
TORSDOF 6
