REMARK  Name = ZINC01414998
REMARK  7 active torsions:
REMARK  status: ('A' for Active; 'I' for Inactive)
REMARK    1  A    between atoms: C_6  and  C_7
REMARK    2  A    between atoms: C_7  and  C_9
REMARK    3  A    between atoms: C_9  and  C_10
REMARK    4  A    between atoms: C_10  and  C_22
REMARK    5  A    between atoms: N_11  and  N_12
REMARK    6  A    between atoms: C_15  and  C_18
REMARK    7  A    between atoms: N_20  and  N_21
REMARK                            x       y       z     vdW  Elec       q    Type
REMARK                         _______ _______ _______ _____ _____    ______ ____
ROOT
ATOM      1  C   UNL     1       2.851  -3.810   0.052  0.00  0.00    +0.146 C 
ATOM      2  N   UNL     1       2.665  -2.563  -0.169  0.00  0.00    -0.180 NA
ENDROOT
BRANCH   2   3
ATOM      3  N   UNL     1       1.368  -2.071  -0.361  0.00  0.00    -0.215 N 
ATOM      4  C   UNL     1       1.157  -0.710  -0.499  0.00  0.00    +0.178 A 
ATOM      5  N   UNL     1       0.026  -0.057  -0.684  0.00  0.00    -0.219 NA
ATOM      6  C   UNL     1       0.006   1.272  -0.797  0.00  0.00    +0.136 A 
ATOM      7  C   UNL     1       1.188   1.965  -0.718  0.00  0.00    +0.081 A 
ATOM      8  S   UNL     1       2.345   0.625  -0.472  0.00  0.00    -0.058 S 
ATOM      9  H   UNL     1       0.617  -2.684  -0.397  0.00  0.00    +0.176 HD
BRANCH   6  10
ATOM     10  C   UNL     1      -1.264   1.984  -1.010  0.00  0.00    +0.276 C 
ATOM     11  O   UNL     1      -1.272   3.196  -1.112  0.00  0.00    -0.267 OA
ATOM     12  N   UNL     1      -2.418   1.293  -1.092  0.00  0.00    -0.248 N 
ATOM     13  H   UNL     1      -2.412   0.327  -1.010  0.00  0.00    +0.169 HD
BRANCH  12  14
ATOM     14  N   UNL     1      -3.598   1.954  -1.289  0.00  0.00    -0.254 NA
ATOM     15  H   UNL     1      -4.372   1.309  -1.329  0.00  0.00    +0.140 HD
ATOM     16  H   UNL     1      -3.745   2.652  -0.576  0.00  0.00    +0.140 HD
ENDBRANCH  12  14
ENDBRANCH   6  10
ENDBRANCH   2   3
BRANCH   1  17
ATOM     17  C   UNL     1       1.678  -4.757   0.059  0.00  0.00    +0.432 C 
ATOM     18  F   UNL     1       1.020  -4.693  -1.174  0.00  0.00    -0.165 F 
ATOM     19  F   UNL     1       2.134  -6.062   0.277  0.00  0.00    -0.165 F 
ATOM     20  F   UNL     1       0.793  -4.395   1.080  0.00  0.00    -0.165 F 
ENDBRANCH   1  17
BRANCH   1  21
ATOM     21  C   UNL     1       4.242  -4.332   0.305  0.00  0.00    +0.141 C 
BRANCH  21  22
ATOM     22  C   UNL     1       4.331  -4.860   1.714  0.00  0.00    +0.169 C 
ATOM     23  O   UNL     1       3.361  -4.818   2.440  0.00  0.00    -0.292 OA
BRANCH  22  29
ATOM     24  C   UNL     1       6.715  -5.484   1.370  0.00  0.00    +0.012 A 
ATOM     25  C   UNL     1       7.898  -6.011   1.842  0.00  0.00    +0.016 A 
ATOM     26  C   UNL     1       7.976  -6.497   3.137  0.00  0.00    +0.018 A 
ATOM     27  C   UNL     1       6.870  -6.450   3.970  0.00  0.00    +0.016 A 
ATOM     28  C   UNL     1       5.682  -5.920   3.514  0.00  0.00    +0.012 A 
ATOM     29  C   UNL     1       5.596  -5.428   2.207  0.00  0.00    +0.018 A 
ATOM     30 BR   UNL     1       9.601  -7.226   3.772  0.00  0.00    -0.050 Br
ENDBRANCH  22  29
ENDBRANCH  21  22
ENDBRANCH   1  21
TORSDOF 7
