REMARK  Name = ZINC44980078
REMARK  4 active torsions:
REMARK  status: ('A' for Active; 'I' for Inactive)
REMARK    1  A    between atoms: C_1  and  C_2
REMARK    2  A    between atoms: C_7  and  C_10
REMARK    3  A    between atoms: C_10  and  C_12
REMARK    4  A    between atoms: C_10  and  O_13
REMARK                            x       y       z     vdW  Elec       q    Type
REMARK                         _______ _______ _______ _____ _____    ______ ____
ROOT
ATOM      1  C   UNL     1      -0.019   1.526   0.010  0.00  0.00    +0.007 C 
ATOM      2  C   UNL     1       0.002  -0.004   0.002  0.00  0.00    -0.014 C 
ATOM      3  C   UNL     1      -1.433  -0.534   0.013  0.00  0.00    +0.003 C 
ATOM      4  C   UNL     1      -2.149  -0.040   1.272  0.00  0.00    +0.001 C 
ATOM      5  C   UNL     1      -1.409  -0.547   2.511  0.00  0.00    +0.006 C 
ATOM      6  C   UNL     1       0.026  -0.018   2.500  0.00  0.00    +0.018 C 
ATOM      7  C   UNL     1       0.742  -0.511   1.242  0.00  0.00    +0.009 C 
ENDROOT
BRANCH   6   8
ATOM      8  C   UNL     1       0.766  -0.524   3.740  0.00  0.00    +0.115 C 
ATOM      9  C   UNL     1       0.050  -0.031   4.999  0.00  0.00    +0.038 C 
BRANCH   8  10
ATOM     10  O   UNL     1       0.785  -1.953   3.732  0.00  0.00    -0.392 OA
ATOM     11  H   UNL     1      -0.093  -2.358   3.738  0.00  0.00    +0.210 HD
ENDBRANCH   8  10
ENDBRANCH   6   8
TORSDOF 2
