REMARK  Name = ZINC08619829
REMARK  6 active torsions:
REMARK  status: ('A' for Active; 'I' for Inactive)
REMARK    1  A    between atoms: C_4  and  C_7
REMARK    2  A    between atoms: C_7  and  N_8
REMARK    3  A    between atoms: C_9  and  C_27
REMARK    4  A    between atoms: C_12  and  S_13
REMARK    5  A    between atoms: S_13  and  C_14
REMARK    6  A    between atoms: C_14  and  C_15
REMARK                            x       y       z     vdW  Elec       q    Type
REMARK                         _______ _______ _______ _____ _____    ______ ____
ROOT
ATOM      1  N   UNL     1      -2.927   0.722   1.401  0.00  0.00    -0.295 N 
ATOM      2  C   UNL     1      -3.723   1.519   2.194  0.00  0.00    +0.201 A 
ATOM      3  N   UNL     1      -3.839   0.912   3.355  0.00  0.00    -0.125 NA
ATOM      4  N   UNL     1      -3.181  -0.192   3.341  0.00  0.00    -0.122 NA
ATOM      5  C   UNL     1      -2.607  -0.361   2.171  0.00  0.00    +0.193 A 
ENDROOT
BRANCH   2   6
ATOM      6  C   UNL     1      -4.328   2.805   1.815  0.00  0.00    +0.172 A 
ATOM      7  C   UNL     1      -5.335   3.442   2.477  0.00  0.00    +0.053 A 
ATOM      8  C   UNL     1      -5.595   4.632   1.770  0.00  0.00    +0.042 A 
ATOM      9  C   UNL     1      -4.751   4.661   0.719  0.00  0.00    +0.196 A 
ATOM     10  O   UNL     1      -3.988   3.556   0.749  0.00  0.00    -0.460 OA
ENDBRANCH   2   6
BRANCH   1  11
ATOM     11  C   UNL     1      -2.514   0.980   0.019  0.00  0.00    +0.161 C 
BRANCH  11  15
ATOM     12  C   UNL     1       1.156   3.165   0.008  0.00  0.00    +0.000 A 
ATOM     13  C   UNL     1       1.175   1.783   0.000  0.00  0.00    +0.000 A 
ATOM     14  C   UNL     1      -0.013   1.076   0.008  0.00  0.00    +0.005 A 
ATOM     15  C   UNL     1      -1.219   1.751   0.017  0.00  0.00    -0.028 A 
ATOM     16  C   UNL     1      -1.238   3.133   0.030  0.00  0.00    +0.005 A 
ATOM     17  C   UNL     1      -0.050   3.840   0.022  0.00  0.00    +0.000 A 
ENDBRANCH  11  15
ENDBRANCH   1  11
BRANCH   5  18
ATOM     18  S   UNL     1      -1.609  -1.730   1.685  0.00  0.00    -0.081 S 
BRANCH  18  19
ATOM     19  C   UNL     1      -1.657  -2.709   3.206  0.00  0.00    +0.113 C 
BRANCH  19  20
ATOM     20  C   UNL     1      -0.846  -3.966   3.021  0.00  0.00    -0.020 A 
ATOM     21  C   UNL     1       0.477  -3.993   3.322  0.00  0.00    +0.097 A 
ATOM     22  C   UNL     1       1.214  -5.183   3.139  0.00  0.00    +0.338 A 
ATOM     23  O   UNL     1       2.401  -5.193   3.413  0.00  0.00    -0.245 OA
ATOM     24  O   UNL     1       0.641  -6.302   2.671  0.00  0.00    -0.422 OA
ATOM     25  C   UNL     1      -0.670  -6.342   2.352  0.00  0.00    +0.140 A 
ATOM     26  C   UNL     1      -1.466  -5.194   2.515  0.00  0.00    +0.022 A 
ATOM     27  C   UNL     1      -2.823  -5.232   2.180  0.00  0.00    +0.013 A 
ATOM     28  C   UNL     1      -3.372  -6.390   1.706  0.00  0.00    +0.016 A 
ATOM     29  C   UNL     1      -2.591  -7.527   1.548  0.00  0.00    +0.021 A 
ATOM     30  C   UNL     1      -1.248  -7.508   1.868  0.00  0.00    +0.062 A 
ATOM     31 BR   UNL     1      -3.374  -9.117   0.889  0.00  0.00    -0.050 Br
ENDBRANCH  19  20
ENDBRANCH  18  19
ENDBRANCH   5  18
TORSDOF 6
