REMARK  Name = ZINC20701948
REMARK  7 active torsions:
REMARK  status: ('A' for Active; 'I' for Inactive)
REMARK    1  A    between atoms: C_1  and  C_2
REMARK    2  A    between atoms: C_2  and  N_3
REMARK    3  A    between atoms: N_3  and  C_4
REMARK    4  A    between atoms: C_4  and  C_5
REMARK    5  A    between atoms: C_6  and  C_8
REMARK    6  A    between atoms: C_21  and  C_24
REMARK    7  A    between atoms: C_29  and  O_30
REMARK                            x       y       z     vdW  Elec       q    Type
REMARK                         _______ _______ _______ _____ _____    ______ ____
ROOT
ATOM      1  C   UNL     1       3.350  -1.232  -0.976  0.00  0.00    +0.037 A 
ATOM      2  C   UNL     1       2.544  -0.180  -0.530  0.00  0.00    +0.015 A 
ATOM      3  C   UNL     1       1.183  -0.243  -0.716  0.00  0.00    +0.024 A 
ATOM      4  C   UNL     1       0.611  -1.346  -1.344  0.00  0.00    +0.031 A 
ATOM      5  C   UNL     1       1.403  -2.396  -1.793  0.00  0.00    -0.019 A 
ATOM      6  C   UNL     1       2.772  -2.334  -1.606  0.00  0.00    +0.019 A 
ATOM      7  C   UNL     1       0.828  -3.597  -2.476  0.00  0.00    +0.049 C 
ATOM      8  C   UNL     1       0.816  -4.798  -1.562  0.00  0.00    -0.023 C 
ATOM      9  C   UNL     1      -0.258  -5.519  -1.774  0.00  0.00    -0.030 C 
ATOM     10  C   UNL     1      -1.108  -4.897  -2.865  0.00  0.00    +0.033 C 
ATOM     11  C   UNL     1      -0.654  -3.417  -2.860  0.00  0.00    +0.029 C 
ATOM     12  C   UNL     1      -1.402  -2.707  -1.728  0.00  0.00    +0.109 C 
ATOM     13  N   UNL     1      -0.771  -1.389  -1.516  0.00  0.00    -0.336 N 
ATOM     14  H   UNL     1      -1.389  -0.480  -1.497  0.00  0.00    +0.147 HD
ENDROOT
BRANCH  12  15
ATOM     15  C   UNL     1      -1.331  -3.541  -0.475  0.00  0.00    +0.017 A 
ATOM     16  C   UNL     1      -0.266  -3.395   0.393  0.00  0.00    +0.029 A 
ATOM     17  C   UNL     1      -0.199  -4.161   1.543  0.00  0.00    +0.043 A 
ATOM     18  C   UNL     1      -1.200  -5.073   1.828  0.00  0.00    +0.043 A 
ATOM     19  C   UNL     1      -2.267  -5.222   0.963  0.00  0.00    +0.084 A 
ATOM     20  C   UNL     1      -2.338  -4.450  -0.190  0.00  0.00    +0.140 A 
ATOM     21 CL   UNL     1      -3.522  -6.367   1.320  0.00  0.00    -0.080 Cl
ATOM     22 CL   UNL     1       1.141  -3.975   2.631  0.00  0.00    -0.083 Cl
BRANCH  20  23
ATOM     23  O   UNL     1      -3.390  -4.591  -1.039  0.00  0.00    -0.505 OA
ATOM     24  H   UNL     1      -4.188  -5.312  -0.812  0.00  0.00    +0.292 HD
ENDBRANCH  20  23
ENDBRANCH  12  15
BRANCH   1  26
ATOM     25  N   UNL     1       5.437   0.017  -0.717  0.00  0.00    -0.298 N 
ATOM     26  C   UNL     1       4.811  -1.175  -0.782  0.00  0.00    +0.247 C 
ATOM     27  O   UNL     1       5.451  -2.204  -0.680  0.00  0.00    -0.270 OA
BRANCH  25  29
ATOM     28  C   UNL     1       7.638   0.155  -1.774  0.00  0.00    +0.024 C 
ATOM     29  C   UNL     1       6.876   0.075  -0.450  0.00  0.00    +0.104 C 
ENDBRANCH  25  29
BRANCH  25  30
ATOM     30  C   UNL     1       4.678   1.254  -0.913  0.00  0.00    +0.104 C 
ATOM     31  C   UNL     1       4.514   1.970   0.429  0.00  0.00    +0.024 C 
ENDBRANCH  25  30
ENDBRANCH   1  26
TORSDOF 5
