REMARK  Name = ZINC30962037
REMARK  9 active torsions:
REMARK  status: ('A' for Active; 'I' for Inactive)
REMARK    1  A    between atoms: C_1  and  C_2
REMARK    2  A    between atoms: C_2  and  C_3
REMARK    3  A    between atoms: C_2  and  C_4
REMARK    4  A    between atoms: C_4  and  C_6
REMARK    5  A    between atoms: C_4  and  N_18
REMARK    6  A    between atoms: N_8  and  N_9
REMARK    7  A    between atoms: C_10  and  C_11
REMARK    8  A    between atoms: C_16  and  O_17
REMARK    9  A    between atoms: C_19  and  C_21
REMARK                            x       y       z     vdW  Elec       q    Type
REMARK                         _______ _______ _______ _____ _____    ______ ____
ROOT
ATOM      1  C   UNL     1      -2.092   0.982  -1.759  0.00  0.00    +0.163 C 
ENDROOT
BRANCH   1   2
ATOM      2  C   UNL     1      -0.992   1.720  -1.040  0.00  0.00    +0.253 C 
ATOM      3  O   UNL     1      -1.236   2.756  -0.459  0.00  0.00    -0.272 OA
ATOM      4  N   UNL     1       0.264   1.228  -1.044  0.00  0.00    -0.205 N 
ATOM      5  H   UNL     1       0.504   0.339  -1.645  0.00  0.00    +0.177 HD
BRANCH   4   6
ATOM      6  N   UNL     1       1.262   1.851  -0.284  0.00  0.00    -0.188 NA
ATOM      7  C   UNL     1       2.483   1.414  -0.333  0.00  0.00    +0.142 C 
BRANCH   7   8
ATOM      8  C   UNL     1       2.749   0.009  -0.691  0.00  0.00    +0.036 A 
ATOM      9  C   UNL     1       1.694  -0.900  -0.797  0.00  0.00    +0.013 A 
ATOM     10  C   UNL     1       1.950  -2.212  -1.137  0.00  0.00    +0.001 A 
ATOM     11  C   UNL     1       3.249  -2.634  -1.364  0.00  0.00    +0.004 A 
ATOM     12  C   UNL     1       4.301  -1.745  -1.258  0.00  0.00    +0.046 A 
ATOM     13  C   UNL     1       4.062  -0.422  -0.922  0.00  0.00    +0.125 A 
BRANCH  13  14
ATOM     14  O   UNL     1       5.096   0.452  -0.817  0.00  0.00    -0.506 OA
ATOM     15  H   UNL     1       6.126   0.111  -0.999  0.00  0.00    +0.292 HD
ENDBRANCH  13  14
ENDBRANCH   7   8
ENDBRANCH   4   6
ENDBRANCH   1   2
BRANCH   1  16
ATOM     16  N   UNL     1      -3.144   1.926  -2.142  0.00  0.00    -0.300 N 
ATOM     17  C   UNL     1      -3.951   1.649  -3.186  0.00  0.00    +0.246 C 
ATOM     18  O   UNL     1      -3.805   0.616  -3.809  0.00  0.00    -0.270 OA
ATOM     19  H   UNL     1      -3.276   2.861  -1.578  0.00  0.00    +0.150 HD
BRANCH  17  20
ATOM     20  C   UNL     1      -5.012   2.602  -3.572  0.00  0.00    +0.055 A 
ATOM     21  C   UNL     1      -5.182   3.790  -2.858  0.00  0.00    +0.016 A 
ATOM     22  C   UNL     1      -6.173   4.675  -3.223  0.00  0.00    +0.021 A 
ATOM     23  C   UNL     1      -7.002   4.388  -4.296  0.00  0.00    +0.042 A 
ATOM     24  C   UNL     1      -6.840   3.212  -5.008  0.00  0.00    +0.040 A 
ATOM     25  C   UNL     1      -5.846   2.320  -4.657  0.00  0.00    +0.054 A 
ATOM     26 CL   UNL     1      -5.638   0.850  -5.556  0.00  0.00    -0.083 Cl
ATOM     27 CL   UNL     1      -8.248   5.508  -4.749  0.00  0.00    -0.083 Cl
ENDBRANCH  17  20
ENDBRANCH   1  16
BRANCH   1  29
ATOM     28  C   UNL     1      -1.579  -1.075  -0.437  0.00  0.00    +0.009 C 
ATOM     29  C   UNL     1      -2.678  -0.087  -0.834  0.00  0.00    +0.012 C 
ATOM     30  C   UNL     1      -3.242   0.580   0.422  0.00  0.00    +0.009 C 
ENDBRANCH   1  29
TORSDOF 7
