REMARK  Name = ZINC12873885
REMARK  8 active torsions:
REMARK  status: ('A' for Active; 'I' for Inactive)
REMARK    1  A    between atoms: C_1  and  O_2
REMARK    2  A    between atoms: O_2  and  C_3
REMARK    3  A    between atoms: C_8  and  C_9
REMARK    4  A    between atoms: C_9  and  C_11
REMARK    5  A    between atoms: C_9  and  N_19
REMARK    6  A    between atoms: N_13  and  C_14
REMARK    7  A    between atoms: N_19  and  C_20
REMARK    8  A    between atoms: C_26  and  C_28
REMARK                            x       y       z     vdW  Elec       q    Type
REMARK                         _______ _______ _______ _____ _____    ______ ____
ROOT
ATOM      1  C   UNL     1       0.474  -3.061   0.257  0.00  0.00    +0.196 C 
ENDROOT
BRANCH   1   7
ATOM      2  C   UNL     1       0.002  -0.640  -0.198  0.00  0.00    +0.126 A 
ATOM      3  C   UNL     1      -0.883   0.413  -0.379  0.00  0.00    +0.046 A 
ATOM      4  C   UNL     1      -2.244   0.194  -0.291  0.00  0.00    +0.004 A 
ATOM      5  C   UNL     1      -2.725  -1.074  -0.022  0.00  0.00    +0.001 A 
ATOM      6  C   UNL     1      -1.846  -2.126   0.159  0.00  0.00    +0.009 A 
ATOM      7  C   UNL     1      -0.484  -1.913   0.066  0.00  0.00    +0.023 A 
BRANCH   2   9
ATOM      8  C   UNL     1       1.769   0.908  -0.559  0.00  0.00    +0.277 C 
ATOM      9  O   UNL     1       1.341  -0.427  -0.285  0.00  0.00    -0.495 OA
ENDBRANCH   2   9
ENDBRANCH   1   7
BRANCH   1  10
ATOM     10  C   UNL     1       0.689  -3.295   1.730  0.00  0.00    +0.238 C 
ATOM     11  O   UNL     1       0.404  -4.366   2.222  0.00  0.00    -0.273 OA
ATOM     12  N   UNL     1       1.199  -2.314   2.501  0.00  0.00    -0.311 N 
ATOM     13  H   UNL     1       1.427  -1.457   2.108  0.00  0.00    +0.149 HD
BRANCH  12  14
ATOM     14  C   UNL     1       1.408  -2.542   3.933  0.00  0.00    +0.073 C 
ATOM     15  C   UNL     1       0.126  -2.194   4.717  0.00  0.00    +0.022 C 
ATOM     16  C   UNL     1       0.644  -1.551   6.027  0.00  0.00    +0.002 C 
ATOM     17  C   UNL     1       1.862  -0.725   5.545  0.00  0.00    +0.002 C 
ATOM     18  C   UNL     1       2.512  -1.608   4.460  0.00  0.00    +0.022 C 
ENDBRANCH  12  14
ENDBRANCH   1  10
BRANCH   1  19
ATOM     19  N   UNL     1      -0.085  -4.269  -0.353  0.00  0.00    -0.277 N 
ATOM     20  C   UNL     1       0.366  -4.690  -1.552  0.00  0.00    +0.268 C 
ATOM     21  O   UNL     1      -0.015  -5.751  -2.007  0.00  0.00    -0.268 OA
BRANCH  19  22
ATOM     22  C   UNL     1      -1.134  -5.022   0.339  0.00  0.00    +0.078 C 
ATOM     23  C   UNL     1      -0.590  -6.390   0.756  0.00  0.00    +0.022 C 
ATOM     24  C   UNL     1      -1.686  -7.175   1.480  0.00  0.00    +0.002 C 
ATOM     25  C   UNL     1      -2.881  -7.365   0.542  0.00  0.00    +0.000 C 
ATOM     26  C   UNL     1      -3.424  -5.997   0.125  0.00  0.00    +0.002 C 
ATOM     27  C   UNL     1      -2.329  -5.212  -0.598  0.00  0.00    +0.022 C 
ENDBRANCH  19  22
BRANCH  20  28
ATOM     28  C   UNL     1       1.322  -3.862  -2.311  0.00  0.00    +0.156 A 
ATOM     29  C   UNL     1       1.929  -4.295  -3.477  0.00  0.00    +0.101 A 
ATOM     30  S   UNL     1       2.882  -2.973  -3.882  0.00  0.00    +0.029 S 
ATOM     31  N   UNL     1       2.513  -1.984  -2.657  0.00  0.00    -0.110 NA
ATOM     32  N   UNL     1       1.669  -2.637  -1.938  0.00  0.00    -0.136 NA
ENDBRANCH  20  28
ENDBRANCH   1  19
TORSDOF 7
