REMARK  Name = ZINC27550403
REMARK  8 active torsions:
REMARK  status: ('A' for Active; 'I' for Inactive)
REMARK    1  A    between atoms: C_1  and  C_2
REMARK    2  A    between atoms: C_4  and  C_9
REMARK    3  A    between atoms: C_5  and  S_7
REMARK    4  A    between atoms: S_7  and  C_8
REMARK    5  A    between atoms: C_11  and  C_32
REMARK    6  A    between atoms: C_12  and  N_31
REMARK    7  A    between atoms: N_13  and  C_21
REMARK    8  A    between atoms: C_26  and  N_27
REMARK                            x       y       z     vdW  Elec       q    Type
REMARK                         _______ _______ _______ _____ _____    ______ ____
ROOT
ATOM      1  C   UNL     1      -1.176  -2.198   0.010  0.00  0.00    +0.099 C 
ATOM      2  C   UNL     1      -1.165  -0.698   0.015  0.00  0.00    +0.077 C 
ATOM      3  C   UNL     1       0.002  -0.004   0.002  0.00  0.00    +0.107 C 
ATOM      4  N   UNL     1       1.204  -0.675  -0.013  0.00  0.00    -0.258 N 
ATOM      5  C   UNL     1       1.266  -1.984  -0.413  0.00  0.00    +0.025 C 
ATOM      6  C   UNL     1       0.156  -2.751  -0.431  0.00  0.00    +0.025 C 
ATOM      7  C   UNL     1       0.207  -4.090  -0.856  0.00  0.00    +0.162 C 
ATOM      8  O   UNL     1      -0.809  -4.756  -0.852  0.00  0.00    -0.292 OA
ATOM      9  C   UNL     1       1.496  -4.714  -1.317  0.00  0.00    +0.080 C 
ATOM     10  C   UNL     1       2.401  -3.621  -1.897  0.00  0.00    +0.014 C 
ATOM     11  C   UNL     1       2.604  -2.544  -0.829  0.00  0.00    +0.052 C 
ENDROOT
BRANCH   4  12
ATOM     12  C   UNL     1       2.373  -0.014   0.384  0.00  0.00    +0.070 A 
ATOM     13  C   UNL     1       2.766  -0.037   1.716  0.00  0.00    +0.027 A 
ATOM     14  C   UNL     1       3.922   0.611   2.105  0.00  0.00    +0.022 A 
ATOM     15  C   UNL     1       4.683   1.292   1.170  0.00  0.00    +0.043 A 
ATOM     16  C   UNL     1       4.290   1.321  -0.157  0.00  0.00    +0.054 A 
ATOM     17  C   UNL     1       3.138   0.670  -0.551  0.00  0.00    +0.149 A 
ATOM     18 CL   UNL     1       6.132   2.111   1.663  0.00  0.00    -0.083 Cl
BRANCH  17  19
ATOM     19  N   UNL     1       2.718   0.701  -1.971  0.00  0.00    +0.058 N 
ATOM     20  O   UNL     1       3.390   1.301  -2.791  0.00  0.00    -0.126 OA
ATOM     21  O   UNL     1       1.702   0.126  -2.318  0.00  0.00    -0.126 OA
ENDBRANCH  17  19
ENDBRANCH   4  12
BRANCH   1  25
ATOM     22  C   UNL     1      -0.176  -2.656   4.983  0.00  0.00    +0.051 C 
ATOM     23  C   UNL     1      -0.932  -2.846   3.693  0.00  0.00    -0.012 A 
ATOM     24  C   UNL     1      -0.628  -2.394   2.453  0.00  0.00    +0.016 A 
ATOM     25  C   UNL     1      -1.478  -2.688   1.403  0.00  0.00    -0.014 A 
ATOM     26  C   UNL     1      -2.592  -3.434   1.649  0.00  0.00    +0.049 A 
ATOM     27  S   UNL     1      -2.455  -3.730   3.405  0.00  0.00    -0.087 S 
BRANCH  26  28
ATOM     28  S   UNL     1      -3.841  -3.968   0.527  0.00  0.00    -0.121 S 
ATOM     29  C   UNL     1      -4.992  -4.909   1.567  0.00  0.00    +0.090 C 
ENDBRANCH  26  28
ENDBRANCH   1  25
BRANCH   3  30
ATOM     30  N   UNL     1      -0.017   1.370   0.010  0.00  0.00    -0.345 N 
ATOM     31  H   UNL     1       0.928   1.933  -0.001  0.00  0.00    +0.144 HD
ATOM     32  H   UNL     1      -0.977   1.907   0.026  0.00  0.00    +0.144 HD
ENDBRANCH   3  30
BRANCH   2  33
ATOM     33  C   UNL     1      -2.408   0.014   0.029  0.00  0.00    +0.099 C 
ATOM     34  N   UNL     1      -3.393   0.579   0.040  0.00  0.00    -0.191 NA
ENDBRANCH   2  33
TORSDOF 6
