REMARK  Name = ZINC39702809
REMARK  8 active torsions:
REMARK  status: ('A' for Active; 'I' for Inactive)
REMARK    1  A    between atoms: C_1  and  C_2
REMARK    2  A    between atoms: C_2  and  O_3
REMARK    3  A    between atoms: O_3  and  C_4
REMARK    4  A    between atoms: C_5  and  O_24
REMARK    5  A    between atoms: C_7  and  C_11
REMARK    6  A    between atoms: C_12  and  C_13
REMARK    7  A    between atoms: C_12  and  C_15
REMARK    8  A    between atoms: O_24  and  C_25
REMARK                            x       y       z     vdW  Elec       q    Type
REMARK                         _______ _______ _______ _____ _____    ______ ____
ROOT
ATOM      1  C   UNL     1       1.145  -6.031   1.759  0.00  0.00    +0.026 C 
ATOM      2  C   UNL     1       1.693  -6.773   0.773  0.00  0.00    +0.072 C 
ENDROOT
BRANCH   2   3
ATOM      3  C   UNL     1       1.714  -8.275   0.883  0.00  0.00    +0.216 C 
ATOM      4  N   UNL     1       3.094  -8.768   0.784  0.00  0.00    -0.359 N 
ATOM      5  C   UNL     1       3.155  -9.549  -0.256  0.00  0.00    +0.060 A 
ATOM      6  C   UNL     1       4.248 -10.325  -0.860  0.00  0.00    +0.027 A 
ATOM      7  C   UNL     1       4.010 -11.061  -1.963  0.00  0.00    +0.002 A 
ATOM      8  C   UNL     1       2.745 -11.124  -2.574  0.00  0.00    +0.002 A 
ATOM      9  C   UNL     1       1.676 -10.452  -2.103  0.00  0.00    +0.027 A 
ATOM     10  C   UNL     1       1.817  -9.616  -0.903  0.00  0.00    +0.060 A 
ATOM     11  N   UNL     1       0.979  -8.874  -0.238  0.00  0.00    -0.359 N 
ATOM     12  H   UNL     1       3.825  -8.551   1.383  0.00  0.00    +0.162 HD
ATOM     13  H   UNL     1       0.041  -8.741  -0.445  0.00  0.00    +0.162 HD
ENDBRANCH   2   3
BRANCH   1  17
ATOM     14  C   UNL     1       1.496  -1.801   1.674  0.00  0.00    +0.175 A 
ATOM     15  C   UNL     1       0.317  -2.391   2.128  0.00  0.00    +0.163 A 
ATOM     16  C   UNL     1       0.199  -3.766   2.157  0.00  0.00    +0.057 A 
ATOM     17  C   UNL     1       1.265  -4.566   1.730  0.00  0.00    -0.019 A 
ATOM     18  C   UNL     1       2.445  -3.967   1.275  0.00  0.00    +0.026 A 
ATOM     19  C   UNL     1       2.552  -2.593   1.245  0.00  0.00    +0.059 A 
ATOM     20  I   UNL     1       4.317  -1.698   0.556  0.00  0.00    -0.040 I 
BRANCH  15  21
ATOM     21  O   UNL     1      -0.717  -1.611   2.544  0.00  0.00    -0.491 OA
ATOM     22  C   UNL     1      -1.895  -2.282   2.997  0.00  0.00    +0.277 C 
ENDBRANCH  15  21
BRANCH  14  23
ATOM     23  O   UNL     1       1.609  -0.447   1.647  0.00  0.00    -0.488 OA
BRANCH  23  25
ATOM     24  C   UNL     1       1.394   1.723   0.605  0.00  0.00    +0.048 C 
ATOM     25  C   UNL     1       1.194   0.214   0.450  0.00  0.00    +0.226 C 
ENDBRANCH  23  25
ENDBRANCH  14  23
ENDBRANCH   1  17
BRANCH   2  26
ATOM     26  C   UNL     1       2.253  -6.131  -0.378  0.00  0.00    +0.099 C 
ATOM     27  N   UNL     1       2.698  -5.622  -1.291  0.00  0.00    -0.191 NA
ENDBRANCH   2  26
TORSDOF 6
