REMARK  Name = ZINC20202419
REMARK  12 active torsions:
REMARK  status: ('A' for Active; 'I' for Inactive)
REMARK    1  A    between atoms: C_1  and  C_2
REMARK    2  A    between atoms: C_3  and  C_12
REMARK    3  A    between atoms: C_4  and  C_11
REMARK    4  A    between atoms: C_7  and  C_8
REMARK    5  A    between atoms: C_8  and  C_10
REMARK    6  A    between atoms: N_14  and  C_15
REMARK    7  A    between atoms: N_20  and  C_22
REMARK    8  A    between atoms: C_22  and  C_23
REMARK    9  A    between atoms: C_26  and  C_29
REMARK   10  A    between atoms: C_29  and  C_30
REMARK   11  A    between atoms: C_30  and  C_31
REMARK   12  A    between atoms: C_30  and  C_32
REMARK                            x       y       z     vdW  Elec       q    Type
REMARK                         _______ _______ _______ _____ _____    ______ ____
ROOT
ATOM      1  C   UNL     1      -1.190   0.221  -4.579  0.00  0.00    +0.057 C 
ATOM      2  C   UNL     1      -1.088   1.748  -4.639  0.00  0.00    +0.018 C 
ATOM      3  C   UNL     1      -1.181   2.199  -6.100  0.00  0.00    -0.017 C 
ATOM      4  C   UNL     1      -2.486   1.681  -6.706  0.00  0.00    -0.078 C 
ATOM      5  N   UNL     1      -2.512   0.214  -6.642  0.00  0.00    +0.384 N 
ATOM      6  C   UNL     1      -2.495  -0.225  -5.242  0.00  0.00    -0.056 C 
ATOM      7  H   UNL     1      -1.703  -0.156  -7.119  0.00  0.00    -0.081 HD
ENDROOT
BRANCH   1  10
ATOM      8  C   UNL     1      -0.004  -0.400  -2.543  0.00  0.00    +0.246 C 
ATOM      9  O   UNL     1       1.044  -0.204  -3.128  0.00  0.00    -0.270 OA
ATOM     10  N   UNL     1      -1.177  -0.215  -3.180  0.00  0.00    -0.310 N 
ATOM     11  H   UNL     1      -2.013  -0.371  -2.714  0.00  0.00    +0.149 HD
BRANCH   8  14
ATOM     12  C   UNL     1      -0.018   1.503   0.010  0.00  0.00    +0.047 C 
ATOM     13  C   UNL     1       0.002  -0.004   0.002  0.00  0.00    -0.010 A 
ATOM     14  C   UNL     1       0.008  -0.839  -1.135  0.00  0.00    +0.060 A 
ATOM     15  C   UNL     1       0.028  -2.146  -0.683  0.00  0.00    +0.026 A 
ATOM     16  N   UNL     1       0.034  -2.137   0.658  0.00  0.00    -0.355 N 
ATOM     17  H   UNL     1       0.047  -2.925   1.224  0.00  0.00    +0.166 HD
ATOM     18  C   UNL     1       0.024  -0.832   1.104  0.00  0.00    +0.086 A 
ATOM     19  C   UNL     1       0.041  -3.376  -1.554  0.00  0.00    +0.064 C 
BRANCH  18  20
ATOM     20  C   UNL     1       0.032  -0.415   2.457  0.00  0.00    +0.176 C 
ATOM     21  O   UNL     1       0.018   0.768   2.728  0.00  0.00    -0.291 OA
ATOM     22  C   UNL     1       0.057  -1.440   3.561  0.00  0.00    +0.093 C 
ENDBRANCH  18  20
ENDBRANCH   8  14
ENDBRANCH   1  10
BRANCH   5  23
ATOM     23  C   UNL     1      -3.731  -0.282  -7.295  0.00  0.00    -0.043 C 
BRANCH  23  24
ATOM     24  C   UNL     1      -3.687   0.053  -8.763  0.00  0.00    -0.064 A 
ATOM     25  C   UNL     1      -4.205   1.253  -9.214  0.00  0.00    +0.002 A 
ATOM     26  C   UNL     1      -4.164   1.561 -10.561  0.00  0.00    +0.004 A 
ATOM     27  C   UNL     1      -3.605   0.669 -11.457  0.00  0.00    -0.047 A 
ATOM     28  C   UNL     1      -3.086  -0.530 -11.006  0.00  0.00    +0.004 A 
ATOM     29  C   UNL     1      -3.123  -0.836  -9.659  0.00  0.00    +0.002 A 
BRANCH  27  30
ATOM     30  C   UNL     1      -3.562   1.004 -12.926  0.00  0.00    +0.038 C 
BRANCH  30  31
ATOM     31  C   UNL     1      -2.260   1.742 -13.242  0.00  0.00    -0.013 C 
ATOM     32  C   UNL     1      -1.072   0.807 -13.005  0.00  0.00    +0.007 C 
ATOM     33  C   UNL     1      -2.271   2.192 -14.705  0.00  0.00    +0.007 C 
ENDBRANCH  30  31
ENDBRANCH  27  30
ENDBRANCH  23  24
ENDBRANCH   5  23
TORSDOF 7
