REMARK  Name = ZINC12529146
REMARK  12 active torsions:
REMARK  status: ('A' for Active; 'I' for Inactive)
REMARK    1  A    between atoms: C_1  and  C_2
REMARK    2  A    between atoms: C_2  and  C_3
REMARK    3  A    between atoms: C_2  and  C_4
REMARK    4  A    between atoms: C_11  and  N_14
REMARK    5  A    between atoms: N_14  and  N_15
REMARK    6  A    between atoms: N_15  and  C_16
REMARK    7  A    between atoms: C_19  and  S_25
REMARK    8  A    between atoms: C_21  and  N_22
REMARK    9  A    between atoms: S_25  and  N_28
REMARK   10  A    between atoms: N_28  and  C_29
REMARK   11  A    between atoms: C_34  and  O_35
REMARK   12  A    between atoms: O_35  and  C_36
REMARK                            x       y       z     vdW  Elec       q    Type
REMARK                         _______ _______ _______ _____ _____    ______ ____
ROOT
ATOM      1  C   UNL     1      -0.821  -3.286  -4.733  0.00  0.00    +0.075 A 
ATOM      2  C   UNL     1      -1.903  -3.948  -5.300  0.00  0.00    +0.028 A 
ATOM      3  C   UNL     1      -1.826  -4.404  -6.601  0.00  0.00    +0.031 A 
ATOM      4  C   UNL     1      -0.674  -4.203  -7.339  0.00  0.00    +0.111 A 
ATOM      5  C   UNL     1       0.405  -3.546  -6.777  0.00  0.00    +0.063 A 
ATOM      6  C   UNL     1       0.332  -3.081  -5.479  0.00  0.00    +0.150 A 
ENDROOT
BRANCH   6   7
ATOM      7  N   UNL     1       1.485  -2.371  -4.880  0.00  0.00    +0.058 N 
ATOM      8  O   UNL     1       1.301  -1.410  -4.170  0.00  0.00    -0.126 OA
ATOM      9  O   UNL     1       2.611  -2.752  -5.102  0.00  0.00    -0.126 OA
ENDBRANCH   6   7
BRANCH   4  10
ATOM     10  S   UNL     1      -0.580  -4.788  -8.999  0.00  0.00    +0.073 S 
ATOM     11  O   UNL     1       0.800  -4.957  -9.292  0.00  0.00    -0.150 OA
ATOM     12  O   UNL     1      -1.518  -5.850  -9.109  0.00  0.00    -0.150 OA
BRANCH  10  13
ATOM     13  N   UNL     1      -1.126  -3.570  -9.979  0.00  0.00    -0.213 N 
ATOM     14  H   UNL     1      -1.905  -3.711 -10.540  0.00  0.00    +0.174 HD
BRANCH  13  15
ATOM     15  C   UNL     1      -0.465  -2.337  -9.997  0.00  0.00    +0.090 A 
ATOM     16  C   UNL     1       0.915  -2.285  -9.860  0.00  0.00    +0.028 A 
ATOM     17  C   UNL     1       1.566  -1.066  -9.879  0.00  0.00    +0.002 A 
ATOM     18  C   UNL     1       0.846   0.104 -10.035  0.00  0.00    +0.004 A 
ATOM     19  C   UNL     1      -0.530   0.060 -10.172  0.00  0.00    +0.047 A 
ATOM     20  C   UNL     1      -1.189  -1.158 -10.159  0.00  0.00    +0.142 A 
BRANCH  20  21
ATOM     21  O   UNL     1      -2.541  -1.202 -10.299  0.00  0.00    -0.493 OA
ATOM     22  C   UNL     1      -3.218   0.046 -10.461  0.00  0.00    +0.277 C 
ENDBRANCH  20  21
ENDBRANCH  13  15
ENDBRANCH  10  13
ENDBRANCH   4  10
BRANCH   1  23
ATOM     23  N   UNL     1      -0.896  -2.822  -3.417  0.00  0.00    -0.264 N 
ATOM     24  H   UNL     1      -0.162  -2.312  -3.041  0.00  0.00    +0.170 HD
BRANCH  23  25
ATOM     25  N   UNL     1      -2.030  -3.095  -2.642  0.00  0.00    -0.261 N 
ATOM     26  H   UNL     1      -2.753  -3.627  -3.010  0.00  0.00    +0.170 HD
BRANCH  25  34
ATOM     27  C   UNL     1       0.937  -0.868  -0.018  0.00  0.00    -0.044 A 
ATOM     28  C   UNL     1       0.394  -0.576   1.223  0.00  0.00    +0.006 A 
ATOM     29  C   UNL     1      -0.901  -0.954   1.539  0.00  0.00    +0.024 A 
ATOM     30  C   UNL     1      -1.677  -1.636   0.606  0.00  0.00    +0.043 A 
ATOM     31  N   UNL     1      -2.954  -2.112   0.665  0.00  0.00    -0.280 N 
ATOM     32  C   UNL     1      -3.296  -2.705  -0.465  0.00  0.00    +0.264 C 
ATOM     33  O   UNL     1      -4.370  -3.224  -0.709  0.00  0.00    -0.268 OA
ATOM     34  C   UNL     1      -2.117  -2.622  -1.396  0.00  0.00    +0.116 C 
ATOM     35  C   UNL     1      -1.119  -1.934  -0.664  0.00  0.00    +0.024 A 
ATOM     36  C   UNL     1       0.190  -1.539  -0.966  0.00  0.00    +0.015 A 
ATOM     37  H   UNL     1      -3.536  -2.027   1.436  0.00  0.00    +0.155 HD
BRANCH  27  39
ATOM     38  C   UNL     1       2.463   1.076  -0.223  0.00  0.00    +0.012 C 
ATOM     39  C   UNL     1       2.348  -0.445  -0.337  0.00  0.00    +0.013 C 
ATOM     40  C   UNL     1       3.313  -1.105   0.651  0.00  0.00    +0.012 C 
ENDBRANCH  27  39
ENDBRANCH  25  34
ENDBRANCH  23  25
ENDBRANCH   1  23
TORSDOF 9
