REMARK  Name = ZINC63140037
REMARK  12 active torsions:
REMARK  status: ('A' for Active; 'I' for Inactive)
REMARK    1  A    between atoms: C_1  and  C_2
REMARK    2  A    between atoms: C_2  and  N_3
REMARK    3  A    between atoms: N_3  and  C_4
REMARK    4  A    between atoms: N_3  and  C_6
REMARK    5  A    between atoms: C_4  and  C_5
REMARK    6  A    between atoms: C_6  and  C_7
REMARK    7  A    between atoms: C_7  and  C_8
REMARK    8  A    between atoms: C_8  and  N_9
REMARK    9  A    between atoms: C_29  and  C_31
REMARK   10  A    between atoms: C_34  and  C_37
REMARK   11  A    between atoms: C_37  and  C_38
REMARK   12  A    between atoms: C_37  and  C_39
REMARK                            x       y       z     vdW  Elec       q    Type
REMARK                         _______ _______ _______ _____ _____    ______ ____
ROOT
ATOM      1  N   UNL     1      -4.288  -4.605   0.107  0.00  0.00    -0.291 N 
ATOM      2  C   UNL     1      -5.165  -4.721   1.286  0.00  0.00    +0.203 C 
ATOM      3  C   UNL     1      -6.520  -4.143   0.936  0.00  0.00    +0.234 C 
ATOM      4  O   UNL     1      -7.115  -3.412   1.700  0.00  0.00    -0.274 OA
ATOM      5  N   UNL     1      -7.044  -4.485  -0.287  0.00  0.00    -0.279 N 
ATOM      6  C   UNL     1      -6.261  -5.428  -1.057  0.00  0.00    +0.167 C 
ATOM      7  C   UNL     1      -4.823  -4.975  -1.094  0.00  0.00    +0.237 C 
ATOM      8  O   UNL     1      -4.182  -4.945  -2.123  0.00  0.00    -0.274 OA
ATOM      9  C   UNL     1      -6.768  -5.836  -2.416  0.00  0.00    +0.065 C 
ATOM     10  C   UNL     1      -7.934  -4.972  -2.808  0.00  0.00    -0.034 C 
ATOM     11  C   UNL     1      -8.279  -4.412  -3.960  0.00  0.00    -0.001 A 
ATOM     12  C   UNL     1      -7.667  -4.465  -5.298  0.00  0.00    +0.010 A 
ATOM     13  C   UNL     1      -8.289  -3.748  -6.271  0.00  0.00    +0.001 A 
ATOM     14  C   UNL     1      -9.445  -2.993  -6.050  0.00  0.00    +0.002 A 
ATOM     15  C   UNL     1     -10.077  -2.890  -4.854  0.00  0.00    +0.026 A 
ATOM     16  C   UNL     1      -9.519  -3.603  -3.753  0.00  0.00    +0.043 A 
ATOM     17  N   UNL     1      -9.917  -3.690  -2.520  0.00  0.00    -0.375 N 
ATOM     18  C   UNL     1      -9.004  -4.580  -1.791  0.00  0.00    +0.131 C 
ATOM     19  C   UNL     1      -8.284  -3.830  -0.681  0.00  0.00    +0.133 C 
ATOM     20  H   UNL     1     -10.690  -3.241  -2.142  0.00  0.00    +0.160 HD
ENDROOT
BRANCH  19  21
ATOM     21  C   UNL     1      -7.967  -2.451  -1.199  0.00  0.00    -0.025 A 
ATOM     22  C   UNL     1      -6.856  -2.251  -1.998  0.00  0.00    +0.006 A 
ATOM     23  C   UNL     1      -6.566  -0.986  -2.474  0.00  0.00    +0.004 A 
ATOM     24  C   UNL     1      -7.386   0.079  -2.150  0.00  0.00    -0.045 A 
ATOM     25  C   UNL     1      -8.496  -0.121  -1.352  0.00  0.00    +0.004 A 
ATOM     26  C   UNL     1      -8.789  -1.387  -0.880  0.00  0.00    +0.006 A 
BRANCH  24  27
ATOM     27  C   UNL     1      -7.068   1.458  -2.667  0.00  0.00    +0.013 C 
ATOM     28  C   UNL     1      -8.233   1.963  -3.522  0.00  0.00    +0.012 C 
ATOM     29  C   UNL     1      -6.852   2.408  -1.488  0.00  0.00    +0.012 C 
ENDBRANCH  24  27
ENDBRANCH  19  21
BRANCH   1  30
ATOM     30  C   UNL     1      -2.913  -4.113   0.217  0.00  0.00    +0.106 C 
BRANCH  30  31
ATOM     31  C   UNL     1      -2.901  -2.592   0.048  0.00  0.00    +0.000 C 
BRANCH  31  32
ATOM     32  C   UNL     1      -1.464  -2.078   0.163  0.00  0.00    -0.077 C 
BRANCH  32  33
ATOM     33  N   UNL     1      -1.438  -0.634  -0.107  0.00  0.00    +0.379 N 
ATOM     34  H   UNL     1      -1.863  -0.452  -1.004  0.00  0.00    -0.082 HD
BRANCH  33  36
ATOM     35  C   UNL     1      -2.263   1.562   0.594  0.00  0.00    -0.017 C 
ATOM     36  C   UNL     1      -2.184   0.074   0.941  0.00  0.00    -0.082 C 
ENDBRANCH  33  36
BRANCH  33  37
ATOM     37  C   UNL     1      -0.046  -0.164  -0.121  0.00  0.00    -0.082 C 
ATOM     38  C   UNL     1       0.689  -0.780  -1.313  0.00  0.00    -0.017 C 
ENDBRANCH  33  37
ENDBRANCH  32  33
ENDBRANCH  31  32
ENDBRANCH  30  31
ENDBRANCH   1  30
TORSDOF 8
