REMARK  Name = ZINC66859630
REMARK  5 active torsions:
REMARK  status: ('A' for Active; 'I' for Inactive)
REMARK    1  A    between atoms: C_3  and  C_18
REMARK    2  A    between atoms: C_6  and  C_7
REMARK    3  A    between atoms: C_7  and  N_8
REMARK    4  A    between atoms: N_8  and  C_9
REMARK    5  A    between atoms: C_18  and  N_19
REMARK                            x       y       z     vdW  Elec       q    Type
REMARK                         _______ _______ _______ _____ _____    ______ ____
ROOT
ATOM      1  C   UNL     1      -0.017   1.378   0.010  0.00  0.00    +0.005 A 
ATOM      2  C   UNL     1       1.171   2.086   0.002  0.00  0.00    +0.002 A 
ATOM      3  C   UNL     1       2.377   1.411  -0.013  0.00  0.00    -0.064 A 
ATOM      4  C   UNL     1       2.396   0.029  -0.020  0.00  0.00    +0.002 A 
ATOM      5  C   UNL     1       1.208  -0.679  -0.012  0.00  0.00    +0.005 A 
ATOM      6  C   UNL     1       0.002  -0.004   0.002  0.00  0.00    -0.030 A 
ENDROOT
BRANCH   6   7
ATOM      7  C   UNL     1      -1.293  -0.775   0.011  0.00  0.00    +0.137 C 
BRANCH   7   8
ATOM      8  N   UNL     1      -1.726  -1.018  -1.368  0.00  0.00    -0.337 N 
ATOM      9  H   UNL     1      -1.192  -0.691  -2.108  0.00  0.00    +0.146 HD
BRANCH   8  10
ATOM     10  C   UNL     1      -2.898  -1.713  -1.613  0.00  0.00    +0.071 A 
ATOM     11  C   UNL     1      -3.683  -2.186  -0.540  0.00  0.00    +0.157 A 
ATOM     12  N   UNL     1      -4.787  -2.841  -0.768  0.00  0.00    -0.177 NA
ATOM     13  N   UNL     1      -5.220  -3.091  -2.074  0.00  0.00    -0.242 N 
ATOM     14  H   UNL     1      -6.045  -3.580  -2.222  0.00  0.00    +0.192 HD
ATOM     15  C   UNL     1      -4.502  -2.658  -3.129  0.00  0.00    +0.285 A 
ATOM     16  O   UNL     1      -4.886  -2.879  -4.267  0.00  0.00    -0.265 OA
ATOM     17  C   UNL     1      -3.313  -1.946  -2.912  0.00  0.00    +0.129 A 
ATOM     18 CL   UNL     1      -2.373  -1.370  -4.253  0.00  0.00    -0.076 Cl
ENDBRANCH   8  10
ENDBRANCH   7   8
ENDBRANCH   6   7
BRANCH   3  19
ATOM     19  C   UNL     1       3.672   2.182  -0.022  0.00  0.00    -0.043 C 
BRANCH  19  20
ATOM     20  N   UNL     1       4.106   2.426   1.360  0.00  0.00    +0.382 N 
ATOM     21  C   UNL     1       4.410   1.144   2.009  0.00  0.00    -0.078 C 
ATOM     22  C   UNL     1       5.211   1.374   3.290  0.00  0.00    -0.019 C 
ATOM     23  C   UNL     1       4.271   1.860   4.399  0.00  0.00    -0.002 C 
ATOM     24  C   UNL     1       3.911   3.322   4.129  0.00  0.00    -0.000 C 
ATOM     25  C   UNL     1       5.173   4.080   3.714  0.00  0.00    -0.002 C 
ATOM     26  C   UNL     1       5.062   4.498   2.250  0.00  0.00    -0.019 C 
ATOM     27  C   UNL     1       5.303   3.279   1.352  0.00  0.00    -0.078 C 
ATOM     28  H   UNL     1       3.367   2.890   1.866  0.00  0.00    -0.081 HD
ENDBRANCH  19  20
ENDBRANCH   3  19
TORSDOF 5
