REMARK  Name = ZINC63386128
REMARK  7 active torsions:
REMARK  status: ('A' for Active; 'I' for Inactive)
REMARK    1  A    between atoms: C_1  and  C_2
REMARK    2  A    between atoms: C_5  and  C_36
REMARK    3  A    between atoms: C_6  and  N_8
REMARK    4  A    between atoms: C_9  and  C_11
REMARK    5  A    between atoms: N_22  and  C_24
REMARK    6  A    between atoms: C_24  and  C_25
REMARK    7  A    between atoms: C_25  and  C_26
REMARK                            x       y       z     vdW  Elec       q    Type
REMARK                         _______ _______ _______ _____ _____    ______ ____
ROOT
ATOM      1  C   UNL     1       0.063  -2.707   4.970  0.00  0.00    +0.123 C 
ATOM      2  C   UNL     1      -1.212  -3.587   5.177  0.00  0.00    +0.155 C 
ATOM      3  C   UNL     1      -1.054  -4.287   6.532  0.00  0.00    +0.004 C 
ATOM      4  C   UNL     1      -1.237  -3.361   7.482  0.00  0.00    +0.008 C 
ATOM      5  C   UNL     1      -1.462  -2.108   6.714  0.00  0.00    +0.116 C 
ATOM      6  C   UNL     1      -0.085  -1.666   6.094  0.00  0.00    +0.127 C 
ATOM      7  C   UNL     1      -0.390  -0.271   5.628  0.00  0.00    +0.223 C 
ATOM      8  O   UNL     1       0.188   0.314   4.737  0.00  0.00    -0.275 OA
ATOM      9  N   UNL     1      -1.415   0.233   6.362  0.00  0.00    -0.298 N 
ATOM     10  C   UNL     1      -1.950  -0.823   7.306  0.00  0.00    +0.147 C 
ATOM     11  O   UNL     1      -2.192  -2.539   5.513  0.00  0.00    -0.359 OA
ENDROOT
BRANCH   1  13
ATOM     12  N   UNL     1       1.206  -1.720   3.010  0.00  0.00    -0.285 N 
ATOM     13  C   UNL     1       0.046  -2.044   3.616  0.00  0.00    +0.224 C 
ATOM     14  O   UNL     1      -1.010  -1.802   3.072  0.00  0.00    -0.275 OA
ATOM     15  H   UNL     1       2.051  -1.985   3.407  0.00  0.00    +0.155 HD
BRANCH  12  21
ATOM     16  C   UNL     1      -1.085   1.384  -0.036  0.00  0.00    +0.044 C 
ATOM     17  C   UNL     1       0.093   0.509   0.307  0.00  0.00    -0.049 A 
ATOM     18  C   UNL     1       1.161   0.415  -0.567  0.00  0.00    +0.004 A 
ATOM     19  C   UNL     1       2.244  -0.386  -0.255  0.00  0.00    +0.005 A 
ATOM     20  C   UNL     1       2.262  -1.095   0.930  0.00  0.00    -0.029 A 
ATOM     21  C   UNL     1       1.191  -1.003   1.809  0.00  0.00    +0.037 A 
ATOM     22  C   UNL     1       0.107  -0.193   1.496  0.00  0.00    +0.027 A 
ATOM     23  C   UNL     1       3.442  -1.969   1.268  0.00  0.00    +0.045 C 
ENDBRANCH  12  21
ENDBRANCH   1  13
BRANCH   9  24
ATOM     24  C   UNL     1      -1.906   1.610   6.271  0.00  0.00    +0.112 C 
BRANCH  24  25
ATOM     25  C   UNL     1      -3.009   1.688   5.213  0.00  0.00    +0.052 C 
BRANCH  25  26
ATOM     26  C   UNL     1      -3.514   3.105   5.119  0.00  0.00    -0.040 C 
ATOM     27  C   UNL     1      -3.113   4.055   4.243  0.00  0.00    -0.001 A 
ATOM     28  C   UNL     1      -2.124   4.053   3.158  0.00  0.00    +0.010 A 
ATOM     29  C   UNL     1      -1.938   5.183   2.438  0.00  0.00    +0.001 A 
ATOM     30  C   UNL     1      -2.666   6.352   2.700  0.00  0.00    +0.002 A 
ATOM     31  C   UNL     1      -3.591   6.431   3.680  0.00  0.00    +0.026 A 
ATOM     32  C   UNL     1      -3.868   5.302   4.500  0.00  0.00    +0.043 A 
ATOM     33  N   UNL     1      -4.703   5.130   5.495  0.00  0.00    -0.380 N 
ATOM     34  C   UNL     1      -4.576   3.751   5.980  0.00  0.00    +0.144 C 
ATOM     35  H   UNL     1      -5.307   5.801   5.850  0.00  0.00    +0.160 HD
ENDBRANCH  25  26
ENDBRANCH  24  25
ENDBRANCH   9  24
TORSDOF 5
