REMARK  Name = ZINC00690757
REMARK  7 active torsions:
REMARK  status: ('A' for Active; 'I' for Inactive)
REMARK    1  A    between atoms: C_1  and  N_2
REMARK    2  A    between atoms: N_2  and  C_3
REMARK    3  A    between atoms: N_2  and  N_4
REMARK    4  A    between atoms: C_7  and  C_14
REMARK    5  A    between atoms: C_9  and  C_12
REMARK    6  A    between atoms: C_10  and  N_11
REMARK    7  A    between atoms: C_23  and  C_26
REMARK                            x       y       z     vdW  Elec       q    Type
REMARK                         _______ _______ _______ _____ _____    ______ ____
ROOT
ATOM      1  N   UNL     1       3.954  -3.003  -0.389  0.00  0.00    -0.223 N 
ATOM      2  C   UNL     1       3.650  -2.842  -1.714  0.00  0.00    +0.037 C 
ATOM      3  C   UNL     1       2.436  -2.388  -2.091  0.00  0.00    +0.026 C 
ATOM      4  C   UNL     1       1.384  -2.047  -1.066  0.00  0.00    +0.097 C 
ATOM      5  C   UNL     1       1.704  -2.664   0.264  0.00  0.00    +0.078 C 
ATOM      6  C   UNL     1       2.955  -3.106   0.549  0.00  0.00    +0.117 C 
ATOM      7  C   UNL     1       2.116  -2.216  -3.449  0.00  0.00    +0.162 C 
ATOM      8  O   UNL     1       1.009  -1.819  -3.755  0.00  0.00    -0.292 OA
ATOM      9  C   UNL     1       3.118  -2.515  -4.530  0.00  0.00    +0.088 C 
ATOM     10  C   UNL     1       4.530  -2.303  -3.973  0.00  0.00    +0.032 C 
ATOM     11  C   UNL     1       4.702  -3.190  -2.738  0.00  0.00    +0.061 C 
ENDROOT
BRANCH   4  12
ATOM     12  C   UNL     1       1.312  -0.549  -0.911  0.00  0.00    -0.035 A 
ATOM     13  C   UNL     1       0.135   0.119  -1.196  0.00  0.00    +0.004 A 
ATOM     14  C   UNL     1       0.069   1.492  -1.054  0.00  0.00    +0.000 A 
ATOM     15  C   UNL     1       1.179   2.198  -0.628  0.00  0.00    +0.000 A 
ATOM     16  C   UNL     1       2.355   1.529  -0.343  0.00  0.00    +0.000 A 
ATOM     17  C   UNL     1       2.421   0.156  -0.485  0.00  0.00    +0.004 A 
ENDBRANCH   4  12
BRANCH  10  18
ATOM     18  C   UNL     1       5.548  -2.684  -5.016  0.00  0.00    -0.044 A 
ATOM     19  C   UNL     1       5.569  -3.969  -5.525  0.00  0.00    +0.004 A 
ATOM     20  C   UNL     1       6.500  -4.318  -6.485  0.00  0.00    +0.000 A 
ATOM     21  C   UNL     1       7.417  -3.384  -6.930  0.00  0.00    +0.000 A 
ATOM     22  C   UNL     1       7.400  -2.100  -6.417  0.00  0.00    +0.000 A 
ATOM     23  C   UNL     1       6.466  -1.751  -5.460  0.00  0.00    +0.004 A 
ENDBRANCH  10  18
BRANCH   1  25
ATOM     24  C   UNL     1       5.904  -4.287  -0.485  0.00  0.00    +0.128 C 
ATOM     25  N   UNL     1       5.261  -3.060   0.004  0.00  0.00    -0.227 NA
ATOM     26  C   UNL     1       5.997  -1.868  -0.439  0.00  0.00    +0.128 C 
ENDBRANCH   1  25
BRANCH   6  27
ATOM     27  N   UNL     1       3.224  -3.659   1.778  0.00  0.00    -0.344 N 
ATOM     28  H   UNL     1       4.075  -4.096   1.938  0.00  0.00    +0.144 HD
ATOM     29  H   UNL     1       2.562  -3.613   2.486  0.00  0.00    +0.144 HD
ENDBRANCH   6  27
BRANCH   5  30
ATOM     30  C   UNL     1       0.673  -2.787   1.250  0.00  0.00    +0.099 C 
ATOM     31  N   UNL     1      -0.145  -2.885   2.032  0.00  0.00    -0.191 NA
ENDBRANCH   5  30
TORSDOF 5
