REMARK  Name = ZINC01779810
REMARK  14 active torsions:
REMARK  status: ('A' for Active; 'I' for Inactive)
REMARK    1  A    between atoms: C_1  and  C_2
REMARK    2  A    between atoms: C_2  and  C_3
REMARK    3  A    between atoms: C_2  and  C_4
REMARK    4  A    between atoms: C_8  and  C_25
REMARK    5  A    between atoms: C_9  and  N_10
REMARK    6  A    between atoms: C_11  and  C_13
REMARK    7  A    between atoms: C_13  and  O_14
REMARK    8  A    between atoms: O_14  and  C_15
REMARK    9  A    between atoms: C_20  and  C_21
REMARK   10  A    between atoms: C_21  and  C_22
REMARK   11  A    between atoms: C_21  and  C_23
REMARK   12  A    between atoms: C_21  and  C_24
REMARK   13  A    between atoms: C_25  and  C_26
REMARK   14  A    between atoms: C_25  and  C_27
REMARK                            x       y       z     vdW  Elec       q    Type
REMARK                         _______ _______ _______ _____ _____    ______ ____
ROOT
ATOM      1  N   UNL     1       1.458   0.290   0.589  0.00  0.00    -0.282 N 
ATOM      2  C   UNL     1       0.748  -0.845   0.750  0.00  0.00    +0.255 C 
ATOM      3  O   UNL     1      -0.447  -0.847   0.542  0.00  0.00    -0.272 OA
ATOM      4  H   UNL     1       2.421   0.278   0.697  0.00  0.00    +0.155 HD
ENDROOT
BRANCH   1  10
ATOM      5  C   UNL     1      -0.193   1.979   1.097  0.00  0.00    -0.023 A 
ATOM      6  C   UNL     1      -0.832   3.161   0.777  0.00  0.00    +0.006 A 
ATOM      7  C   UNL     1      -0.488   3.845  -0.374  0.00  0.00    +0.001 A 
ATOM      8  C   UNL     1       0.500   3.353  -1.206  0.00  0.00    +0.006 A 
ATOM      9  C   UNL     1       1.147   2.174  -0.890  0.00  0.00    -0.023 A 
ATOM     10  C   UNL     1       0.804   1.484   0.266  0.00  0.00    +0.040 A 
BRANCH   5  12
ATOM     11  C   UNL     1       0.338   1.665   3.499  0.00  0.00    +0.012 C 
ATOM     12  C   UNL     1      -0.572   1.230   2.348  0.00  0.00    +0.015 C 
ATOM     13  C   UNL     1      -2.028   1.538   2.705  0.00  0.00    +0.012 C 
ENDBRANCH   5  12
BRANCH   9  14
ATOM     14  C   UNL     1       2.223   1.637  -1.798  0.00  0.00    +0.015 C 
ATOM     15  C   UNL     1       1.635   1.375  -3.186  0.00  0.00    +0.012 C 
ATOM     16  C   UNL     1       3.355   2.661  -1.908  0.00  0.00    +0.012 C 
ENDBRANCH   9  14
ENDBRANCH   1  10
BRANCH   2  17
ATOM     17  C   UNL     1       1.439  -2.110   1.188  0.00  0.00    +0.324 C 
BRANCH  17  18
ATOM     18  O   UNL     1       0.481  -3.166   1.286  0.00  0.00    -0.482 OA
BRANCH  18  19
ATOM     19  C   UNL     1       0.944  -4.385   1.672  0.00  0.00    +0.125 A 
ATOM     20  C   UNL     1       2.293  -4.561   1.946  0.00  0.00    +0.046 A 
ATOM     21  C   UNL     1       2.759  -5.799   2.343  0.00  0.00    +0.004 A 
ATOM     22  C   UNL     1       1.885  -6.864   2.458  0.00  0.00    +0.001 A 
ATOM     23  C   UNL     1       0.542  -6.692   2.181  0.00  0.00    +0.008 A 
ATOM     24  C   UNL     1       0.069  -5.455   1.788  0.00  0.00    -0.000 A 
BRANCH  24  25
ATOM     25  C   UNL     1      -1.395  -5.268   1.485  0.00  0.00    -0.009 C 
ATOM     26  C   UNL     1      -2.131  -6.594   1.689  0.00  0.00    +0.015 C 
ATOM     27  C   UNL     1      -1.980  -4.211   2.424  0.00  0.00    +0.015 C 
ATOM     28  C   UNL     1      -1.562  -4.811   0.035  0.00  0.00    +0.015 C 
ENDBRANCH  24  25
ENDBRANCH  18  19
ENDBRANCH  17  18
ENDBRANCH   2  17
TORSDOF 7
