REMARK  Name = ZINC40116334
REMARK  6 active torsions:
REMARK  status: ('A' for Active; 'I' for Inactive)
REMARK    1  A    between atoms: C_6  and  C_10
REMARK    2  A    between atoms: C_10  and  C_11
REMARK    3  A    between atoms: C_11  and  N_12
REMARK    4  A    between atoms: C_13  and  C_15
REMARK    5  A    between atoms: C_15  and  O_16
REMARK    6  A    between atoms: O_16  and  C_17
REMARK                            x       y       z     vdW  Elec       q    Type
REMARK                         _______ _______ _______ _____ _____    ______ ____
ROOT
ATOM      1  N   UNL     1       4.765  -5.042   1.361  0.00  0.00    -0.312 N 
ATOM      2  C   UNL     1       5.205  -5.579   2.516  0.00  0.00    +0.251 C 
ATOM      3  O   UNL     1       4.989  -5.016   3.568  0.00  0.00    -0.272 OA
ATOM      4  H   UNL     1       4.938  -5.492   0.520  0.00  0.00    +0.149 HD
ENDROOT
BRANCH   1   5
ATOM      5  C   UNL     1       4.026  -3.777   1.376  0.00  0.00    +0.110 C 
BRANCH   5   6
ATOM      6  C   UNL     1       3.645  -3.391  -0.054  0.00  0.00    +0.073 C 
BRANCH   6  12
ATOM      7  C   UNL     1      -0.016   1.356   0.009  0.00  0.00    +0.005 A 
ATOM      8  C   UNL     1       1.194   2.068   0.002  0.00  0.00    +0.018 A 
ATOM      9  C   UNL     1       2.372   1.409  -0.013  0.00  0.00    +0.092 A 
ATOM     10  N   UNL     1       2.405   0.045  -0.021  0.00  0.00    -0.308 N 
ATOM     11  C   UNL     1       3.434  -0.856  -0.037  0.00  0.00    +0.113 A 
ATOM     12  C   UNL     1       2.885  -2.090  -0.039  0.00  0.00    +0.036 A 
ATOM     13  N   UNL     1       1.556  -1.965  -0.025  0.00  0.00    -0.343 N 
ATOM     14  C   UNL     1       1.240  -0.678  -0.014  0.00  0.00    +0.115 A 
ATOM     15  C   UNL     1       0.002  -0.004   0.002  0.00  0.00    +0.045 A 
ATOM     16  H   UNL     1       0.922  -2.699  -0.023  0.00  0.00    +0.167 HD
ENDBRANCH   6  12
ENDBRANCH   5   6
ENDBRANCH   1   5
BRANCH   2  17
ATOM     17  C   UNL     1       5.965  -6.880   2.500  0.00  0.00    +0.324 C 
BRANCH  17  18
ATOM     18  O   UNL     1       6.321  -7.240   3.837  0.00  0.00    -0.483 OA
BRANCH  18  19
ATOM     19  C   UNL     1       7.016  -8.397   4.000  0.00  0.00    +0.122 A 
ATOM     20  C   UNL     1       7.351  -9.164   2.880  0.00  0.00    +0.046 A 
ATOM     21  C   UNL     1       8.046 -10.326   3.011  0.00  0.00    +0.012 A 
ATOM     22  C   UNL     1       8.435 -10.765   4.289  0.00  0.00    -0.017 A 
ATOM     23  C   UNL     1       9.155 -11.960   4.460  0.00  0.00    +0.023 A 
ATOM     24  C   UNL     1       9.516 -12.355   5.712  0.00  0.00    +0.018 A 
ATOM     25  C   UNL     1       9.183 -11.591   6.830  0.00  0.00    +0.016 A 
ATOM     26  C   UNL     1       8.486 -10.429   6.702  0.00  0.00    +0.010 A 
ATOM     27  C   UNL     1       8.097  -9.989   5.425  0.00  0.00    -0.014 A 
ATOM     28  C   UNL     1       7.382  -8.791   5.255  0.00  0.00    +0.054 A 
ATOM     29 BR   UNL     1      10.484 -13.964   5.938  0.00  0.00    -0.050 Br
ENDBRANCH  18  19
ENDBRANCH  17  18
ENDBRANCH   2  17
TORSDOF 6
