REMARK  Name = ZINC43610456
REMARK  5 active torsions:
REMARK  status: ('A' for Active; 'I' for Inactive)
REMARK    1  A    between atoms: C_1  and  C_2
REMARK    2  A    between atoms: C_5  and  C_7
REMARK    3  A    between atoms: C_7  and  C_9
REMARK    4  A    between atoms: C_7  and  N_16
REMARK    5  A    between atoms: N_16  and  C_17
REMARK                            x       y       z     vdW  Elec       q    Type
REMARK                         _______ _______ _______ _____ _____    ______ ____
ROOT
ATOM      1  C   UNL     1       1.684  -3.245  -0.023  0.00  0.00    +0.027 C 
ENDROOT
BRANCH   1   2
ATOM      2  C   UNL     1       2.184  -3.476  -1.425  0.00  0.00    -0.041 A 
ATOM      3  C   UNL     1       3.437  -3.024  -1.796  0.00  0.00    +0.003 A 
ATOM      4  C   UNL     1       3.895  -3.236  -3.083  0.00  0.00    +0.000 A 
ATOM      5  C   UNL     1       3.102  -3.901  -3.999  0.00  0.00    +0.001 A 
ATOM      6  C   UNL     1       1.850  -4.353  -3.629  0.00  0.00    +0.014 A 
ATOM      7  C   UNL     1       1.393  -4.146  -2.340  0.00  0.00    +0.015 A 
ATOM      8  I   UNL     1      -0.502  -4.840  -1.776  0.00  0.00    -0.044 I 
ENDBRANCH   1   2
BRANCH   1  13
ATOM      9  C   UNL     1      -0.018   1.503   0.010  0.00  0.00    +0.086 C 
ATOM     10  C   UNL     1       0.002  -0.004   0.002  0.00  0.00    +0.102 A 
ATOM     11  C   UNL     1      -1.078  -0.805   0.003  0.00  0.00    +0.044 A 
ATOM     12  C   UNL     1      -0.601  -2.136  -0.007  0.00  0.00    +0.043 A 
ATOM     13  C   UNL     1       0.742  -2.069  -0.013  0.00  0.00    +0.096 A 
ATOM     14  O   UNL     1       1.102  -0.775  -0.013  0.00  0.00    -0.466 OA
ENDBRANCH   1  13
BRANCH   1  15
ATOM     15  N   UNL     1       2.822  -2.969   0.864  0.00  0.00    +0.386 N 
ATOM     16  C   UNL     1       2.349  -2.862   2.250  0.00  0.00    -0.099 C 
ATOM     17  H   UNL     1       3.493  -3.720   0.794  0.00  0.00    -0.085 HD
ATOM     18  H   UNL     1       3.259  -2.101   0.590  0.00  0.00    -0.085 HD
ENDBRANCH   1  15
TORSDOF 3
