REMARK  Name = ZINC09793911
REMARK  14 active torsions:
REMARK  status: ('A' for Active; 'I' for Inactive)
REMARK    1  A    between atoms: C_1  and  C_2
REMARK    2  A    between atoms: C_2  and  C_3
REMARK    3  A    between atoms: C_3  and  C_4
REMARK    4  A    between atoms: C_4  and  N_5
REMARK    5  A    between atoms: C_9  and  S_29
REMARK    6  A    between atoms: C_13  and  C_14
REMARK    7  A    between atoms: C_14  and  O_15
REMARK    8  A    between atoms: O_15  and  C_16
REMARK    9  A    between atoms: C_16  and  C_18
REMARK   10  A    between atoms: C_19  and  C_28
REMARK   11  A    between atoms: C_20  and  C_27
REMARK   12  A    between atoms: C_22  and  N_23
REMARK   13  A    between atoms: C_24  and  C_26
REMARK   14  A    between atoms: S_29  and  N_32
REMARK                            x       y       z     vdW  Elec       q    Type
REMARK                         _______ _______ _______ _____ _____    ______ ____
ROOT
ATOM      1  N   UNL     1      -1.101  -3.005  -3.207  0.00  0.00    -0.325 N 
ATOM      2  C   UNL     1      -0.687  -3.490  -4.431  0.00  0.00    +0.069 A 
ATOM      3  C   UNL     1      -1.347  -3.960  -5.559  0.00  0.00    +0.030 A 
ATOM      4  C   UNL     1      -0.619  -4.391  -6.647  0.00  0.00    +0.030 A 
ATOM      5  C   UNL     1       0.768  -4.358  -6.622  0.00  0.00    +0.107 A 
ATOM      6  C   UNL     1       1.435  -3.899  -5.521  0.00  0.00    +0.058 A 
ATOM      7  C   UNL     1       0.717  -3.457  -4.407  0.00  0.00    +0.091 A 
ATOM      8  N   UNL     1       1.080  -2.958  -3.197  0.00  0.00    -0.229 NA
ATOM      9  C   UNL     1       0.016  -2.691  -2.497  0.00  0.00    +0.149 A 
ENDROOT
BRANCH   5  10
ATOM     10  S   UNL     1       1.679  -4.913  -8.024  0.00  0.00    +0.056 S 
ATOM     11  O   UNL     1       2.963  -5.293  -7.550  0.00  0.00    -0.153 OA
ATOM     12  O   UNL     1       0.832  -5.810  -8.730  0.00  0.00    -0.153 OA
BRANCH  10  13
ATOM     13  N   UNL     1       1.907  -3.603  -9.011  0.00  0.00    -0.204 NA
ATOM     14  H   UNL     1       2.696  -3.550  -9.572  0.00  0.00    +0.144 HD
ATOM     15  H   UNL     1       1.252  -2.888  -9.026  0.00  0.00    +0.144 HD
ENDBRANCH  10  13
ENDBRANCH   5  10
BRANCH   1  16
ATOM     16  C   UNL     1      -2.487  -2.853  -2.757  0.00  0.00    +0.123 C 
BRANCH  16  17
ATOM     17  C   UNL     1      -3.000  -1.464  -3.145  0.00  0.00    +0.021 C 
BRANCH  17  19
ATOM     18  C   UNL     1      -4.960   0.083  -3.062  0.00  0.00    +0.004 C 
ATOM     19  C   UNL     1      -4.447  -1.306  -2.675  0.00  0.00    -0.002 C 
ENDBRANCH  17  19
ENDBRANCH  16  17
ENDBRANCH   1  16
BRANCH   9  20
ATOM     20  C   UNL     1       0.021  -2.122  -1.102  0.00  0.00    +0.306 C 
BRANCH  20  21
ATOM     21  O   UNL     1       0.001  -0.672  -1.170  0.00  0.00    -0.453 OA
BRANCH  21  22
ATOM     22  C   UNL     1       0.002  -0.004   0.002  0.00  0.00    +0.342 C 
ATOM     23  O   UNL     1       0.020  -0.618   1.052  0.00  0.00    -0.245 OA
BRANCH  22  24
ATOM     24  C   UNL     1      -0.018   1.460   0.010  0.00  0.00    +0.091 A 
ATOM     25  C   UNL     1      -1.257   2.201   0.020  0.00  0.00    -0.025 A 
ATOM     26  C   UNL     1      -1.170   3.543   0.031  0.00  0.00    -0.008 A 
ATOM     27  S   UNL     1       0.586   3.841   0.016  0.00  0.00    -0.078 S 
ATOM     28  C   UNL     1       1.156   2.206   0.003  0.00  0.00    +0.086 A 
ATOM     29  C   UNL     1      -2.289   4.552   0.048  0.00  0.00    +0.052 C 
ATOM     30  C   UNL     1      -2.591   1.500   0.022  0.00  0.00    +0.045 C 
BRANCH  28  31
ATOM     31  N   UNL     1       2.465   1.751  -0.012  0.00  0.00    -0.280 N 
ATOM     32  C   UNL     1       3.485   2.633  -0.017  0.00  0.00    +0.214 C 
ATOM     33  O   UNL     1       3.257   3.824  -0.009  0.00  0.00    -0.276 OA
ATOM     34  C   UNL     1       4.908   2.138  -0.033  0.00  0.00    +0.109 C 
ATOM     35  H   UNL     1       2.648   0.799  -0.019  0.00  0.00    +0.155 HD
ENDBRANCH  28  31
ENDBRANCH  22  24
ENDBRANCH  21  22
ENDBRANCH  20  21
ENDBRANCH   9  20
TORSDOF 10
