REMARK  Name = ZINC04980346
REMARK  4 active torsions:
REMARK  status: ('A' for Active; 'I' for Inactive)
REMARK    1  A    between atoms: C_1  and  C_2
REMARK    2  A    between atoms: N_7  and  C_9
REMARK    3  A    between atoms: N_20  and  S_21
REMARK    4  A    between atoms: S_21  and  C_24
REMARK                            x       y       z     vdW  Elec       q    Type
REMARK                         _______ _______ _______ _____ _____    ______ ____
ROOT
ATOM      1  C   UNL     1       0.430  -2.792   2.200  0.00  0.00    +0.109 C 
ATOM      2  C   UNL     1      -0.029  -2.243   3.354  0.00  0.00    +0.210 C 
ATOM      3  C   UNL     1      -0.494  -3.080   4.468  0.00  0.00    +0.034 A 
ATOM      4  C   UNL     1      -1.201  -2.515   5.531  0.00  0.00    +0.012 A 
ATOM      5  C   UNL     1      -1.629  -3.314   6.573  0.00  0.00    +0.001 A 
ATOM      6  C   UNL     1      -1.366  -4.674   6.579  0.00  0.00    +0.001 A 
ATOM      7  C   UNL     1      -0.669  -5.256   5.537  0.00  0.00    +0.012 A 
ATOM      8  C   UNL     1      -0.231  -4.467   4.479  0.00  0.00    +0.035 A 
ATOM      9  C   UNL     1       0.513  -5.051   3.342  0.00  0.00    +0.215 C 
ATOM     10  O   UNL     1       1.124  -6.097   3.436  0.00  0.00    -0.285 OA
ATOM     11  C   UNL     1       0.456  -4.263   2.061  0.00  0.00    +0.157 C 
ATOM     12  N   UNL     1       0.435  -4.843   0.893  0.00  0.00    -0.123 NA
ATOM     13  O   UNL     1      -0.060  -0.891   3.480  0.00  0.00    -0.285 OA
ENDROOT
BRANCH   1  19
ATOM     14  C   UNL     1      -0.869  -0.266  -1.746  0.00  0.00    +0.009 C 
ATOM     15  C   UNL     1      -0.013  -1.308  -1.023  0.00  0.00    +0.003 C 
ATOM     16  C   UNL     1       1.434  -1.208  -1.511  0.00  0.00    +0.006 C 
ATOM     17  C   UNL     1       2.284  -2.272  -0.813  0.00  0.00    +0.019 C 
ATOM     18  C   UNL     1       2.266  -2.023   0.699  0.00  0.00    +0.105 C 
ATOM     19  N   UNL     1       0.869  -1.973   1.153  0.00  0.00    -0.325 N 
ATOM     20  C   UNL     1      -0.058  -1.049   0.486  0.00  0.00    +0.108 C 
ENDBRANCH   1  19
BRANCH  12  21
ATOM     21  S   UNL     1       0.465  -6.496   0.789  0.00  0.00    +0.099 S 
ATOM     22  O   UNL     1       1.734  -6.910   1.278  0.00  0.00    -0.146 OA
ATOM     23  O   UNL     1      -0.756  -6.961   1.349  0.00  0.00    -0.146 OA
BRANCH  21  24
ATOM     24  C   UNL     1       0.425  -6.911  -0.923  0.00  0.00    +0.112 A 
ATOM     25  C   UNL     1      -0.787  -7.093  -1.562  0.00  0.00    +0.029 A 
ATOM     26  C   UNL     1      -0.819  -7.419  -2.905  0.00  0.00    +0.002 A 
ATOM     27  C   UNL     1       0.362  -7.563  -3.609  0.00  0.00    +0.000 A 
ATOM     28  C   UNL     1       1.574  -7.380  -2.970  0.00  0.00    +0.002 A 
ATOM     29  C   UNL     1       1.606  -7.050  -1.628  0.00  0.00    +0.029 A 
ENDBRANCH  21  24
ENDBRANCH  12  21
TORSDOF 3
