REMARK  Name = ZINC35671629
REMARK  11 active torsions:
REMARK  status: ('A' for Active; 'I' for Inactive)
REMARK    1  A    between atoms: C_1  and  O_2
REMARK    2  A    between atoms: O_2  and  C_3
REMARK    3  A    between atoms: C_6  and  C_9
REMARK    4  A    between atoms: C_9  and  C_11
REMARK    5  A    between atoms: C_9  and  N_29
REMARK    6  A    between atoms: C_11  and  N_12
REMARK    7  A    between atoms: N_12  and  C_13
REMARK    8  A    between atoms: C_14  and  C_27
REMARK    9  A    between atoms: C_16  and  C_18
REMARK   10  A    between atoms: C_18  and  O_19
REMARK   11  A    between atoms: O_19  and  C_20
REMARK                            x       y       z     vdW  Elec       q    Type
REMARK                         _______ _______ _______ _____ _____    ______ ____
ROOT
ATOM      1  N   UNL     1       4.707  -1.756  -3.656  0.00  0.00    -0.314 N 
ATOM      2  H   UNL     1       4.354  -0.869  -3.826  0.00  0.00    +0.149 HD
ENDROOT
BRANCH   1   3
ATOM      3  C   UNL     1       6.016  -1.911  -3.249  0.00  0.00    +0.225 A 
ATOM      4  C   UNL     1       6.941  -0.903  -3.035  0.00  0.00    +0.201 A 
ATOM      5  N   UNL     1       8.098  -1.508  -2.645  0.00  0.00    -0.198 NA
ATOM      6  C   UNL     1       7.907  -2.792  -2.617  0.00  0.00    +0.237 A 
ATOM      7  O   UNL     1       6.643  -3.070  -2.976  0.00  0.00    -0.421 OA
BRANCH   4   8
ATOM      8  C   UNL     1       6.725   0.504  -3.195  0.00  0.00    +0.124 C 
ATOM      9  N   UNL     1       6.553   1.619  -3.322  0.00  0.00    -0.189 NA
ENDBRANCH   4   8
BRANCH   6  10
ATOM     10  C   UNL     1       8.945  -3.815  -2.235  0.00  0.00    +0.324 C 
BRANCH  10  11
ATOM     11  O   UNL     1       8.883  -4.054  -0.827  0.00  0.00    -0.483 OA
BRANCH  11  12
ATOM     12  C   UNL     1       9.759  -4.957  -0.315  0.00  0.00    +0.121 A 
ATOM     13  C   UNL     1      10.664  -5.597  -1.150  0.00  0.00    +0.047 A 
ATOM     14  C   UNL     1      11.554  -6.516  -0.628  0.00  0.00    +0.023 A 
ATOM     15  C   UNL     1      11.543  -6.798   0.727  0.00  0.00    +0.041 A 
ATOM     16  C   UNL     1      10.641  -6.161   1.561  0.00  0.00    +0.023 A 
ATOM     17  C   UNL     1       9.754  -5.237   1.043  0.00  0.00    +0.047 A 
ATOM     18 CL   UNL     1      12.662  -7.953   1.381  0.00  0.00    -0.084 Cl
ENDBRANCH  11  12
ENDBRANCH  10  11
ENDBRANCH   6  10
ENDBRANCH   1   3
BRANCH   1  19
ATOM     19  C   UNL     1       3.851  -2.932  -3.830  0.00  0.00    +0.094 C 
BRANCH  19  20
ATOM     20  C   UNL     1       2.425  -2.481  -4.154  0.00  0.00    -0.020 C 
BRANCH  20  21
ATOM     21  N   UNL     1       1.585  -3.659  -4.408  0.00  0.00    +0.385 N 
ATOM     22  C   UNL     1       2.103  -4.386  -5.573  0.00  0.00    -0.078 C 
ATOM     23  C   UNL     1       1.280  -5.657  -5.793  0.00  0.00    -0.019 C 
ATOM     24  C   UNL     1      -0.183  -5.277  -6.036  0.00  0.00    -0.004 C 
ATOM     25  C   UNL     1      -0.691  -4.455  -4.847  0.00  0.00    -0.019 C 
ATOM     26  C   UNL     1       0.205  -3.228  -4.663  0.00  0.00    -0.078 C 
ATOM     27  H   UNL     1       1.604  -4.264  -3.601  0.00  0.00    -0.081 HD
ENDBRANCH  20  21
BRANCH  20  31
ATOM     28  C   UNL     1       0.840  -0.286  -0.849  0.00  0.00    +0.120 A 
ATOM     29  C   UNL     1       1.341   0.387  -1.954  0.00  0.00    +0.046 A 
ATOM     30  C   UNL     1       1.853  -0.325  -3.021  0.00  0.00    +0.005 A 
ATOM     31  C   UNL     1       1.866  -1.707  -2.989  0.00  0.00    -0.059 A 
ATOM     32  C   UNL     1       1.367  -2.380  -1.889  0.00  0.00    +0.005 A 
ATOM     33  C   UNL     1       0.859  -1.672  -0.817  0.00  0.00    +0.046 A 
BRANCH  28  35
ATOM     34  C   UNL     1       0.348   1.838   0.100  0.00  0.00    +0.277 C 
ATOM     35  O   UNL     1       0.336   0.413   0.203  0.00  0.00    -0.495 OA
ENDBRANCH  28  35
ENDBRANCH  20  31
ENDBRANCH  19  20
ENDBRANCH   1  19
TORSDOF 10
