REMARK  Name = ZINC19826109
REMARK  10 active torsions:
REMARK  status: ('A' for Active; 'I' for Inactive)
REMARK    1  A    between atoms: C_1  and  C_2
REMARK    2  A    between atoms: C_5  and  N_8
REMARK    3  A    between atoms: C_9  and  C_33
REMARK    4  A    between atoms: C_12  and  S_13
REMARK    5  A    between atoms: S_13  and  C_14
REMARK    6  A    between atoms: C_14  and  C_15
REMARK    7  A    between atoms: N_17  and  N_18
REMARK    8  A    between atoms: C_19  and  C_20
REMARK    9  A    between atoms: C_19  and  C_21
REMARK   10  A    between atoms: C_24  and  C_27
REMARK                            x       y       z     vdW  Elec       q    Type
REMARK                         _______ _______ _______ _____ _____    ______ ____
ROOT
ATOM      1  C   UNL     1      11.005  -1.039  -0.103  0.00  0.00    +0.174 C 
ENDROOT
BRANCH   1   2
ATOM      2  C   UNL     1       9.687  -0.308  -0.088  0.00  0.00    +0.242 C 
ATOM      3  O   UNL     1       9.667   0.905  -0.082  0.00  0.00    -0.273 OA
ATOM      4  N   UNL     1       8.531  -1.001  -0.080  0.00  0.00    -0.206 N 
ATOM      5  H   UNL     1       8.550  -2.101  -0.086  0.00  0.00    +0.177 HD
BRANCH   4   6
ATOM      6  N   UNL     1       7.307  -0.322  -0.066  0.00  0.00    -0.185 NA
ATOM      7  C   UNL     1       6.194  -0.990  -0.059  0.00  0.00    +0.063 C 
ATOM      8  C   UNL     1       6.219  -2.496  -0.066  0.00  0.00    +0.068 C 
BRANCH   7   9
ATOM      9  C   UNL     1       4.905  -0.275  -0.044  0.00  0.00    -0.002 A 
ATOM     10  C   UNL     1       4.881   1.123  -0.037  0.00  0.00    +0.010 A 
ATOM     11  C   UNL     1       3.676   1.790  -0.023  0.00  0.00    +0.009 A 
ATOM     12  C   UNL     1       2.481   1.071  -0.015  0.00  0.00    -0.018 A 
ATOM     13  C   UNL     1       2.503  -0.324  -0.017  0.00  0.00    +0.009 A 
ATOM     14  C   UNL     1       3.706  -0.993  -0.036  0.00  0.00    +0.010 A 
BRANCH  12  15
ATOM     15  C   UNL     1       1.184   1.790   0.000  0.00  0.00    -0.018 A 
ATOM     16  C   UNL     1      -0.013   1.076   0.008  0.00  0.00    +0.008 A 
ATOM     17  C   UNL     1      -1.216   1.751   0.017  0.00  0.00    +0.001 A 
ATOM     18  C   UNL     1      -1.236   3.134   0.031  0.00  0.00    +0.000 A 
ATOM     19  C   UNL     1      -0.052   3.849   0.023  0.00  0.00    +0.001 A 
ATOM     20  C   UNL     1       1.158   3.184   0.008  0.00  0.00    +0.008 A 
ENDBRANCH  12  15
ENDBRANCH   7   9
ENDBRANCH   4   6
ENDBRANCH   1   2
BRANCH   1  21
ATOM     21  S   UNL     1      12.360   0.160  -0.110  0.00  0.00    -0.076 S 
BRANCH  21  26
ATOM     22  N   UNL     1      15.060  -0.580  -0.144  0.00  0.00    -0.270 N 
ATOM     23  C   UNL     1      15.763  -1.765  -0.151  0.00  0.00    +0.169 A 
ATOM     24  N   UNL     1      14.880  -2.737  -0.148  0.00  0.00    -0.128 NA
ATOM     25  N   UNL     1      13.691  -2.250  -0.134  0.00  0.00    -0.122 NA
ATOM     26  C   UNL     1      13.739  -0.937  -0.128  0.00  0.00    +0.197 A 
BRANCH  22  31
ATOM     27  C   UNL     1      17.197   4.678  -0.165  0.00  0.00    +0.044 C 
ATOM     28  C   UNL     1      16.629   3.282  -0.160  0.00  0.00    -0.050 A 
ATOM     29  C   UNL     1      15.914   2.832   0.935  0.00  0.00    +0.005 A 
ATOM     30  C   UNL     1      15.392   1.553   0.943  0.00  0.00    +0.026 A 
ATOM     31  C   UNL     1      15.587   0.719  -0.149  0.00  0.00    +0.051 A 
ATOM     32  C   UNL     1      16.311   1.171  -1.245  0.00  0.00    +0.026 A 
ATOM     33  C   UNL     1      16.825   2.453  -1.249  0.00  0.00    +0.005 A 
ENDBRANCH  22  31
BRANCH  23  34
ATOM     34  C   UNL     1      17.234  -1.914  -0.167  0.00  0.00    +0.020 A 
ATOM     35  C   UNL     1      18.052  -0.825   0.138  0.00  0.00    +0.011 A 
ATOM     36  C   UNL     1      19.423  -0.972   0.127  0.00  0.00    +0.001 A 
ATOM     37  C   UNL     1      19.989  -2.193  -0.195  0.00  0.00    +0.000 A 
ATOM     38  C   UNL     1      19.183  -3.276  -0.503  0.00  0.00    +0.001 A 
ATOM     39  C   UNL     1      17.810  -3.143  -0.491  0.00  0.00    +0.011 A 
ENDBRANCH  23  34
ENDBRANCH  21  26
ENDBRANCH   1  21
TORSDOF 8
