REMARK  Name = ZINC20569630
REMARK  12 active torsions:
REMARK  status: ('A' for Active; 'I' for Inactive)
REMARK    1  A    between atoms: C_1  and  C_2
REMARK    2  A    between atoms: C_7  and  C_23
REMARK    3  A    between atoms: C_9  and  C_13
REMARK    4  A    between atoms: C_10  and  C_12
REMARK    5  A    between atoms: C_13  and  O_15
REMARK    6  A    between atoms: O_15  and  C_16
REMARK    7  A    between atoms: C_26  and  O_31
REMARK    8  A    between atoms: C_27  and  O_29
REMARK    9  A    between atoms: O_29  and  C_30
REMARK   10  A    between atoms: C_34  and  C_36
REMARK   11  A    between atoms: C_36  and  O_38
REMARK   12  A    between atoms: O_38  and  C_39
REMARK                            x       y       z     vdW  Elec       q    Type
REMARK                         _______ _______ _______ _____ _____    ______ ____
ROOT
ATOM      1  C   UNL     1       1.942  -3.975   2.181  0.00  0.00    +0.009 C 
ATOM      2  C   UNL     1       2.047  -2.492   1.816  0.00  0.00    +0.013 C 
ATOM      3  C   UNL     1       0.988  -2.140   0.769  0.00  0.00    +0.055 C 
ATOM      4  C   UNL     1       1.126  -0.689   0.378  0.00  0.00    +0.016 C 
ATOM      5  C   UNL     1       2.329  -0.077   0.394  0.00  0.00    +0.025 C 
ATOM      6  C   UNL     1       2.463   1.367  -0.021  0.00  0.00    +0.092 C 
ATOM      7  C   UNL     1       1.133   2.060   0.002  0.00  0.00    +0.065 C 
ATOM      8  C   UNL     1      -0.017   1.363   0.009  0.00  0.00    +0.016 C 
ATOM      9  N   UNL     1       0.002  -0.004   0.002  0.00  0.00    -0.321 N 
ATOM     10  C   UNL     1      -1.335   2.093   0.020  0.00  0.00    +0.061 C 
ATOM     11  C   UNL     1       3.488  -0.765   0.792  0.00  0.00    +0.176 C 
ATOM     12  O   UNL     1       4.557  -0.186   0.787  0.00  0.00    -0.291 OA
ATOM     13  C   UNL     1       3.431  -2.204   1.225  0.00  0.00    +0.171 C 
ATOM     14  H   UNL     1      -0.898  -0.554  -0.310  0.00  0.00    +0.152 HD
ENDROOT
BRANCH   6  15
ATOM     15  C   UNL     1       3.028   1.430  -1.417  0.00  0.00    -0.032 A 
ATOM     16  C   UNL     1       2.346   0.838  -2.464  0.00  0.00    +0.008 A 
ATOM     17  C   UNL     1       2.859   0.894  -3.747  0.00  0.00    +0.049 A 
ATOM     18  C   UNL     1       4.059   1.544  -3.985  0.00  0.00    +0.158 A 
ATOM     19  C   UNL     1       4.746   2.139  -2.931  0.00  0.00    +0.162 A 
ATOM     20  C   UNL     1       4.223   2.085  -1.649  0.00  0.00    +0.054 A 
BRANCH  19  21
ATOM     21  O   UNL     1       5.924   2.779  -3.160  0.00  0.00    -0.491 OA
ATOM     22  C   UNL     1       6.573   3.366  -2.031  0.00  0.00    +0.277 C 
ENDBRANCH  19  21
BRANCH  18  23
ATOM     23  O   UNL     1       4.565   1.600  -5.246  0.00  0.00    -0.503 OA
ATOM     24  H   UNL     1       5.518   2.116  -5.434  0.00  0.00    +0.292 HD
ENDBRANCH  18  23
ENDBRANCH   6  15
BRANCH   7  25
ATOM     25  C   UNL     1       1.087   3.473   0.017  0.00  0.00    +0.338 C 
ATOM     26  O   UNL     1       0.014   4.047   0.037  0.00  0.00    -0.245 OA
BRANCH  25  27
ATOM     27  O   UNL     1       2.233   4.186   0.010  0.00  0.00    -0.458 OA
BRANCH  27  28
ATOM     28  C   UNL     1       2.112   5.609   0.026  0.00  0.00    +0.177 C 
ATOM     29  C   UNL     1       1.979   6.116  -1.424  0.00  0.00    +0.044 C 
ATOM     30  C   UNL     1       1.355   7.485  -1.397  0.00  0.00    +0.004 C 
ATOM     31  C   UNL     1       2.406   8.612  -1.404  0.00  0.00    +0.000 C 
ATOM     32  C   UNL     1       3.606   8.315  -0.484  0.00  0.00    +0.000 C 
ATOM     33  C   UNL     1       3.189   7.709   0.828  0.00  0.00    +0.004 C 
ATOM     34  C   UNL     1       3.269   6.173   0.706  0.00  0.00    +0.044 C 
ENDBRANCH  27  28
ENDBRANCH  25  27
ENDBRANCH   7  25
BRANCH  13  35
ATOM     35  C   UNL     1       4.489  -2.460   2.267  0.00  0.00    +0.318 C 
ATOM     36  O   UNL     1       4.173  -2.842   3.369  0.00  0.00    -0.250 OA
BRANCH  35  37
ATOM     37  O   UNL     1       5.784  -2.264   1.971  0.00  0.00    -0.467 OA
ATOM     38  C   UNL     1       6.748  -2.530   3.023  0.00  0.00    +0.280 C 
ENDBRANCH  35  37
ENDBRANCH  13  35
TORSDOF 8
