REMARK  Name = ZINC64613200
REMARK  4 active torsions:
REMARK  status: ('A' for Active; 'I' for Inactive)
REMARK    1  A    between atoms: C_1  and  C_2
REMARK    2  A    between atoms: C_6  and  C_8
REMARK    3  A    between atoms: C_11  and  C_14
REMARK    4  A    between atoms: C_17  and  C_20
REMARK                            x       y       z     vdW  Elec       q    Type
REMARK                         _______ _______ _______ _____ _____    ______ ____
ROOT
ATOM      1  C   UNL     1       0.053  -2.845   2.460  0.00  0.00    +0.168 C 
ATOM      2  N   UNL     1       0.045  -2.297   3.631  0.00  0.00    -0.067 NA
ATOM      3  O   UNL     1       0.065  -3.280   4.649  0.00  0.00    -0.367 OA
ATOM      4  C   UNL     1       0.086  -4.554   3.987  0.00  0.00    +0.322 C 
ATOM      5  N   UNL     1       0.072  -4.225   2.553  0.00  0.00    -0.287 N 
ATOM      6  H   UNL     1       0.077  -4.855   1.815  0.00  0.00    +0.151 HD
ENDROOT
BRANCH   1  12
ATOM      7  C   UNL     1      -0.018   1.503   0.010  0.00  0.00    +0.044 C 
ATOM      8  C   UNL     1       0.002  -0.004   0.002  0.00  0.00    -0.050 A 
ATOM      9  C   UNL     1       0.006  -0.688  -1.201  0.00  0.00    +0.003 A 
ATOM     10  C   UNL     1       0.025  -2.071  -1.217  0.00  0.00    +0.001 A 
ATOM     11  C   UNL     1       0.040  -2.777  -0.031  0.00  0.00    +0.011 A 
ATOM     12  C   UNL     1       0.036  -2.094   1.185  0.00  0.00    +0.018 A 
ATOM     13  C   UNL     1       0.023  -0.699   1.194  0.00  0.00    +0.014 A 
ENDBRANCH   1  12
BRANCH   4  14
ATOM     14  C   UNL     1       1.357  -5.324   4.354  0.00  0.00    +0.215 C 
ATOM     15  C   UNL     1       1.325  -5.749   5.811  0.00  0.00    +0.037 C 
ATOM     16  C   UNL     1       1.364  -7.094   5.755  0.00  0.00    +0.091 C 
ATOM     17  N   UNL     1       1.414  -7.515   4.464  0.00  0.00    -0.154 NA
ATOM     18  N   UNL     1       1.416  -6.604   3.628  0.00  0.00    -0.174 NA
BRANCH  16  19
ATOM     19  C   UNL     1       1.354  -7.991   6.938  0.00  0.00    +0.002 A 
ATOM     20  C   UNL     1       1.295  -7.453   8.222  0.00  0.00    +0.011 A 
ATOM     21  C   UNL     1       1.286  -8.291   9.318  0.00  0.00    +0.020 A 
ATOM     22  C   UNL     1       1.335  -9.664   9.144  0.00  0.00    +0.041 A 
ATOM     23  C   UNL     1       1.394 -10.203   7.870  0.00  0.00    +0.020 A 
ATOM     24  C   UNL     1       1.397  -9.373   6.767  0.00  0.00    +0.011 A 
ATOM     25 CL   UNL     1       1.325 -10.713  10.527  0.00  0.00    -0.084 Cl
ENDBRANCH  16  19
ENDBRANCH   4  14
TORSDOF 3
