REMARK  Name = ZINC36599218
REMARK  15 active torsions:
REMARK  status: ('A' for Active; 'I' for Inactive)
REMARK    1  A    between atoms: C_1  and  C_2
REMARK    2  A    between atoms: C_5  and  C_7
REMARK    3  A    between atoms: C_7  and  N_8
REMARK    4  A    between atoms: N_8  and  C_9
REMARK    5  A    between atoms: C_9  and  C_11
REMARK    6  A    between atoms: C_9  and  C_19
REMARK    7  A    between atoms: N_21  and  C_22
REMARK    8  A    between atoms: C_22  and  C_23
REMARK    9  A    between atoms: C_22  and  C_24
REMARK   10  A    between atoms: C_22  and  C_25
REMARK   11  A    between atoms: C_25  and  C_26
REMARK   12  A    between atoms: C_26  and  C_27
REMARK   13  A    between atoms: C_26  and  C_28
REMARK   14  A    between atoms: C_26  and  C_29
REMARK   15  A    between atoms: C_30  and  C_32
REMARK                            x       y       z     vdW  Elec       q    Type
REMARK                         _______ _______ _______ _____ _____    ______ ____
ROOT
ATOM      1  C   UNL     1       3.927  -2.185  -0.896  0.00  0.00    +0.196 C 
ENDROOT
BRANCH   1   2
ATOM      2  C   UNL     1       4.267  -0.903  -1.610  0.00  0.00    +0.018 A 
ATOM      3  C   UNL     1       4.591   0.229  -0.884  0.00  0.00    +0.048 A 
ATOM      4  C   UNL     1       4.904   1.406  -1.540  0.00  0.00    +0.020 A 
ATOM      5  C   UNL     1       4.891   1.452  -2.922  0.00  0.00    +0.003 A 
ATOM      6  C   UNL     1       4.566   0.322  -3.648  0.00  0.00    +0.020 A 
ATOM      7  C   UNL     1       4.260  -0.858  -2.993  0.00  0.00    +0.048 A 
ATOM      8 CL   UNL     1       3.861  -2.280  -3.906  0.00  0.00    -0.083 Cl
ATOM      9 CL   UNL     1       4.607   0.172   0.851  0.00  0.00    -0.083 Cl
ENDBRANCH   1   2
BRANCH   1  10
ATOM     10  C   UNL     1       5.055  -2.558   0.032  0.00  0.00    +0.239 C 
ATOM     11  O   UNL     1       4.851  -2.659   1.223  0.00  0.00    -0.273 OA
ATOM     12  N   UNL     1       6.289  -2.777  -0.462  0.00  0.00    -0.308 N 
ATOM     13  H   UNL     1       6.452  -2.696  -1.415  0.00  0.00    +0.149 HD
BRANCH  12  14
ATOM     14  C   UNL     1       7.385  -3.139   0.440  0.00  0.00    +0.030 C 
ATOM     15  C   UNL     1       7.429  -2.155   1.610  0.00  0.00    +0.031 C 
ATOM     16  C   UNL     1       7.161  -4.556   0.973  0.00  0.00    +0.031 C 
BRANCH  14  17
ATOM     17  C   UNL     1       8.711  -3.085  -0.322  0.00  0.00    +0.031 C 
BRANCH  17  18
ATOM     18  C   UNL     1       8.544  -3.758  -1.685  0.00  0.00    -0.036 C 
ATOM     19  C   UNL     1       7.709  -2.859  -2.599  0.00  0.00    +0.010 C 
ATOM     20  C   UNL     1       9.920  -3.986  -2.314  0.00  0.00    +0.010 C 
ATOM     21  C   UNL     1       7.836  -5.103  -1.507  0.00  0.00    +0.010 C 
ENDBRANCH  17  18
ENDBRANCH  14  17
ENDBRANCH  12  14
ENDBRANCH   1  10
BRANCH   1  22
ATOM     22  N   UNL     1       2.697  -2.002  -0.121  0.00  0.00    -0.275 N 
ATOM     23  C   UNL     1       2.136  -3.051   0.511  0.00  0.00    +0.248 C 
ATOM     24  O   UNL     1       1.049  -2.930   1.042  0.00  0.00    -0.270 OA
BRANCH  23  25
ATOM     25  C   UNL     1       2.842  -4.349   0.558  0.00  0.00    +0.037 A 
ATOM     26  C   UNL     1       4.008  -4.540  -0.184  0.00  0.00    +0.013 A 
ATOM     27  C   UNL     1       4.662  -5.754  -0.135  0.00  0.00    +0.001 A 
ATOM     28  C   UNL     1       4.164  -6.781   0.647  0.00  0.00    +0.000 A 
ATOM     29  C   UNL     1       3.008  -6.598   1.385  0.00  0.00    +0.001 A 
ATOM     30  C   UNL     1       2.348  -5.387   1.350  0.00  0.00    +0.013 A 
ENDBRANCH  23  25
BRANCH  22  31
ATOM     31  C   UNL     1       2.078  -0.677  -0.033  0.00  0.00    +0.183 C 
BRANCH  31  36
ATOM     32  C   UNL     1      -1.772  -0.684  -3.292  0.00  0.00    +0.086 C 
ATOM     33  C   UNL     1      -0.998  -0.743  -2.000  0.00  0.00    +0.102 A 
ATOM     34  C   UNL     1      -1.525  -0.902  -0.773  0.00  0.00    +0.045 A 
ATOM     35  C   UNL     1      -0.446  -0.900   0.140  0.00  0.00    +0.046 A 
ATOM     36  C   UNL     1       0.676  -0.740  -0.583  0.00  0.00    +0.122 A 
ATOM     37  O   UNL     1       0.337  -0.651  -1.880  0.00  0.00    -0.463 OA
ENDBRANCH  31  36
ENDBRANCH  22  31
ENDBRANCH   1  22
TORSDOF 9
