REMARK  Name = ZINC38731261
REMARK  7 active torsions:
REMARK  status: ('A' for Active; 'I' for Inactive)
REMARK    1  A    between atoms: C_1  and  C_2
REMARK    2  A    between atoms: C_9  and  C_10
REMARK    3  A    between atoms: C_9  and  C_11
REMARK    4  A    between atoms: C_13  and  N_15
REMARK    5  A    between atoms: C_16  and  C_18
REMARK    6  A    between atoms: C_18  and  C_19
REMARK    7  A    between atoms: C_19  and  C_20
REMARK                            x       y       z     vdW  Elec       q    Type
REMARK                         _______ _______ _______ _____ _____    ______ ____
ROOT
ATOM      1  C   UNL     1       5.074  -0.166   2.590  0.00  0.00    +0.105 C 
ENDROOT
BRANCH   1   2
ATOM      2  C   UNL     1       6.523  -0.305   2.202  0.00  0.00    +0.216 C 
ATOM      3  O   UNL     1       6.824  -0.530   1.049  0.00  0.00    -0.276 OA
ATOM      4  N   UNL     1       7.486  -0.180   3.137  0.00  0.00    -0.298 N 
ATOM      5  C   UNL     1       7.136   0.087   4.540  0.00  0.00    +0.126 C 
ATOM      6  C   UNL     1       7.772  -0.998   5.418  0.00  0.00    +0.125 C 
ATOM      7  N   UNL     1       9.190  -1.125   5.054  0.00  0.00    -0.314 N 
ATOM      8  C   UNL     1       9.540  -1.392   3.652  0.00  0.00    +0.125 C 
ATOM      9  C   UNL     1       8.904  -0.313   2.774  0.00  0.00    +0.126 C 
ATOM     10  C   UNL     1      10.183  -0.996   6.018  0.00  0.00    +0.099 A 
ATOM     11  C   UNL     1       9.830  -0.882   7.359  0.00  0.00    +0.042 A 
ATOM     12  C   UNL     1      10.828  -0.753   8.308  0.00  0.00    +0.005 A 
ATOM     13  C   UNL     1      12.150  -0.744   7.883  0.00  0.00    +0.018 A 
ATOM     14  C   UNL     1      12.428  -0.861   6.536  0.00  0.00    +0.084 A 
ATOM     15  N   UNL     1      11.455  -0.988   5.653  0.00  0.00    -0.350 N 
ATOM     16  H   UNL     1      11.678  -1.073   4.713  0.00  0.00    +0.166 HD
ENDBRANCH   1   2
BRANCH   1  17
ATOM     17  C   UNL     1       4.195  -0.351   1.351  0.00  0.00    +0.105 C 
BRANCH  17  19
ATOM     18  N   UNL     1       1.783  -0.337   0.804  0.00  0.00    -0.312 N 
ATOM     19  C   UNL     1       2.745  -0.211   1.739  0.00  0.00    +0.214 C 
ATOM     20  O   UNL     1       2.445   0.014   2.892  0.00  0.00    -0.276 OA
ATOM     21  H   UNL     1       2.023  -0.517  -0.119  0.00  0.00    +0.149 HD
BRANCH  18  31
ATOM     22  C   UNL     1      -0.528   1.760  -0.111  0.00  0.00    +0.009 C 
ATOM     23  C   UNL     1      -0.432   0.233  -0.042  0.00  0.00    +0.010 C 
ATOM     24  C   UNL     1      -1.821  -0.401  -0.087  0.00  0.00    -0.000 C 
ATOM     25  C   UNL     1      -1.678  -1.940  -0.192  0.00  0.00    +0.008 C 
ATOM     26  C   UNL     1      -1.543  -1.875   1.344  0.00  0.00    -0.003 C 
ATOM     27  C   UNL     1      -2.482  -0.663   1.267  0.00  0.00    -0.029 C 
ATOM     28  C   UNL     1      -3.967  -1.059   1.152  0.00  0.00    +0.011 C 
ATOM     29  C   UNL     1      -2.283   0.389   2.354  0.00  0.00    +0.011 C 
ATOM     30  C   UNL     1      -0.117  -1.524   1.766  0.00  0.00    +0.026 C 
ATOM     31  C   UNL     1       0.363  -0.201   1.183  0.00  0.00    +0.076 C 
ENDBRANCH  18  31
ENDBRANCH  17  19
ENDBRANCH   1  17
TORSDOF 4
