REMARK  Name = ZINC41198965
REMARK  5 active torsions:
REMARK  status: ('A' for Active; 'I' for Inactive)
REMARK    1  A    between atoms: C_1  and  C_2
REMARK    2  A    between atoms: C_5  and  C_7
REMARK    3  A    between atoms: C_7  and  C_9
REMARK    4  A    between atoms: C_7  and  N_19
REMARK    5  A    between atoms: N_19  and  C_20
REMARK                            x       y       z     vdW  Elec       q    Type
REMARK                         _______ _______ _______ _____ _____    ______ ____
ROOT
ATOM      1  C   UNL     1       0.054  -2.955   2.284  0.00  0.00    +0.016 C 
ENDROOT
BRANCH   1   2
ATOM      2  C   UNL     1       1.435  -3.537   2.438  0.00  0.00    -0.051 A 
ATOM      3  C   UNL     1       1.839  -4.581   1.626  0.00  0.00    +0.006 A 
ATOM      4  C   UNL     1       3.104  -5.118   1.765  0.00  0.00    +0.049 A 
ATOM      5  C   UNL     1       3.974  -4.611   2.720  0.00  0.00    +0.162 A 
ATOM      6  C   UNL     1       3.569  -3.560   3.534  0.00  0.00    +0.162 A 
ATOM      7  C   UNL     1       2.299  -3.022   3.386  0.00  0.00    +0.051 A 
ATOM      8  O   UNL     1       4.409  -3.042   4.471  0.00  0.00    -0.485 OA
ATOM      9  C   UNL     1       5.537  -3.844   4.839  0.00  0.00    +0.270 C 
ATOM     10  C   UNL     1       6.188  -4.374   3.554  0.00  0.00    +0.270 C 
ATOM     11  O   UNL     1       5.215  -5.153   2.848  0.00  0.00    -0.485 OA
ENDBRANCH   1   2
BRANCH   1  16
ATOM     12  C   UNL     1      -0.018   1.503   0.010  0.00  0.00    +0.066 C 
ATOM     13  C   UNL     1       0.002  -0.004   0.002  0.00  0.00    +0.046 A 
ATOM     14  C   UNL     1       0.006  -0.708  -1.159  0.00  0.00    +0.069 A 
ATOM     15  S   UNL     1       0.033  -2.379  -0.531  0.00  0.00    -0.082 S 
ATOM     16  C   UNL     1       0.035  -2.009   1.111  0.00  0.00    +0.069 A 
ATOM     17  N   UNL     1       0.022  -0.699   1.122  0.00  0.00    -0.251 NA
ENDBRANCH   1  16
BRANCH   1  18
ATOM     18  N   UNL     1      -0.911  -4.038   2.054  0.00  0.00    +0.390 N 
ATOM     19  H   UNL     1      -1.821  -3.644   1.870  0.00  0.00    -0.084 HD
ATOM     20  H   UNL     1      -0.616  -4.589   1.262  0.00  0.00    -0.084 HD
BRANCH  18  21
ATOM     21  C   UNL     1      -0.980  -4.893   3.247  0.00  0.00    -0.071 C 
ATOM     22  C   UNL     1      -0.534  -6.349   3.099  0.00  0.00    -0.017 C 
ATOM     23  C   UNL     1      -2.020  -6.016   3.252  0.00  0.00    -0.017 C 
ENDBRANCH  18  21
ENDBRANCH   1  18
TORSDOF 4
