REMARK  Name = ZINC05118929
REMARK  4 active torsions:
REMARK  status: ('A' for Active; 'I' for Inactive)
REMARK    1  A    between atoms: N_10  and  N_11
REMARK    2  A    between atoms: C_12  and  C_13
REMARK    3  A    between atoms: N_17  and  C_18
REMARK    4  A    between atoms: C_18  and  C_19
REMARK                            x       y       z     vdW  Elec       q    Type
REMARK                         _______ _______ _______ _____ _____    ______ ____
ROOT
ATOM      1  C   UNL     1       6.055  -5.946  -0.087  0.00  0.00    +0.062 A 
ATOM      2  C   UNL     1       7.126  -5.096  -0.087  0.00  0.00    +0.029 A 
ATOM      3  C   UNL     1       8.285  -5.885  -0.105  0.00  0.00    +0.020 A 
ATOM      4  C   UNL     1       7.902  -7.181  -0.114  0.00  0.00    +0.086 A 
ATOM      5  N   UNL     1       6.539  -7.231  -0.099  0.00  0.00    -0.342 N 
ENDROOT
BRANCH   1   7
ATOM      6  N   UNL     1       4.314  -4.296  -0.062  0.00  0.00    -0.187 NA
ATOM      7  C   UNL     1       4.640  -5.555  -0.072  0.00  0.00    +0.156 C 
BRANCH   6  17
ATOM      8  C   UNL     1      -0.017   1.366   0.010  0.00  0.00    +0.002 A 
ATOM      9  C   UNL     1       1.156   2.107   0.002  0.00  0.00    +0.001 A 
ATOM     10  C   UNL     1       2.373   1.450  -0.013  0.00  0.00    +0.017 A 
ATOM     11  C   UNL     1       2.401   0.077  -0.021  0.00  0.00    +0.041 A 
ATOM     12  C   UNL     1       1.228  -0.710  -0.013  0.00  0.00    +0.080 A 
ATOM     13  C   UNL     1       0.002  -0.004   0.002  0.00  0.00    +0.029 A 
ATOM     14  N   UNL     1       1.419  -2.047  -0.023  0.00  0.00    -0.224 NA
ATOM     15  C   UNL     1       2.617  -2.588  -0.037  0.00  0.00    +0.179 A 
ATOM     16  S   UNL     1       3.683  -1.153  -0.039  0.00  0.00    -0.051 S 
ATOM     17  N   UNL     1       2.963  -3.923  -0.047  0.00  0.00    -0.215 N 
ATOM     18  H   UNL     1       2.272  -4.603  -0.044  0.00  0.00    +0.176 HD
ENDBRANCH   6  17
ENDBRANCH   1   7
BRANCH   5  19
ATOM     19  C   UNL     1       5.728  -8.451  -0.097  0.00  0.00    +0.158 C 
BRANCH  19  20
ATOM     20  C   UNL     1       5.334  -8.794  -1.511  0.00  0.00    -0.009 A 
ATOM     21  C   UNL     1       4.115  -8.372  -2.010  0.00  0.00    +0.008 A 
ATOM     22  C   UNL     1       3.753  -8.686  -3.306  0.00  0.00    +0.020 A 
ATOM     23  C   UNL     1       4.609  -9.422  -4.105  0.00  0.00    +0.042 A 
ATOM     24  C   UNL     1       5.829  -9.843  -3.607  0.00  0.00    +0.040 A 
ATOM     25  C   UNL     1       6.193  -9.525  -2.311  0.00  0.00    +0.047 A 
ATOM     26 CL   UNL     1       7.726 -10.048  -1.687  0.00  0.00    -0.083 Cl
ATOM     27 CL   UNL     1       4.154  -9.816  -5.733  0.00  0.00    -0.083 Cl
ENDBRANCH  19  20
ENDBRANCH   5  19
TORSDOF 4
