REMARK  Name = ZINC36029064
REMARK  13 active torsions:
REMARK  status: ('A' for Active; 'I' for Inactive)
REMARK    1  A    between atoms: C_1  and  C_2
REMARK    2  A    between atoms: C_2  and  C_3
REMARK    3  A    between atoms: C_2  and  C_4
REMARK    4  A    between atoms: C_4  and  C_5
REMARK    5  A    between atoms: N_9  and  C_23
REMARK    6  A    between atoms: N_14  and  C_17
REMARK    7  A    between atoms: C_17  and  N_19
REMARK    8  A    between atoms: N_19  and  C_20
REMARK    9  A    between atoms: C_20  and  C_21
REMARK   10  A    between atoms: C_20  and  C_22
REMARK   11  A    between atoms: C_23  and  C_24
REMARK   12  A    between atoms: C_24  and  C_25
REMARK   13  A    between atoms: C_24  and  C_26
REMARK                            x       y       z     vdW  Elec       q    Type
REMARK                         _______ _______ _______ _____ _____    ______ ____
ROOT
ATOM      1  C   UNL     1      -1.970  -0.197  -1.614  0.00  0.00    +0.019 C 
ATOM      2  C   UNL     1      -3.380  -0.724  -1.462  0.00  0.00    +0.200 C 
ATOM      3  O   UNL     1      -4.009  -0.777  -0.426  0.00  0.00    -0.277 OA
ATOM      4  N   UNL     1      -3.821  -1.124  -2.673  0.00  0.00    -0.313 N 
ATOM      5  C   UNL     1      -2.776  -0.893  -3.674  0.00  0.00    +0.006 C 
ATOM      6  N   UNL     1      -1.511  -0.710  -2.928  0.00  0.00    +0.401 N 
ATOM      7  C   UNL     1      -3.085   0.369  -4.478  0.00  0.00    +0.025 C 
ATOM      8  C   UNL     1      -4.415   0.187  -5.216  0.00  0.00    +0.107 C 
ATOM      9  N   UNL     1      -4.349  -1.046  -6.013  0.00  0.00    -0.313 N 
ATOM     10  C   UNL     1      -3.985  -2.302  -5.343  0.00  0.00    +0.107 C 
ATOM     11  C   UNL     1      -2.658  -2.099  -4.604  0.00  0.00    +0.025 C 
ATOM     12  H   UNL     1      -0.919  -0.035  -3.387  0.00  0.00    -0.082 HD
ATOM     13  H   UNL     1      -1.032  -1.591  -2.818  0.00  0.00    -0.082 HD
ENDROOT
BRANCH   9  14
ATOM     14  C   UNL     1      -4.618  -1.025  -7.333  0.00  0.00    +0.133 C 
ATOM     15  S   UNL     1      -4.902   0.466  -8.126  0.00  0.00    -0.019 S 
BRANCH  14  16
ATOM     16  N   UNL     1      -4.664  -2.178  -8.030  0.00  0.00    -0.324 N 
ATOM     17  H   UNL     1      -4.580  -3.027  -7.568  0.00  0.00    +0.148 HD
BRANCH  16  18
ATOM     18  C   UNL     1      -4.839  -2.149  -9.484  0.00  0.00    +0.066 C 
ATOM     19  C   UNL     1      -3.478  -1.966 -10.158  0.00  0.00    +0.027 C 
ATOM     20  C   UNL     1      -5.466  -3.465  -9.948  0.00  0.00    +0.027 C 
ENDBRANCH  16  18
ENDBRANCH  14  16
ENDBRANCH   9  14
BRANCH   1  21
ATOM     21  C   UNL     1      -1.077  -0.731  -0.492  0.00  0.00    -0.004 C 
BRANCH  21  23
ATOM     22  C   UNL     1       0.276   1.368  -0.425  0.00  0.00    +0.007 C 
ATOM     23  C   UNL     1       0.329  -0.146  -0.637  0.00  0.00    -0.018 C 
ATOM     24  C   UNL     1       1.253  -0.775   0.408  0.00  0.00    +0.007 C 
ENDBRANCH  21  23
ENDBRANCH   1  21
BRANCH   4  25
ATOM     25  C   UNL     1      -5.140  -1.701  -2.945  0.00  0.00    +0.109 C 
BRANCH  25  26
ATOM     26  C   UNL     1      -5.077  -3.220  -2.775  0.00  0.00    +0.000 C 
ATOM     27  C   UNL     1      -4.811  -3.559  -1.307  0.00  0.00    +0.009 C 
ATOM     28  C   UNL     1      -6.408  -3.837  -3.208  0.00  0.00    +0.009 C 
ENDBRANCH  25  26
ENDBRANCH   4  25
TORSDOF 7
