REMARK  Name = ZINC13882122
REMARK  8 active torsions:
REMARK  status: ('A' for Active; 'I' for Inactive)
REMARK    1  A    between atoms: C_1  and  C_2
REMARK    2  A    between atoms: C_2  and  C_3
REMARK    3  A    between atoms: C_3  and  C_4
REMARK    4  A    between atoms: C_4  and  C_5
REMARK    5  A    between atoms: C_5  and  C_6
REMARK    6  A    between atoms: C_18  and  C_20
REMARK    7  A    between atoms: C_24  and  N_26
REMARK    8  A    between atoms: C_32  and  C_35
REMARK                            x       y       z     vdW  Elec       q    Type
REMARK                         _______ _______ _______ _____ _____    ______ ____
ROOT
ATOM      1  C   UNL     1      -0.243   1.147  -2.500  0.00  0.00    +0.221 C 
ATOM      2  O   UNL     1       0.778   0.521  -2.307  0.00  0.00    -0.275 OA
ATOM      3  N   UNL     1      -0.639   1.419  -3.759  0.00  0.00    -0.258 N 
ATOM      4  C   UNL     1      -1.816   2.139  -3.969  0.00  0.00    +0.058 A 
ATOM      5  C   UNL     1      -1.942   3.457  -3.560  0.00  0.00    +0.025 A 
ATOM      6  C   UNL     1      -3.112   4.144  -3.832  0.00  0.00    +0.002 A 
ATOM      7  C   UNL     1      -4.147   3.525  -4.509  0.00  0.00    +0.002 A 
ATOM      8  C   UNL     1      -4.031   2.203  -4.904  0.00  0.00    +0.025 A 
ATOM      9  C   UNL     1      -2.870   1.508  -4.612  0.00  0.00    +0.053 A 
ATOM     10  N   UNL     1      -2.731   0.151  -4.875  0.00  0.00    -0.316 N 
ATOM     11  C   UNL     1      -1.820  -0.388  -5.724  0.00  0.00    +0.017 C 
ATOM     12  C   UNL     1      -0.517  -0.060  -5.757  0.00  0.00    +0.037 C 
ATOM     13  C   UNL     1       0.165   0.965  -4.873  0.00  0.00    +0.147 C 
ATOM     14  C   UNL     1       0.351  -0.680  -6.687  0.00  0.00    +0.163 C 
ATOM     15  O   UNL     1       1.529  -0.382  -6.679  0.00  0.00    -0.292 OA
ATOM     16  C   UNL     1      -0.132  -1.692  -7.682  0.00  0.00    +0.088 C 
ATOM     17  C   UNL     1      -1.607  -1.410  -7.990  0.00  0.00    +0.032 C 
ATOM     18  C   UNL     1      -2.372  -1.442  -6.668  0.00  0.00    +0.059 C 
ATOM     19  H   UNL     1      -3.332  -0.458  -4.417  0.00  0.00    +0.152 HD
ENDROOT
BRANCH  13  20
ATOM     20  C   UNL     1       0.531   2.160  -5.716  0.00  0.00    -0.020 A 
ATOM     21  C   UNL     1      -0.462   2.937  -6.282  0.00  0.00    +0.006 A 
ATOM     22  C   UNL     1      -0.126   4.032  -7.055  0.00  0.00    +0.003 A 
ATOM     23  C   UNL     1       1.203   4.351  -7.261  0.00  0.00    +0.033 A 
ATOM     24  C   UNL     1       2.196   3.575  -6.694  0.00  0.00    +0.127 A 
ATOM     25  C   UNL     1       1.860   2.482  -5.918  0.00  0.00    +0.038 A 
BRANCH  24  26
ATOM     26  N   UNL     1       3.619   3.917  -6.914  0.00  0.00    +0.056 N 
ATOM     27  O   UNL     1       3.915   4.883  -7.596  0.00  0.00    -0.126 OA
ATOM     28  O   UNL     1       4.495   3.233  -6.414  0.00  0.00    -0.126 OA
ENDBRANCH  24  26
ENDBRANCH  13  20
BRANCH  17  29
ATOM     29  C   UNL     1      -2.146  -2.468  -8.918  0.00  0.00    -0.044 A 
ATOM     30  C   UNL     1      -2.101  -3.799  -8.550  0.00  0.00    +0.004 A 
ATOM     31  C   UNL     1      -2.600  -4.769  -9.399  0.00  0.00    +0.000 A 
ATOM     32  C   UNL     1      -3.135  -4.409 -10.621  0.00  0.00    +0.000 A 
ATOM     33  C   UNL     1      -3.175  -3.078 -10.992  0.00  0.00    +0.000 A 
ATOM     34  C   UNL     1      -2.681  -2.107 -10.141  0.00  0.00    +0.004 A 
ENDBRANCH  17  29
BRANCH   1  35
ATOM     35  C   UNL     1      -1.069   1.619  -1.331  0.00  0.00    +0.096 C 
BRANCH  35  36
ATOM     36  C   UNL     1      -0.403   1.182  -0.025  0.00  0.00    +0.009 C 
BRANCH  36  37
ATOM     37  C   UNL     1      -1.241   1.662   1.161  0.00  0.00    +0.000 C 
BRANCH  37  39
ATOM     38  C   UNL     1      -1.413   1.704   3.653  0.00  0.00    +0.004 C 
ATOM     39  C   UNL     1      -0.575   1.224   2.467  0.00  0.00    -0.003 C 
ENDBRANCH  37  39
ENDBRANCH  36  37
ENDBRANCH  35  36
ENDBRANCH   1  35
TORSDOF 7
