REMARK  Name = ZINC59187313
REMARK  7 active torsions:
REMARK  status: ('A' for Active; 'I' for Inactive)
REMARK    1  A    between atoms: C_3  and  C_6
REMARK    2  A    between atoms: C_6  and  N_7
REMARK    3  A    between atoms: N_7  and  C_8
REMARK    4  A    between atoms: N_7  and  C_16
REMARK    5  A    between atoms: C_8  and  C_9
REMARK    6  A    between atoms: C_16  and  N_18
REMARK    7  A    between atoms: N_18  and  C_19
REMARK                            x       y       z     vdW  Elec       q    Type
REMARK                         _______ _______ _______ _____ _____    ______ ____
ROOT
ATOM      1  N   UNL     1       4.464   0.631   1.219  0.00  0.00    -0.301 N 
ENDROOT
BRANCH   1   2
ATOM      2  C   UNL     1       4.715   1.807   1.827  0.00  0.00    +0.138 C 
ATOM      3  S   UNL     1       5.745   1.863   3.193  0.00  0.00    -0.018 S 
BRANCH   2   4
ATOM      4  N   UNL     1       4.155   2.940   1.358  0.00  0.00    -0.296 N 
ATOM      5  H   UNL     1       3.636   2.922   0.539  0.00  0.00    +0.154 HD
BRANCH   4   6
ATOM      6  C   UNL     1       4.322   4.143   2.054  0.00  0.00    +0.053 A 
ATOM      7  C   UNL     1       4.181   4.173   3.435  0.00  0.00    +0.044 A 
ATOM      8  C   UNL     1       4.347   5.362   4.119  0.00  0.00    +0.043 A 
ATOM      9  C   UNL     1       4.652   6.523   3.429  0.00  0.00    +0.021 A 
ATOM     10  C   UNL     1       4.793   6.496   2.054  0.00  0.00    +0.023 A 
ATOM     11  C   UNL     1       4.635   5.308   1.365  0.00  0.00    +0.062 A 
ATOM     12 CL   UNL     1       4.818   5.274  -0.361  0.00  0.00    -0.082 Cl
ATOM     13 CL   UNL     1       4.172   5.401   5.846  0.00  0.00    -0.083 Cl
ENDBRANCH   4   6
ENDBRANCH   2   4
ENDBRANCH   1   2
BRANCH   1  14
ATOM     14  C   UNL     1       3.582   0.583   0.050  0.00  0.00    +0.181 C 
BRANCH  14  17
ATOM     15  C   UNL     1       0.074   0.684   1.175  0.00  0.00    +0.041 A 
ATOM     16  C   UNL     1       1.275   1.332   0.802  0.00  0.00    +0.046 A 
ATOM     17  C   UNL     1       2.161   0.365   0.502  0.00  0.00    +0.122 A 
ATOM     18  O   UNL     1       1.564  -0.826   0.672  0.00  0.00    -0.466 OA
ATOM     19  C   UNL     1       0.299  -0.638   1.080  0.00  0.00    +0.195 A 
ENDBRANCH  14  17
ENDBRANCH   1  14
BRANCH   1  20
ATOM     20  C   UNL     1       5.073  -0.601   1.728  0.00  0.00    +0.142 C 
BRANCH  20  21
ATOM     21  C   UNL     1       6.401  -0.822   1.051  0.00  0.00    -0.030 A 
ATOM     22  C   UNL     1       6.464  -1.545  -0.126  0.00  0.00    +0.006 A 
ATOM     23  C   UNL     1       7.681  -1.748  -0.748  0.00  0.00    +0.020 A 
ATOM     24  C   UNL     1       8.837  -1.228  -0.192  0.00  0.00    +0.041 A 
ATOM     25  C   UNL     1       8.773  -0.505   0.985  0.00  0.00    +0.020 A 
ATOM     26  C   UNL     1       7.554  -0.297   1.603  0.00  0.00    +0.006 A 
ATOM     27 CL   UNL     1      10.367  -1.483  -0.973  0.00  0.00    -0.084 Cl
ENDBRANCH  20  21
ENDBRANCH   1  20
TORSDOF 7
