REMARK  Name = ZINC35466820
REMARK  4 active torsions:
REMARK  status: ('A' for Active; 'I' for Inactive)
REMARK    1  A    between atoms: C_1  and  N_2
REMARK    2  A    between atoms: N_2  and  C_3
REMARK    3  A    between atoms: C_3  and  C_5
REMARK    4  A    between atoms: C_3  and  C_16
REMARK                            x       y       z     vdW  Elec       q    Type
REMARK                         _______ _______ _______ _____ _____    ______ ____
ROOT
ATOM      1  C   UNL     1      -1.376  -0.512   0.012  0.00  0.00    -0.003 C 
ENDROOT
BRANCH   1   2
ATOM      2  C   UNL     1      -1.356  -2.015   0.128  0.00  0.00    -0.053 A 
ATOM      3  C   UNL     1      -0.410  -2.747  -0.565  0.00  0.00    +0.006 A 
ATOM      4  C   UNL     1      -0.385  -4.126  -0.463  0.00  0.00    +0.049 A 
ATOM      5  C   UNL     1      -1.313  -4.772   0.336  0.00  0.00    +0.162 A 
ATOM      6  C   UNL     1      -2.263  -4.038   1.032  0.00  0.00    +0.162 A 
ATOM      7  C   UNL     1      -2.282  -2.657   0.931  0.00  0.00    +0.051 A 
ATOM      8  O   UNL     1      -3.172  -4.684   1.818  0.00  0.00    -0.488 OA
ATOM      9  C   UNL     1      -4.139  -5.480   1.130  0.00  0.00    +0.232 C 
ATOM     10  C   UNL     1      -3.583  -6.863   0.829  0.00  0.00    +0.082 C 
ATOM     11  C   UNL     1      -2.409  -6.818  -0.137  0.00  0.00    +0.232 C 
ATOM     12  O   UNL     1      -1.299  -6.133   0.446  0.00  0.00    -0.488 OA
ENDBRANCH   1   2
BRANCH   1  13
ATOM     13  C   UNL     1      -2.067  -0.116  -1.267  0.00  0.00    -0.019 A 
ATOM     14  C   UNL     1      -3.338   0.316  -1.451  0.00  0.00    +0.011 A 
ATOM     15  C   UNL     1      -3.763   0.627  -2.730  0.00  0.00    +0.023 A 
ATOM     16  C   UNL     1      -2.893   0.489  -3.762  0.00  0.00    +0.055 A 
ATOM     17  S   UNL     1      -1.422  -0.087  -2.931  0.00  0.00    -0.088 S 
ATOM     18 BR   UNL     1      -3.167   0.828  -5.602  0.00  0.00    -0.043 Br
ENDBRANCH   1  13
BRANCH   1  20
ATOM     19  C   UNL     1      -0.018   1.465   0.010  0.00  0.00    -0.099 C 
ATOM     20  N   UNL     1       0.002  -0.004   0.002  0.00  0.00    +0.385 N 
ATOM     21  H   UNL     1       0.474  -0.330  -0.828  0.00  0.00    -0.085 HD
ATOM     22  H   UNL     1       0.490  -0.338   0.820  0.00  0.00    -0.085 HD
ENDBRANCH   1  20
TORSDOF 3
