REMARK  Name = ZINC34923300
REMARK  11 active torsions:
REMARK  status: ('A' for Active; 'I' for Inactive)
REMARK    1  A    between atoms: C_1  and  C_2
REMARK    2  A    between atoms: C_2  and  C_3
REMARK    3  A    between atoms: C_4  and  C_35
REMARK    4  A    between atoms: C_5  and  C_27
REMARK    5  A    between atoms: C_8  and  C_13
REMARK    6  A    between atoms: C_14  and  N_16
REMARK    7  A    between atoms: N_19  and  C_22
REMARK    8  A    between atoms: C_30  and  C_34
REMARK    9  A    between atoms: C_32  and  C_33
REMARK   10  A    between atoms: C_35  and  O_37
REMARK   11  A    between atoms: O_37  and  C_38
REMARK                            x       y       z     vdW  Elec       q    Type
REMARK                         _______ _______ _______ _____ _____    ______ ____
ROOT
ATOM      1  C   UNL     1      -2.364  -1.210  -0.475  0.00  0.00    +0.056 C 
ATOM      2  C   UNL     1      -3.241  -1.662  -1.443  0.00  0.00    +0.083 C 
ATOM      3  C   UNL     1      -4.612  -2.116  -0.995  0.00  0.00    +0.150 C 
ATOM      4  N   UNL     1      -4.909  -2.039   0.460  0.00  0.00    -0.267 N 
ATOM      5  C   UNL     1      -6.085  -2.397   1.089  0.00  0.00    +0.048 C 
ATOM      6  C   UNL     1      -6.149  -2.249   2.430  0.00  0.00    +0.072 C 
ATOM      7  S   UNL     1      -4.534  -1.598   2.807  0.00  0.00    -0.060 S 
ATOM      8  C   UNL     1      -3.902  -1.562   1.252  0.00  0.00    +0.166 C 
ATOM      9  N   UNL     1      -2.724  -1.186   0.798  0.00  0.00    -0.229 NA
ENDROOT
BRANCH   3  10
ATOM     10  C   UNL     1      -5.637  -1.283  -1.721  0.00  0.00    -0.019 A 
ATOM     11  C   UNL     1      -6.103  -0.111  -1.154  0.00  0.00    +0.006 A 
ATOM     12  C   UNL     1      -7.042   0.653  -1.820  0.00  0.00    +0.004 A 
ATOM     13  C   UNL     1      -7.516   0.246  -3.053  0.00  0.00    -0.050 A 
ATOM     14  C   UNL     1      -7.050  -0.925  -3.620  0.00  0.00    +0.007 A 
ATOM     15  C   UNL     1      -6.106  -1.687  -2.956  0.00  0.00    -0.045 A 
ATOM     16  C   UNL     1      -5.594  -2.961  -3.577  0.00  0.00    +0.044 C 
ATOM     17  C   UNL     1      -8.541   1.079  -3.779  0.00  0.00    +0.044 C 
ENDBRANCH   3  10
BRANCH   5  18
ATOM     18  C   UNL     1      -7.226  -2.921   0.326  0.00  0.00    +0.091 C 
ATOM     19  C   UNL     1      -8.312  -3.389   0.973  0.00  0.00    +0.241 C 
ATOM     20  O   UNL     1      -8.402  -3.268   2.320  0.00  0.00    -0.271 OA
BRANCH  19  21
ATOM     21  N   UNL     1      -9.335  -3.993   0.262  0.00  0.00    -0.302 N 
ATOM     22  C   UNL     1      -9.054  -4.769  -0.956  0.00  0.00    +0.089 C 
ATOM     23  C   UNL     1      -9.748  -6.130  -0.834  0.00  0.00    -0.059 C 
ATOM     24  N   UNL     1     -11.176  -5.928  -0.560  0.00  0.00    +0.384 N 
ATOM     25  C   UNL     1     -11.348  -5.279   0.746  0.00  0.00    -0.059 C 
ATOM     26  C   UNL     1     -10.733  -3.880   0.705  0.00  0.00    +0.089 C 
ATOM     27  H   UNL     1     -11.576  -5.344  -1.280  0.00  0.00    -0.081 HD
BRANCH  24  28
ATOM     28  C   UNL     1     -11.861  -7.227  -0.553  0.00  0.00    -0.068 C 
ATOM     29  C   UNL     1     -11.760  -7.886  -1.944  0.00  0.00    -0.015 C 
ATOM     30  C   UNL     1     -13.129  -8.585  -2.134  0.00  0.00    -0.002 C 
ATOM     31  C   UNL     1     -14.118  -7.578  -1.495  0.00  0.00    -0.002 C 
ATOM     32  C   UNL     1     -13.360  -7.032  -0.267  0.00  0.00    -0.015 C 
ENDBRANCH  24  28
ENDBRANCH  19  21
ENDBRANCH   5  18
BRANCH   1  34
ATOM     33  C   UNL     1      -1.013   0.757  -1.150  0.00  0.00    +0.010 C 
ATOM     34  C   UNL     1      -0.986  -0.748  -0.871  0.00  0.00    +0.053 C 
ENDBRANCH   1  34
BRANCH   2  35
ATOM     35  C   UNL     1      -2.872  -1.698  -2.793  0.00  0.00    +0.339 C 
ATOM     36  O   UNL     1      -3.199  -0.791  -3.538  0.00  0.00    -0.245 OA
BRANCH  35  37
ATOM     37  O   UNL     1      -2.153  -2.738  -3.270  0.00  0.00    -0.465 OA
ATOM     38  C   UNL     1      -1.812  -2.709  -4.657  0.00  0.00    +0.280 C 
ENDBRANCH  35  37
ENDBRANCH   2  35
TORSDOF 7
