REMARK  Name = ZINC20705365
REMARK  5 active torsions:
REMARK  status: ('A' for Active; 'I' for Inactive)
REMARK    1  A    between atoms: C_2  and  C_3
REMARK    2  A    between atoms: C_3  and  O_4
REMARK    3  A    between atoms: O_4  and  C_5
REMARK    4  A    between atoms: C_18  and  C_21
REMARK    5  A    between atoms: C_25  and  N_27
REMARK                            x       y       z     vdW  Elec       q    Type
REMARK                         _______ _______ _______ _____ _____    ______ ____
ROOT
ATOM      1  C   UNL     1     -10.114   1.482   0.170  0.00  0.00    +0.121 A 
ATOM      2  C   UNL     1      -9.646   2.236   1.236  0.00  0.00    +0.047 A 
ATOM      3  C   UNL     1      -8.290   2.337   1.470  0.00  0.00    +0.027 A 
ATOM      4  C   UNL     1      -7.384   1.683   0.645  0.00  0.00    +0.032 A 
ATOM      5  C   UNL     1      -7.861   0.912  -0.420  0.00  0.00    -0.016 A 
ATOM      6  C   UNL     1      -9.216   0.821  -0.655  0.00  0.00    +0.051 A 
ATOM      7  C   UNL     1      -6.862   0.214  -1.258  0.00  0.00    +0.049 C 
ATOM      8  C   UNL     1      -7.149  -0.132  -2.674  0.00  0.00    -0.023 C 
ATOM      9  C   UNL     1      -6.012  -0.095  -3.358  0.00  0.00    -0.030 C 
ATOM     10  C   UNL     1      -4.847   0.342  -2.445  0.00  0.00    +0.033 C 
ATOM     11  C   UNL     1      -5.601   1.123  -1.361  0.00  0.00    +0.029 C 
ATOM     12  C   UNL     1      -4.995   1.133   0.031  0.00  0.00    +0.105 C 
ATOM     13  N   UNL     1      -5.988   1.804   0.898  0.00  0.00    -0.336 N 
ATOM     14  H   UNL     1      -5.653   2.407   1.754  0.00  0.00    +0.147 HD
ENDROOT
BRANCH  12  15
ATOM     15  C   UNL     1      -3.700   1.904   0.030  0.00  0.00    -0.025 A 
ATOM     16  C   UNL     1      -3.719   3.286   0.038  0.00  0.00    +0.005 A 
ATOM     17  C   UNL     1      -2.532   3.993   0.037  0.00  0.00    +0.003 A 
ATOM     18  C   UNL     1      -1.325   3.318   0.032  0.00  0.00    +0.033 A 
ATOM     19  C   UNL     1      -1.306   1.936   0.019  0.00  0.00    +0.127 A 
ATOM     20  C   UNL     1      -2.494   1.229   0.021  0.00  0.00    +0.038 A 
BRANCH  19  21
ATOM     21  N   UNL     1      -0.014   1.214   0.009  0.00  0.00    +0.056 N 
ATOM     22  O   UNL     1       0.002  -0.004   0.002  0.00  0.00    -0.126 OA
ATOM     23  O   UNL     1       1.032   1.837   0.002  0.00  0.00    -0.126 OA
ENDBRANCH  19  21
ENDBRANCH  12  15
BRANCH   1  24
ATOM     24  O   UNL     1     -11.450   1.391  -0.066  0.00  0.00    -0.488 OA
BRANCH  24  25
ATOM     25  C   UNL     1     -12.316   2.097   0.825  0.00  0.00    +0.256 C 
BRANCH  25  27
ATOM     26  C   UNL     1     -14.656   1.602   1.312  0.00  0.00    +0.007 C 
ATOM     27  C   UNL     1     -13.748   1.881   0.410  0.00  0.00    +0.006 C 
ENDBRANCH  25  27
ENDBRANCH  24  25
ENDBRANCH   1  24
TORSDOF 5
