REMARK  Name = ZINC08386468
REMARK  6 active torsions:
REMARK  status: ('A' for Active; 'I' for Inactive)
REMARK    1  A    between atoms: C_4  and  C_7
REMARK    2  A    between atoms: N_8  and  C_9
REMARK    3  A    between atoms: C_12  and  C_15
REMARK    4  A    between atoms: C_15  and  C_25
REMARK    5  A    between atoms: C_28  and  N_31
REMARK    6  A    between atoms: C_32  and  C_33
REMARK                            x       y       z     vdW  Elec       q    Type
REMARK                         _______ _______ _______ _____ _____    ______ ____
ROOT
ATOM      1  C   UNL     1       8.648  -4.724  -0.108  0.00  0.00    +0.111 C 
ATOM      2  N   UNL     1       9.215  -4.709  -1.461  0.00  0.00    -0.294 N 
ATOM      3  C   UNL     1       9.343  -5.977  -1.890  0.00  0.00    +0.246 C 
ATOM      4  O   UNL     1       9.784  -6.301  -2.975  0.00  0.00    -0.270 OA
ATOM      5  C   UNL     1       8.870  -6.917  -0.856  0.00  0.00    +0.043 A 
ATOM      6  C   UNL     1       8.439  -6.175   0.246  0.00  0.00    -0.003 A 
ATOM      7  C   UNL     1       7.946  -6.811   1.361  0.00  0.00    +0.007 A 
ATOM      8  C   UNL     1       7.874  -8.194   1.394  0.00  0.00    +0.000 A 
ATOM      9  C   UNL     1       8.298  -8.938   0.308  0.00  0.00    +0.001 A 
ATOM     10  C   UNL     1       8.796  -8.310  -0.815  0.00  0.00    +0.013 A 
ATOM     11  H   UNL     1       9.458  -3.916  -1.963  0.00  0.00    +0.151 HD
ENDROOT
BRANCH   1  15
ATOM     12  C   UNL     1       4.910  -2.647  -0.060  0.00  0.00    +0.064 A 
ATOM     13  C   UNL     1       5.931  -2.233  -0.918  0.00  0.00    +0.028 A 
ATOM     14  C   UNL     1       7.134  -2.908  -0.928  0.00  0.00    +0.008 A 
ATOM     15  C   UNL     1       7.330  -3.992  -0.091  0.00  0.00    -0.015 A 
ATOM     16  C   UNL     1       6.323  -4.408   0.761  0.00  0.00    +0.008 A 
ATOM     17  C   UNL     1       5.117  -3.739   0.786  0.00  0.00    +0.028 A 
BRANCH  12  19
ATOM     18  C   UNL     1       3.692  -0.680  -0.037  0.00  0.00    +0.119 C 
ATOM     19  N   UNL     1       3.713  -1.983  -0.044  0.00  0.00    -0.255 NA
BRANCH  18  23
ATOM     20  C   UNL     1      -0.017   1.380   0.010  0.00  0.00    +0.000 A 
ATOM     21  C   UNL     1       1.168   2.095   0.002  0.00  0.00    +0.001 A 
ATOM     22  C   UNL     1       2.377   1.432  -0.013  0.00  0.00    +0.009 A 
ATOM     23  C   UNL     1       2.405   0.035  -0.021  0.00  0.00    -0.007 A 
ATOM     24  C   UNL     1       1.204  -0.681  -0.013  0.00  0.00    +0.009 A 
ATOM     25  C   UNL     1       0.002  -0.004   0.002  0.00  0.00    +0.001 A 
ENDBRANCH  18  23
ENDBRANCH  12  19
ENDBRANCH   1  15
BRANCH   1  26
ATOM     26  C   UNL     1       9.607  -4.086   0.864  0.00  0.00    -0.015 A 
ATOM     27  C   UNL     1       9.665  -4.538   2.171  0.00  0.00    +0.008 A 
ATOM     28  C   UNL     1      10.539  -3.959   3.066  0.00  0.00    +0.028 A 
ATOM     29  C   UNL     1      11.368  -2.914   2.651  0.00  0.00    +0.064 A 
ATOM     30  C   UNL     1      11.304  -2.463   1.331  0.00  0.00    +0.028 A 
ATOM     31  C   UNL     1      10.428  -3.055   0.445  0.00  0.00    +0.008 A 
BRANCH  29  32
ATOM     32  N   UNL     1      12.238  -2.334   3.534  0.00  0.00    -0.255 NA
ATOM     33  C   UNL     1      13.466  -2.092   3.174  0.00  0.00    +0.119 C 
BRANCH  33  34
ATOM     34  C   UNL     1      14.403  -1.468   4.125  0.00  0.00    -0.007 A 
ATOM     35  C   UNL     1      13.978  -1.139   5.415  0.00  0.00    +0.009 A 
ATOM     36  C   UNL     1      14.861  -0.555   6.300  0.00  0.00    +0.001 A 
ATOM     37  C   UNL     1      16.163  -0.294   5.912  0.00  0.00    +0.000 A 
ATOM     38  C   UNL     1      16.591  -0.617   4.636  0.00  0.00    +0.001 A 
ATOM     39  C   UNL     1      15.722  -1.206   3.742  0.00  0.00    +0.009 A 
ENDBRANCH  33  34
ENDBRANCH  29  32
ENDBRANCH   1  26
TORSDOF 6
