REMARK  Name = ZINC17078978
REMARK  7 active torsions:
REMARK  status: ('A' for Active; 'I' for Inactive)
REMARK    1  A    between atoms: C_1  and  C_2
REMARK    2  A    between atoms: C_2  and  C_4
REMARK    3  A    between atoms: C_2  and  N_10
REMARK    4  A    between atoms: N_10  and  C_11
REMARK    5  A    between atoms: C_11  and  N_13
REMARK    6  A    between atoms: N_17  and  C_19
REMARK    7  A    between atoms: C_19  and  C_20
REMARK                            x       y       z     vdW  Elec       q    Type
REMARK                         _______ _______ _______ _____ _____    ______ ____
ROOT
ATOM      1  N   UNL     1      -2.754   0.999   4.591  0.00  0.00    -0.280 N 
ATOM      2  C   UNL     1      -2.440   1.722   3.432  0.00  0.00    +0.146 A 
ATOM      3  C   UNL     1      -2.532   3.114   3.278  0.00  0.00    +0.065 A 
ATOM      4  C   UNL     1      -2.141   3.420   2.020  0.00  0.00    +0.110 A 
ATOM      5  N   UNL     1      -1.814   2.268   1.397  0.00  0.00    -0.265 N 
ATOM      6  N   UNL     1      -2.015   1.215   2.299  0.00  0.00    -0.156 NA
ATOM      7  H   UNL     1      -2.996   1.468   5.404  0.00  0.00    +0.155 HD
ENDROOT
BRANCH   1   8
ATOM      8  C   UNL     1      -2.719  -0.348   4.575  0.00  0.00    +0.136 C 
ATOM      9  S   UNL     1      -2.166  -1.174   3.181  0.00  0.00    -0.019 S 
BRANCH   8  10
ATOM     10  N   UNL     1      -3.120  -1.046   5.657  0.00  0.00    -0.320 N 
ATOM     11  H   UNL     1      -3.433  -0.578   6.447  0.00  0.00    +0.148 HD
BRANCH  10  13
ATOM     12  C   UNL     1      -1.682  -2.988   6.031  0.00  0.00    +0.033 C 
ATOM     13  C   UNL     1      -3.082  -2.510   5.639  0.00  0.00    +0.099 C 
BRANCH  13  14
ATOM     14  C   UNL     1      -4.090  -3.050   6.620  0.00  0.00    -0.028 A 
ATOM     15  C   UNL     1      -4.256  -2.438   7.848  0.00  0.00    +0.005 A 
ATOM     16  C   UNL     1      -5.185  -2.931   8.746  0.00  0.00    +0.000 A 
ATOM     17  C   UNL     1      -5.940  -4.041   8.420  0.00  0.00    +0.000 A 
ATOM     18  C   UNL     1      -5.770  -4.657   7.194  0.00  0.00    +0.000 A 
ATOM     19  C   UNL     1      -4.845  -4.161   6.294  0.00  0.00    +0.005 A 
ENDBRANCH  13  14
ENDBRANCH  10  13
ENDBRANCH   8  10
ENDBRANCH   1   8
BRANCH   5  20
ATOM     20  C   UNL     1      -1.338   2.140   0.017  0.00  0.00    +0.179 C 
BRANCH  20  21
ATOM     21  C   UNL     1      -0.025   1.402   0.005  0.00  0.00    -0.018 A 
ATOM     22  C   UNL     1       1.149   2.092  -0.004  0.00  0.00    +0.006 A 
ATOM     23  C   UNL     1       2.372   1.426  -0.020  0.00  0.00    +0.001 A 
ATOM     24  C   UNL     1       2.430   0.066  -0.029  0.00  0.00    +0.008 A 
ATOM     25  C   UNL     1       1.240  -0.680  -0.020  0.00  0.00    -0.018 A 
ATOM     26  C   UNL     1      -0.005  -0.003  -0.002  0.00  0.00    -0.013 A 
ATOM     27  C   UNL     1      -1.195  -0.750   0.006  0.00  0.00    +0.009 A 
ATOM     28  C   UNL     1      -1.137  -2.110  -0.002  0.00  0.00    +0.001 A 
ATOM     29  C   UNL     1       0.087  -2.776  -0.020  0.00  0.00    +0.001 A 
ATOM     30  C   UNL     1       1.260  -2.086  -0.028  0.00  0.00    +0.008 A 
ENDBRANCH  20  21
ENDBRANCH   5  20
TORSDOF 6
