REMARK  Name = ZINC63273839
REMARK  8 active torsions:
REMARK  status: ('A' for Active; 'I' for Inactive)
REMARK    1  A    between atoms: C_4  and  C_7
REMARK    2  A    between atoms: N_9  and  C_10
REMARK    3  A    between atoms: C_10  and  C_21
REMARK    4  A    between atoms: C_11  and  C_12
REMARK    5  A    between atoms: N_23  and  CA_24
REMARK    6  A    between atoms: CA_24  and  CB_26
REMARK    7  A    between atoms: CA_24  and  C_36
REMARK    8  A    between atoms: CB_26  and  CG_27
REMARK                            x       y       z     vdW  Elec       q    Type
REMARK                         _______ _______ _______ _____ _____    ______ ____
ROOT
ATOM      1  C   UNK A   1       4.598  -3.181   0.315  0.00  0.00    +0.097 C 
ATOM      2  C   UNK A   1       4.856  -4.496   0.512  0.00  0.00    +0.036 C 
ENDROOT
BRANCH   2   3
ATOM      3  C   UNK A   1       6.219  -4.937   0.838  0.00  0.00    -0.019 A 
ATOM      4  C   UNK A   1       7.322  -4.274   0.288  0.00  0.00    +0.012 A 
ATOM      5  C   UNK A   1       8.599  -4.690   0.596  0.00  0.00    +0.050 A 
ATOM      6  C   UNK A   1       8.797  -5.766   1.451  0.00  0.00    +0.166 A 
ATOM      7  C   UNK A   1       7.703  -6.432   2.003  0.00  0.00    +0.167 A 
ATOM      8  C   UNK A   1       6.419  -6.018   1.705  0.00  0.00    +0.057 A 
ATOM      9  O   UNK A   1       8.163  -7.440   2.800  0.00  0.00    -0.453 OA
ATOM     10  C   UNK A   1       9.534  -7.643   2.408  0.00  0.00    +0.466 C 
ATOM     11  O   UNK A   1       9.940  -6.358   1.903  0.00  0.00    -0.453 OA
ENDBRANCH   2   3
BRANCH   1  14
ATOM     12  C   UNK A   0       3.119  -1.480  -0.444  0.00  0.00    +0.248 C 
ATOM     13  O   UNK A   0       4.031  -0.678  -0.392  0.00  0.00    -0.270 OA
ATOM     14  N   UNK A   1       3.343  -2.776  -0.152  0.00  0.00    -0.277 N 
ATOM     15  H   UNK A   1       2.634  -3.429  -0.265  0.00  0.00    +0.155 HD
BRANCH  12  19
ATOM     16  C   UNK A   0      -0.776  -0.195  -1.550  0.00  0.00    +0.000 A 
ATOM     17  C   UNK A   0       0.236   0.735  -1.388  0.00  0.00    +0.001 A 
ATOM     18  C   UNK A   0       1.503   0.324  -1.029  0.00  0.00    +0.013 A 
ATOM     19  C   UNK A   0       1.764  -1.033  -0.829  0.00  0.00    +0.037 A 
ATOM     20  C   UNK A   0       0.738  -1.966  -0.994  0.00  0.00    +0.013 A 
ATOM     21  C   UNK A   0      -0.524  -1.542  -1.353  0.00  0.00    +0.001 A 
ENDBRANCH  12  19
ENDBRANCH   1  14
BRANCH   1  22
ATOM     22  C   UNK A   1       5.637  -2.180   0.592  0.00  0.00    +0.259 C 
ATOM     23  O   UNK A   1       6.243  -1.662  -0.327  0.00  0.00    -0.269 OA
ATOM     24  N   TRP A   2       5.919  -1.835   1.864  0.00  0.00    -0.297 N 
ATOM     25  H   TRP A   2       5.488  -2.300   2.599  0.00  0.00    +0.150 HD
BRANCH  24  26
ATOM     26  CA  TRP A   2       6.875  -0.760   2.137  0.00  0.00    +0.191 C 
BRANCH  26  27
ATOM     27  C   TRP A   2       8.278  -1.302   2.054  0.00  0.00    +0.376 C 
ATOM     28  O   TRP A   2       9.193  -0.576   1.704  0.00  0.00    -0.244 OA
ATOM     29  OXT TRP A   2       8.499  -2.467   2.337  0.00  0.00    -0.244 OA
ENDBRANCH  26  27
BRANCH  26  30
ATOM     30  CB  TRP A   2       6.626  -0.200   3.539  0.00  0.00    +0.067 C 
BRANCH  30  31
ATOM     31  CG  TRP A   2       5.239   0.386   3.608  0.00  0.00    -0.039 C 
ATOM     32  CD2 TRP A   2       4.119  -0.229   4.051  0.00  0.00    -0.001 A 
ATOM     33  CE3 TRP A   2       3.865  -1.574   4.581  0.00  0.00    +0.010 A 
ATOM     34  CZ3 TRP A   2       2.608  -1.907   4.951  0.00  0.00    +0.001 A 
ATOM     35  CH2 TRP A   2       1.543  -1.002   4.841  0.00  0.00    +0.002 A 
ATOM     36  CZ2 TRP A   2       1.698   0.251   4.364  0.00  0.00    +0.026 A 
ATOM     37  CE2 TRP A   2       2.978   0.709   3.946  0.00  0.00    +0.043 A 
ATOM     38  NE1 TRP A   2       3.377   1.857   3.456  0.00  0.00    -0.380 N 
ATOM     39  CD1 TRP A   2       4.820   1.780   3.201  0.00  0.00    +0.144 C 
ATOM     40  HE1 TRP A   2       2.814   2.630   3.293  0.00  0.00    +0.160 HD
ENDBRANCH  30  31
ENDBRANCH  26  30
ENDBRANCH  24  26
ENDBRANCH   1  22
TORSDOF 8
