REMARK  Name = ZINC14188350
REMARK  9 active torsions:
REMARK  status: ('A' for Active; 'I' for Inactive)
REMARK    1  A    between atoms: C_1  and  O_2
REMARK    2  A    between atoms: O_2  and  C_3
REMARK    3  A    between atoms: C_6  and  C_9
REMARK    4  A    between atoms: C_9  and  C_11
REMARK    5  A    between atoms: C_16  and  C_17
REMARK    6  A    between atoms: C_16  and  N_60
REMARK    7  A    between atoms: N_19  and  C_20
REMARK    8  A    between atoms: C_20  and  C_22
REMARK    9  A    between atoms: C_20  and  C_29
REMARK                            x       y       z     vdW  Elec       q    Type
REMARK                         _______ _______ _______ _____ _____    ______ ____
ROOT
ATOM      1  C   UNL     1      -0.804   1.986  -1.115  0.00  0.00    +0.019 C 
ENDROOT
BRANCH   1   7
ATOM      2  C   UNL     1       2.133   0.035   1.302  0.00  0.00    +0.057 C 
ATOM      3  C   UNL     1       0.704  -0.513   1.263  0.00  0.00    -0.007 C 
ATOM      4  C   UNL     1       0.002  -0.004   0.002  0.00  0.00    -0.077 C 
ATOM      5  C   UNL     1       1.344   2.014   0.000  0.00  0.00    -0.077 C 
ATOM      6  C   UNL     1       2.086   1.565   1.261  0.00  0.00    -0.007 C 
ATOM      7  N   UNL     1      -0.032   1.474   0.035  0.00  0.00    +0.385 N 
ATOM      8  H   UNL     1      -0.487   1.777   0.904  0.00  0.00    -0.081 HD
BRANCH   2   9
ATOM      9  C   UNL     1       2.810  -0.415   2.571  0.00  0.00    +0.166 C 
ATOM     10  O   UNL     1       2.146  -0.694   3.547  0.00  0.00    -0.292 OA
BRANCH   9  14
ATOM     11  C   UNL     1       7.033  -0.705   2.729  0.00  0.00    +0.120 A 
ATOM     12  C   UNL     1       6.274  -1.026   3.850  0.00  0.00    +0.046 A 
ATOM     13  C   UNL     1       4.906  -0.934   3.804  0.00  0.00    +0.015 A 
ATOM     14  C   UNL     1       4.274  -0.516   2.626  0.00  0.00    +0.018 A 
ATOM     15  C   UNL     1       5.043  -0.200   1.499  0.00  0.00    +0.015 A 
ATOM     16  C   UNL     1       6.410  -0.290   1.557  0.00  0.00    +0.046 A 
BRANCH  11  18
ATOM     17  C   UNL     1       9.104  -0.454   1.594  0.00  0.00    +0.277 C 
ATOM     18  O   UNL     1       8.385  -0.798   2.780  0.00  0.00    -0.495 OA
ENDBRANCH  11  18
ENDBRANCH   9  14
ENDBRANCH   2   9
ENDBRANCH   1   7
BRANCH   1  19
ATOM     19  C   UNL     1      -1.009   3.469  -0.940  0.00  0.00    +0.197 C 
ATOM     20  O   UNL     1      -0.545   4.035   0.027  0.00  0.00    -0.278 OA
ATOM     21  N   UNL     1      -1.708   4.166  -1.858  0.00  0.00    -0.306 N 
ATOM     22  H   UNL     1      -2.079   3.713  -2.632  0.00  0.00    +0.150 HD
BRANCH  21  23
ATOM     23  C   UNL     1      -1.907   5.607  -1.688  0.00  0.00    +0.140 C 
BRANCH  23  24
ATOM     24  C   UNL     1      -3.151   6.033  -2.424  0.00  0.00    -0.022 A 
ATOM     25  C   UNL     1      -3.435   5.499  -3.667  0.00  0.00    +0.008 A 
ATOM     26  C   UNL     1      -4.578   5.885  -4.341  0.00  0.00    +0.038 A 
ATOM     27  C   UNL     1      -5.434   6.815  -3.775  0.00  0.00    +0.123 A 
ATOM     28  C   UNL     1      -5.146   7.353  -2.532  0.00  0.00    +0.038 A 
ATOM     29  C   UNL     1      -4.005   6.962  -1.858  0.00  0.00    +0.008 A 
ATOM     30  F   UNL     1      -6.549   7.197  -4.435  0.00  0.00    -0.205 F 
ENDBRANCH  23  24
BRANCH  23  31
ATOM     31  C   UNL     1      -0.717   6.348  -2.243  0.00  0.00    +0.014 A 
ATOM     32  C   UNL     1      -0.087   7.442  -1.750  0.00  0.00    +0.013 A 
ATOM     33  C   UNL     1       1.000   7.954  -2.433  0.00  0.00    +0.008 A 
ATOM     34  C   UNL     1       1.397   7.353  -3.581  0.00  0.00    +0.045 A 
ATOM     35  S   UNL     1       0.224   6.016  -3.723  0.00  0.00    -0.099 S 
ENDBRANCH  23  31
ENDBRANCH  21  23
ENDBRANCH   1  19
TORSDOF 8
