REMARK  Name = ZINC15940808
REMARK  15 active torsions:
REMARK  status: ('A' for Active; 'I' for Inactive)
REMARK    1  A    between atoms: C_1  and  C_2
REMARK    2  A    between atoms: C_2  and  C_3
REMARK    3  A    between atoms: C_3  and  C_4
REMARK    4  A    between atoms: C_4  and  N_5
REMARK    5  A    between atoms: N_5  and  C_6
REMARK    6  A    between atoms: C_7  and  N_19
REMARK    7  A    between atoms: N_8  and  C_15
REMARK    8  A    between atoms: C_15  and  C_16
REMARK    9  A    between atoms: C_16  and  C_17
REMARK   10  A    between atoms: C_16  and  C_18
REMARK   11  A    between atoms: C_20  and  C_22
REMARK   12  A    between atoms: C_26  and  S_28
REMARK   13  A    between atoms: S_28  and  N_31
REMARK   14  A    between atoms: C_33  and  C_40
REMARK   15  A    between atoms: C_36  and  C_39
REMARK                            x       y       z     vdW  Elec       q    Type
REMARK                         _______ _______ _______ _____ _____    ______ ____
ROOT
ATOM      1  N   UNL     1      -3.239  -2.653   0.239  0.00  0.00    -0.260 N 
ATOM      2  C   UNL     1      -3.879  -3.230   1.275  0.00  0.00    +0.251 C 
ATOM      3  O   UNL     1      -3.273  -3.485   2.298  0.00  0.00    -0.270 OA
ENDROOT
BRANCH   1   4
ATOM      4  C   UNL     1      -3.956  -2.291  -0.920  0.00  0.00    +0.140 A 
ATOM      5  C   UNL     1      -4.978  -1.366  -0.853  0.00  0.00    +0.127 A 
ATOM      6  N   UNL     1      -5.659  -1.033  -2.000  0.00  0.00    -0.280 N 
ATOM      7  C   UNL     1      -5.333  -1.603  -3.175  0.00  0.00    +0.331 A 
ATOM      8  O   UNL     1      -5.947  -1.295  -4.178  0.00  0.00    -0.246 OA
ATOM      9  N   UNL     1      -4.341  -2.506  -3.260  0.00  0.00    -0.273 N 
ATOM     10  H   UNL     1      -4.125  -2.902  -4.118  0.00  0.00    +0.173 HD
ATOM     11  C   UNL     1      -3.639  -2.863  -2.166  0.00  0.00    +0.277 A 
ATOM     12  O   UNL     1      -2.737  -3.679  -2.255  0.00  0.00    -0.266 OA
BRANCH   5  13
ATOM     13  N   UNL     1      -5.311  -0.784   0.347  0.00  0.00    -0.343 N 
ATOM     14  H   UNL     1      -4.759  -0.936   1.130  0.00  0.00    +0.144 HD
ATOM     15  H   UNL     1      -6.099  -0.222   0.411  0.00  0.00    +0.144 HD
ENDBRANCH   5  13
BRANCH   6  16
ATOM     16  C   UNL     1      -6.747  -0.053  -1.943  0.00  0.00    +0.131 C 
BRANCH  16  17
ATOM     17  C   UNL     1      -6.181   1.350  -2.176  0.00  0.00    +0.003 C 
ATOM     18  C   UNL     1      -7.330   2.358  -2.241  0.00  0.00    +0.009 C 
ATOM     19  C   UNL     1      -5.243   1.719  -1.025  0.00  0.00    +0.009 C 
ENDBRANCH  16  17
ENDBRANCH   6  16
ENDBRANCH   1   4
BRANCH   2  20
ATOM     20  C   UNL     1      -5.317  -3.554   1.167  0.00  0.00    +0.039 A 
ATOM     21  C   UNL     1      -5.899  -3.755  -0.086  0.00  0.00    +0.013 A 
ATOM     22  C   UNL     1      -7.241  -4.057  -0.179  0.00  0.00    +0.003 A 
ATOM     23  C   UNL     1      -8.011  -4.161   0.966  0.00  0.00    +0.028 A 
ATOM     24  C   UNL     1      -7.441  -3.962   2.211  0.00  0.00    +0.106 A 
ATOM     25  C   UNL     1      -6.098  -3.666   2.318  0.00  0.00    +0.041 A 
BRANCH  24  26
ATOM     26  S   UNL     1      -8.431  -4.096   3.662  0.00  0.00    +0.061 S 
ATOM     27  O   UNL     1      -7.784  -3.329   4.668  0.00  0.00    -0.153 OA
ATOM     28  O   UNL     1      -9.773  -3.850   3.263  0.00  0.00    -0.153 OA
BRANCH  26  29
ATOM     29  N   UNL     1      -8.366  -5.675   4.156  0.00  0.00    -0.172 NA
ATOM     30  C   UNL     1      -9.340  -6.663   3.665  0.00  0.00    +0.140 C 
ATOM     31  C   UNL     1      -8.571  -7.885   3.148  0.00  0.00    +0.131 C 
ATOM     32  O   UNL     1      -7.666  -8.334   4.160  0.00  0.00    -0.371 OA
ATOM     33  C   UNL     1      -6.661  -7.380   4.511  0.00  0.00    +0.131 C 
ATOM     34  C   UNL     1      -7.328  -6.134   5.093  0.00  0.00    +0.140 C 
ATOM     35  C   UNL     1      -5.864  -6.994   3.263  0.00  0.00    +0.039 C 
ATOM     36  C   UNL     1      -9.558  -9.004   2.811  0.00  0.00    +0.039 C 
ENDBRANCH  26  29
ENDBRANCH  24  26
ENDBRANCH   2  20
BRANCH   1  37
ATOM     37  C   UNL     1      -1.798  -2.401   0.317  0.00  0.00    +0.114 C 
BRANCH  37  38
ATOM     38  C   UNL     1      -1.550  -1.077   1.043  0.00  0.00    +0.019 C 
BRANCH  38  40
ATOM     39  C   UNL     1       0.204   0.509   1.850  0.00  0.00    +0.004 C 
ATOM     40  C   UNL     1      -0.044  -0.814   1.124  0.00  0.00    -0.002 C 
ENDBRANCH  38  40
ENDBRANCH  37  38
ENDBRANCH   1  37
TORSDOF 10
