REMARK  Name = ZINC33114651
REMARK  5 active torsions:
REMARK  status: ('A' for Active; 'I' for Inactive)
REMARK    1  A    between atoms: C_1  and  C_2
REMARK    2  A    between atoms: C_5  and  N_9
REMARK    3  A    between atoms: N_18  and  C_21
REMARK    4  A    between atoms: C_23  and  C_28
REMARK    5  A    between atoms: C_25  and  C_27
REMARK                            x       y       z     vdW  Elec       q    Type
REMARK                         _______ _______ _______ _____ _____    ______ ____
ROOT
ATOM      1  N   UNL     1       0.059  -4.174  -0.023  0.00  0.00    -0.207 N 
ATOM      2  C   UNL     1       0.068  -4.924  -1.164  0.00  0.00    +0.255 C 
ATOM      3  O   UNL     1      -0.187  -4.544  -2.287  0.00  0.00    -0.272 OA
ATOM      4  C   UNL     1       0.458  -6.310  -0.753  0.00  0.00    +0.247 C 
ATOM      5  C   UNL     1      -0.210  -6.280   0.678  0.00  0.00    +0.221 C 
ATOM      6  C   UNL     1       0.075  -4.943   1.113  0.00  0.00    +0.251 C 
ATOM      7  O   UNL     1       0.284  -4.570   2.247  0.00  0.00    -0.273 OA
ATOM      8  N   UNL     1      -0.190  -7.647   0.969  0.00  0.00    -0.192 N 
ATOM      9  N   UNL     1      -0.548  -8.221  -0.294  0.00  0.00    -0.078 NA
ATOM     10  N   UNL     1      -0.220  -7.481  -1.276  0.00  0.00    -0.156 NA
ENDROOT
BRANCH   1  15
ATOM     11  C   UNL     1      -0.018   1.503   0.010  0.00  0.00    +0.047 C 
ATOM     12  C   UNL     1       0.002  -0.004   0.002  0.00  0.00    -0.015 A 
ATOM     13  C   UNL     1       0.006  -0.688  -1.200  0.00  0.00    +0.008 A 
ATOM     14  C   UNL     1       0.025  -2.069  -1.211  0.00  0.00    +0.024 A 
ATOM     15  C   UNL     1       0.040  -2.772  -0.014  0.00  0.00    +0.047 A 
ATOM     16  C   UNL     1       0.037  -2.085   1.192  0.00  0.00    +0.062 A 
ATOM     17  C   UNL     1       0.023  -0.702   1.198  0.00  0.00    +0.128 A 
ATOM     18  F   UNL     1       0.024  -0.031   2.371  0.00  0.00    -0.205 F 
ENDBRANCH   1  15
BRANCH   8  19
ATOM     19  C   UNL     1       0.104  -8.287   2.176  0.00  0.00    +0.055 A 
ATOM     20  C   UNL     1       0.428  -7.538   3.300  0.00  0.00    +0.028 A 
ATOM     21  C   UNL     1       0.718  -8.173   4.492  0.00  0.00    -0.048 A 
ATOM     22  C   UNL     1       0.685  -9.553   4.567  0.00  0.00    +0.006 A 
ATOM     23  C   UNL     1       0.364 -10.302   3.450  0.00  0.00    -0.048 A 
ATOM     24  C   UNL     1       0.068  -9.673   2.257  0.00  0.00    +0.028 A 
ATOM     25  C   UNL     1       0.330 -11.806   3.536  0.00  0.00    +0.044 C 
ATOM     26  C   UNL     1       1.069  -7.361   5.712  0.00  0.00    +0.044 C 
ENDBRANCH   8  19
TORSDOF 2
