REMARK  Name = ZINC58950705
REMARK  11 active torsions:
REMARK  status: ('A' for Active; 'I' for Inactive)
REMARK    1  A    between atoms: C_1  and  C_2
REMARK    2  A    between atoms: C_2  and  O_3
REMARK    3  A    between atoms: O_3  and  C_4
REMARK    4  A    between atoms: C_4  and  C_6
REMARK    5  A    between atoms: C_7  and  N_29
REMARK    6  A    between atoms: C_11  and  C_15
REMARK    7  A    between atoms: C_16  and  C_18
REMARK    8  A    between atoms: C_21  and  O_26
REMARK    9  A    between atoms: C_23  and  O_24
REMARK   10  A    between atoms: O_24  and  C_25
REMARK   11  A    between atoms: O_26  and  C_27
REMARK                            x       y       z     vdW  Elec       q    Type
REMARK                         _______ _______ _______ _____ _____    ______ ____
ROOT
ATOM      1  C   UNL     1       1.440  -2.348   2.435  0.00  0.00    +0.105 C 
ATOM      2  C   UNL     1       1.478  -3.693   2.590  0.00  0.00    +0.197 C 
ATOM      3  O   UNL     1       2.116  -4.313   3.602  0.00  0.00    -0.424 OA
ATOM      4  C   UNL     1       2.979  -3.577   4.346  0.00  0.00    +0.222 A 
ATOM      5  C   UNL     1       3.024  -2.212   4.290  0.00  0.00    +0.049 A 
ATOM      6  C   UNL     1       4.010  -1.778   5.165  0.00  0.00    +0.068 A 
ATOM      7  N   UNL     1       4.545  -2.833   5.733  0.00  0.00    -0.176 NA
ATOM      8  N   UNL     1       3.907  -3.978   5.229  0.00  0.00    -0.246 N 
ATOM      9  H   UNL     1       4.102  -4.896   5.476  0.00  0.00    +0.192 HD
ATOM     10  C   UNL     1       4.399  -0.344   5.419  0.00  0.00    +0.068 C 
ATOM     11  C   UNL     1       2.121  -1.404   3.395  0.00  0.00    +0.101 C 
ENDROOT
BRANCH  11  12
ATOM     12  C   UNL     1       1.087  -0.695   4.231  0.00  0.00    +0.008 A 
ATOM     13  C   UNL     1       0.235  -1.424   5.040  0.00  0.00    +0.027 A 
ATOM     14  C   UNL     1      -0.715  -0.776   5.807  0.00  0.00    +0.060 A 
ATOM     15  C   UNL     1      -0.814   0.608   5.768  0.00  0.00    +0.137 A 
ATOM     16  C   UNL     1       0.040   1.341   4.958  0.00  0.00    +0.092 A 
ATOM     17  C   UNL     1       0.995   0.689   4.193  0.00  0.00    +0.128 A 
ATOM     18 BR   UNL     1      -1.879  -1.776   6.911  0.00  0.00    -0.047 Br
BRANCH  17  19
ATOM     19  O   UNL     1       1.837   1.405   3.402  0.00  0.00    -0.495 OA
ATOM     20  C   UNL     1       1.686   2.825   3.413  0.00  0.00    +0.277 C 
ENDBRANCH  17  19
BRANCH  15  21
ATOM     21  O   UNL     1      -1.748   1.245   6.522  0.00  0.00    -0.494 OA
ATOM     22  C   UNL     1      -1.794   2.670   6.432  0.00  0.00    +0.277 C 
ENDBRANCH  15  21
ENDBRANCH  11  12
BRANCH   2  23
ATOM     23  N   UNL     1       0.829  -4.467   1.666  0.00  0.00    -0.329 N 
ATOM     24  H   UNL     1       0.442  -4.057   0.876  0.00  0.00    +0.145 HD
ATOM     25  H   UNL     1       0.757  -5.425   1.800  0.00  0.00    +0.145 HD
ENDBRANCH   2  23
BRANCH   1  26
ATOM     26  C   UNL     1       0.748  -1.813   1.339  0.00  0.00    +0.341 C 
ATOM     27  O   UNL     1       1.362  -1.425   0.361  0.00  0.00    -0.245 OA
BRANCH  26  28
ATOM     28  O   UNL     1      -0.600  -1.727   1.368  0.00  0.00    -0.462 OA
BRANCH  28  30
ATOM     29  C   UNL     1      -2.754  -1.157   0.433  0.00  0.00    +0.048 C 
ATOM     30  C   UNL     1      -1.239  -1.172   0.217  0.00  0.00    +0.229 C 
ENDBRANCH  28  30
ENDBRANCH  26  28
ENDBRANCH   1  26
TORSDOF 7
