REMARK  Name = ZINC14158896
REMARK  11 active torsions:
REMARK  status: ('A' for Active; 'I' for Inactive)
REMARK    1  A    between atoms: C_1  and  C_2
REMARK    2  A    between atoms: C_4  and  C_33
REMARK    3  A    between atoms: N_10  and  C_11
REMARK    4  A    between atoms: C_11  and  N_13
REMARK    5  A    between atoms: N_13  and  C_14
REMARK    6  A    between atoms: C_19  and  O_20
REMARK    7  A    between atoms: O_20  and  C_21
REMARK    8  A    between atoms: N_23  and  C_24
REMARK    9  A    between atoms: C_24  and  C_25
REMARK   10  A    between atoms: C_25  and  C_26
REMARK   11  A    between atoms: C_29  and  O_32
REMARK                            x       y       z     vdW  Elec       q    Type
REMARK                         _______ _______ _______ _____ _____    ______ ____
ROOT
ATOM      1  C   UNL     1       0.124  -8.331  -6.069  0.00  0.00    +0.066 C 
ATOM      2  C   UNL     1       0.380  -6.847  -6.116  0.00  0.00    +0.044 A 
ATOM      3  C   UNL     1       0.438  -6.184  -7.332  0.00  0.00    +0.046 A 
ATOM      4  C   UNL     1       0.676  -4.818  -7.331  0.00  0.00    +0.044 A 
ATOM      5  N   UNL     1       0.839  -4.193  -6.177  0.00  0.00    -0.217 NA
ATOM      6  C   UNL     1       0.777  -4.856  -5.032  0.00  0.00    +0.231 A 
ATOM      7  N   UNL     1       0.557  -6.162  -4.999  0.00  0.00    -0.217 NA
ATOM      8  N   UNL     1       0.954  -4.168  -3.840  0.00  0.00    -0.297 N 
ATOM      9  C   UNL     1       0.997  -4.852  -2.655  0.00  0.00    +0.195 C 
ATOM     10  N   UNL     1       0.972  -6.174  -2.653  0.00  0.00    -0.159 NA
ATOM     11  N   UNL     1       1.066  -4.169  -1.474  0.00  0.00    -0.357 N 
ATOM     12  C   UNL     1       0.747  -4.055  -8.628  0.00  0.00    +0.066 C 
ATOM     13  H   UNL     1       1.046  -3.202  -3.846  0.00  0.00    +0.171 HD
ATOM     14  H   UNL     1       1.024  -4.650  -0.633  0.00  0.00    +0.162 HD
ENDROOT
BRANCH  10  15
ATOM     15  C   UNL     1       0.911  -6.842  -1.492  0.00  0.00    +0.162 C 
ATOM     16  S   UNL     1      -0.473  -6.698  -0.494  0.00  0.00    -0.016 S 
BRANCH  15  17
ATOM     17  N   UNL     1       1.938  -7.626  -1.111  0.00  0.00    -0.292 N 
ATOM     18  H   UNL     1       2.757  -7.639  -1.631  0.00  0.00    +0.154 HD
BRANCH  17  19
ATOM     19  C   UNL     1       1.824  -8.422   0.036  0.00  0.00    +0.076 A 
ATOM     20  C   UNL     1       0.609  -9.011   0.355  0.00  0.00    +0.047 A 
ATOM     21  C   UNL     1       0.498  -9.797   1.488  0.00  0.00    +0.043 A 
ATOM     22  C   UNL     1       1.597  -9.997   2.304  0.00  0.00    +0.024 A 
ATOM     23  C   UNL     1       2.811  -9.413   1.992  0.00  0.00    +0.049 A 
ATOM     24  C   UNL     1       2.931  -8.630   0.856  0.00  0.00    +0.141 A 
ATOM     25 CL   UNL     1      -1.023 -10.533   1.886  0.00  0.00    -0.083 Cl
BRANCH  24  26
ATOM     26  O   UNL     1       4.126  -8.060   0.544  0.00  0.00    -0.493 OA
ATOM     27  C   UNL     1       5.217  -8.316   1.430  0.00  0.00    +0.277 C 
ENDBRANCH  24  26
ENDBRANCH  17  19
ENDBRANCH  15  17
ENDBRANCH  10  15
BRANCH  11  28
ATOM     28  C   UNL     1       1.204  -2.711  -1.479  0.00  0.00    +0.120 C 
BRANCH  28  29
ATOM     29  C   UNL     1       1.383  -2.211  -0.044  0.00  0.00    +0.056 C 
BRANCH  29  30
ATOM     30  C   UNL     1       1.402  -0.704  -0.036  0.00  0.00    -0.045 A 
ATOM     31  C   UNL     1       0.213   0.001   0.007  0.00  0.00    +0.007 A 
ATOM     32  C   UNL     1       0.228   1.382   0.015  0.00  0.00    +0.045 A 
ATOM     33  C   UNL     1       1.436   2.062  -0.020  0.00  0.00    +0.117 A 
ATOM     34  C   UNL     1       2.628   1.353  -0.063  0.00  0.00    +0.045 A 
ATOM     35  C   UNL     1       2.608  -0.029  -0.071  0.00  0.00    +0.007 A 
BRANCH  33  36
ATOM     36  O   UNL     1       1.453   3.421  -0.012  0.00  0.00    -0.507 OA
ATOM     37  H   UNL     1       1.487   3.809   0.873  0.00  0.00    +0.292 HD
ENDBRANCH  33  36
ENDBRANCH  29  30
ENDBRANCH  28  29
ENDBRANCH  11  28
TORSDOF 8
