REMARK  Name = ZINC62993129
REMARK  7 active torsions:
REMARK  status: ('A' for Active; 'I' for Inactive)
REMARK    1  A    between atoms: C_1  and  C_2
REMARK    2  A    between atoms: C_2  and  N_3
REMARK    3  A    between atoms: N_3  and  C_4
REMARK    4  A    between atoms: N_3  and  C_6
REMARK    5  A    between atoms: C_4  and  C_5
REMARK    6  A    between atoms: C_9  and  C_12
REMARK    7  A    between atoms: N_24  and  C_27
REMARK                            x       y       z     vdW  Elec       q    Type
REMARK                         _______ _______ _______ _____ _____    ______ ____
ROOT
ATOM      1  C   UNL     1      -1.303  -6.134   0.445  0.00  0.00    +0.058 C 
ATOM      2  C   UNL     1      -1.817  -6.736   1.545  0.00  0.00    +0.176 C 
ATOM      3  C   UNL     1      -2.521  -6.069   2.653  0.00  0.00    +0.231 C 
ATOM      4  O   UNL     1      -2.762  -4.881   2.776  0.00  0.00    -0.283 OA
ATOM      5  C   UNL     1      -2.870  -7.162   3.579  0.00  0.00    +0.068 A 
ATOM      6  C   UNL     1      -3.536  -7.199   4.805  0.00  0.00    +0.019 A 
ATOM      7  C   UNL     1      -3.712  -8.391   5.446  0.00  0.00    +0.047 A 
ATOM      8  C   UNL     1      -3.231  -9.573   4.882  0.00  0.00    +0.130 A 
ATOM      9  C   UNL     1      -2.571  -9.550   3.666  0.00  0.00    +0.051 A 
ATOM     10  C   UNL     1      -2.381  -8.343   3.000  0.00  0.00    +0.147 A 
ATOM     11  O   UNL     1      -1.781  -8.060   1.823  0.00  0.00    -0.451 OA
ATOM     12  C   UNL     1      -2.052 -10.820   3.042  0.00  0.00    +0.130 C 
ATOM     13  N   UNL     1      -1.985 -11.877   4.061  0.00  0.00    -0.263 NA
ATOM     14  C   UNL     1      -3.256 -11.951   4.800  0.00  0.00    +0.319 C 
ATOM     15  O   UNL     1      -3.420 -10.743   5.547  0.00  0.00    -0.476 OA
ENDROOT
BRANCH   1  19
ATOM     16  C   UNL     1      -1.165  -1.902   0.213  0.00  0.00    +0.013 A 
ATOM     17  C   UNL     1      -1.491  -2.643  -0.911  0.00  0.00    +0.022 A 
ATOM     18  C   UNL     1      -1.538  -4.019  -0.844  0.00  0.00    +0.010 A 
ATOM     19  C   UNL     1      -1.255  -4.667   0.364  0.00  0.00    -0.021 A 
ATOM     20  C   UNL     1      -0.926  -3.910   1.495  0.00  0.00    +0.010 A 
ATOM     21  C   UNL     1      -0.879  -2.535   1.410  0.00  0.00    +0.022 A 
BRANCH  16  22
ATOM     22  N   UNL     1      -1.120  -0.507   0.136  0.00  0.00    -0.394 NA
ATOM     23  H   UNL     1      -0.865  -0.129   1.036  0.00  0.00    +0.126 HD
BRANCH  22  25
ATOM     24  C   UNL     1       0.015   1.420  -0.861  0.00  0.00    +0.022 C 
ATOM     25  C   UNL     1      -0.124  -0.103  -0.865  0.00  0.00    +0.081 C 
ENDBRANCH  22  25
BRANCH  22  26
ATOM     26  C   UNL     1      -2.441   0.005  -0.253  0.00  0.00    +0.081 C 
ATOM     27  C   UNL     1      -3.454  -0.307   0.850  0.00  0.00    +0.022 C 
ENDBRANCH  22  26
ENDBRANCH  16  22
ENDBRANCH   1  19
BRANCH  13  28
ATOM     28  C   UNL     1      -1.653 -13.174   3.455  0.00  0.00    +0.060 C 
ATOM     29  C   UNL     1      -2.788 -13.606   2.523  0.00  0.00    +0.019 C 
ATOM     30  C   UNL     1      -2.442 -14.956   1.891  0.00  0.00    +0.002 C 
ATOM     31  C   UNL     1      -2.259 -16.002   2.992  0.00  0.00    +0.000 C 
ATOM     32  C   UNL     1      -1.125 -15.570   3.923  0.00  0.00    +0.002 C 
ATOM     33  C   UNL     1      -1.470 -14.220   4.556  0.00  0.00    +0.019 C 
ENDBRANCH  13  28
TORSDOF 5
