REMARK  Name = ZINC06460351
REMARK  6 active torsions:
REMARK  status: ('A' for Active; 'I' for Inactive)
REMARK    1  A    between atoms: C_1  and  C_2
REMARK    2  A    between atoms: C_2  and  C_4
REMARK    3  A    between atoms: C_2  and  O_11
REMARK    4  A    between atoms: N_9  and  C_10
REMARK    5  A    between atoms: O_11  and  C_12
REMARK    6  A    between atoms: C_12  and  C_14
REMARK                            x       y       z     vdW  Elec       q    Type
REMARK                         _______ _______ _______ _____ _____    ______ ____
ROOT
ATOM      1  C   UNL     1       4.955   1.458  -0.036  0.00  0.00    +0.078 A 
ATOM      2  C   UNL     1       4.966   0.062  -0.043  0.00  0.00    +0.017 A 
ATOM      3  C   UNL     1       3.778  -0.645  -0.036  0.00  0.00    +0.013 A 
ATOM      4  C   UNL     1       2.562   0.032  -0.022  0.00  0.00    +0.035 A 
ATOM      5  C   UNL     1       2.541   1.439  -0.014  0.00  0.00    +0.052 A 
ATOM      6  C   UNL     1       3.739   2.148  -0.021  0.00  0.00    +0.066 A 
ATOM      7 CL   UNL     1       3.724   3.884  -0.012  0.00  0.00    -0.082 Cl
ATOM      8  C   UNL     1       1.252   2.160   0.002  0.00  0.00    +0.196 C 
ATOM      9  O   UNL     1       1.235   3.375   0.008  0.00  0.00    -0.287 OA
ATOM     10  C   UNL     1      -0.017   1.402   0.010  0.00  0.00    +0.033 A 
ATOM     11  C   UNL     1      -1.236   2.075   0.031  0.00  0.00    +0.012 A 
ATOM     12  C   UNL     1      -2.419   1.357   0.034  0.00  0.00    +0.001 A 
ATOM     13  C   UNL     1      -2.401  -0.026   0.026  0.00  0.00    +0.001 A 
ATOM     14  C   UNL     1      -1.198  -0.710   0.010  0.00  0.00    +0.012 A 
ATOM     15  C   UNL     1       0.002  -0.004   0.002  0.00  0.00    +0.033 A 
ATOM     16  C   UNL     1       1.291  -0.726  -0.014  0.00  0.00    +0.195 C 
ATOM     17  O   UNL     1       1.307  -1.941  -0.021  0.00  0.00    -0.287 OA
ENDROOT
BRANCH   1  18
ATOM     18  C   UNL     1       6.229   2.206  -0.043  0.00  0.00    +0.341 C 
ATOM     19  O   UNL     1       6.221   3.421  -0.036  0.00  0.00    -0.245 OA
BRANCH  18  20
ATOM     20  O   UNL     1       7.401   1.541  -0.056  0.00  0.00    -0.449 OA
BRANCH  20  22
ATOM     21  C   UNL     1       9.051   2.614   1.378  0.00  0.00    +0.062 C 
ATOM     22  C   UNL     1       8.613   2.341  -0.062  0.00  0.00    +0.259 C 
BRANCH  22  23
ATOM     23  C   UNL     1       9.704   1.595  -0.786  0.00  0.00    +0.261 C 
ATOM     24  O   UNL     1       9.482   0.497  -1.251  0.00  0.00    -0.271 OA
ATOM     25  N   UNL     1      10.926   2.147  -0.917  0.00  0.00    -0.237 N 
ATOM     26  C   UNL     1      11.902   1.480  -1.564  0.00  0.00    +0.306 C 
ATOM     27  O   UNL     1      11.679   0.380  -2.030  0.00  0.00    -0.252 OA
ATOM     28  N   UNL     1      13.124   2.032  -1.695  0.00  0.00    -0.302 N 
ATOM     29  C   UNL     1      14.184   1.307  -2.398  0.00  0.00    +0.129 C 
ATOM     30  H   UNL     1      11.104   3.026  -0.545  0.00  0.00    +0.159 HD
ATOM     31  H   UNL     1      13.302   2.910  -1.323  0.00  0.00    +0.150 HD
ENDBRANCH  22  23
ENDBRANCH  20  22
ENDBRANCH  18  20
ENDBRANCH   1  18
TORSDOF 4
