REMARK  Name = ZINC45167931
REMARK  7 active torsions:
REMARK  status: ('A' for Active; 'I' for Inactive)
REMARK    1  A    between atoms: C_1  and  C_2
REMARK    2  A    between atoms: C_3  and  C_9
REMARK    3  A    between atoms: C_4  and  C_8
REMARK    4  A    between atoms: N_5  and  C_7
REMARK    5  A    between atoms: C_12  and  C_14
REMARK    6  A    between atoms: C_14  and  N_21
REMARK    7  A    between atoms: C_17  and  C_20
REMARK                            x       y       z     vdW  Elec       q    Type
REMARK                         _______ _______ _______ _____ _____    ______ ____
ROOT
ATOM      1  C   UNL     1      -0.283  -0.700  -2.624  0.00  0.00    +0.082 A 
ATOM      2  C   UNL     1      -0.310  -1.709  -3.547  0.00  0.00    +0.075 A 
ATOM      3  S   UNL     1      -0.531  -0.773  -5.051  0.00  0.00    -0.081 S 
ATOM      4  C   UNL     1      -0.565   0.764  -4.369  0.00  0.00    +0.068 A 
ATOM      5  N   UNL     1      -0.421   0.532  -3.089  0.00  0.00    -0.245 NA
ENDROOT
BRANCH   1   8
ATOM      6  C   UNL     1       1.885  -2.623  -1.338  0.00  0.00    +0.068 C 
ATOM      7  C   UNL     1       0.846  -1.824  -0.593  0.00  0.00    +0.069 A 
ATOM      8  C   UNL     1      -0.113  -0.972  -1.173  0.00  0.00    +0.044 A 
ATOM      9  C   UNL     1      -0.858  -0.442  -0.161  0.00  0.00    +0.045 A 
ATOM     10  N   UNL     1      -0.384  -0.942   1.000  0.00  0.00    -0.271 N 
ATOM     11  N   UNL     1       0.676  -1.806   0.703  0.00  0.00    -0.176 NA
ATOM     12  C   UNL     1      -0.895  -0.636   2.339  0.00  0.00    +0.172 C 
ATOM     13  C   UNL     1      -2.003   0.526  -0.312  0.00  0.00    +0.066 C 
ENDBRANCH   1   8
BRANCH   4  14
ATOM     14  C   UNL     1      -0.729   2.091  -5.065  0.00  0.00    -0.021 C 
ATOM     15  C   UNL     1      -1.980   2.794  -4.536  0.00  0.00    -0.006 C 
ATOM     16  C   UNL     1      -2.146   4.141  -5.242  0.00  0.00    +0.002 C 
ATOM     17  C   UNL     1      -2.287   3.913  -6.748  0.00  0.00    -0.014 C 
ATOM     18  C   UNL     1      -1.035   3.210  -7.277  0.00  0.00    +0.002 C 
ATOM     19  C   UNL     1      -0.870   1.863  -6.571  0.00  0.00    -0.006 C 
ATOM     20  C   UNL     1      -3.515   3.041  -7.019  0.00  0.00    +0.007 C 
BRANCH  14  21
ATOM     21  N   UNL     1       0.450   2.928  -4.804  0.00  0.00    +0.386 N 
ATOM     22  H   UNL     1       1.276   2.465  -5.153  0.00  0.00    -0.089 HD
ATOM     23  H   UNL     1       0.341   3.817  -5.270  0.00  0.00    -0.089 HD
ATOM     24  H   UNL     1       0.543   3.079  -3.811  0.00  0.00    -0.089 HD
ENDBRANCH  14  21
ENDBRANCH   4  14
TORSDOF 3
