REMARK  Name = ZINC36093593
REMARK  3 active torsions:
REMARK  status: ('A' for Active; 'I' for Inactive)
REMARK    1  A    between atoms: C_1  and  N_2
REMARK    2  A    between atoms: C_10  and  O_25
REMARK    3  A    between atoms: C_12  and  C_15
REMARK                            x       y       z     vdW  Elec       q    Type
REMARK                         _______ _______ _______ _____ _____    ______ ____
ROOT
ATOM      1  C   UNL     1      -0.548   1.340  -0.503  0.00  0.00    -0.096 C 
ATOM      2  N   UNL     1      -0.437  -0.123  -0.420  0.00  0.00    +0.381 N 
ATOM      3  C   UNL     1      -1.780  -0.713  -0.361  0.00  0.00    -0.074 C 
ATOM      4  C   UNL     1      -1.704  -2.226  -0.588  0.00  0.00    +0.018 C 
ATOM      5  C   UNL     1      -0.674  -2.794   0.380  0.00  0.00    -0.027 A 
ATOM      6  C   UNL     1       0.217  -1.970   0.981  0.00  0.00    -0.021 A 
ATOM      7  S   UNL     1       1.198  -3.034   2.001  0.00  0.00    -0.080 S 
ATOM      8  C   UNL     1       0.478  -4.487   1.652  0.00  0.00    +0.080 A 
ATOM      9  C   UNL     1      -0.546  -4.190   0.743  0.00  0.00    +0.067 A 
ATOM     10  C   UNL     1      -1.381  -5.321   0.261  0.00  0.00    +0.220 C 
ATOM     11  N   UNL     1      -0.964  -6.532   0.510  0.00  0.00    -0.223 NA
ATOM     12  C   UNL     1       0.295  -6.853   1.170  0.00  0.00    +0.225 C 
ATOM     13  N   UNL     1       0.725  -5.773   2.076  0.00  0.00    -0.313 N 
ATOM     14  C   UNL     1       0.318  -0.489   0.793  0.00  0.00    -0.036 C 
ATOM     15  H   UNL     1       1.157  -5.958   2.924  0.00  0.00    +0.149 HD
ATOM     16  H   UNL     1       0.047  -0.470  -1.234  0.00  0.00    -0.082 HD
ENDROOT
BRANCH  12  17
ATOM     17  C   UNL     1       1.359  -7.067   0.123  0.00  0.00    +0.012 A 
ATOM     18  C   UNL     1       1.235  -6.470  -1.118  0.00  0.00    +0.058 A 
ATOM     19  C   UNL     1       2.210  -6.665  -2.082  0.00  0.00    +0.167 A 
ATOM     20  C   UNL     1       3.316  -7.463  -1.797  0.00  0.00    +0.167 A 
ATOM     21  C   UNL     1       3.435  -8.058  -0.552  0.00  0.00    +0.065 A 
ATOM     22  C   UNL     1       2.459  -7.854   0.408  0.00  0.00    +0.028 A 
ATOM     23 BR   UNL     1       2.627  -8.661   2.110  0.00  0.00    -0.050 Br
ATOM     24  O   UNL     1       4.124  -7.497  -2.897  0.00  0.00    -0.453 OA
ATOM     25  C   UNL     1       3.303  -7.048  -3.991  0.00  0.00    +0.466 C 
ATOM     26  O   UNL     1       2.326  -6.200  -3.360  0.00  0.00    -0.453 OA
ENDBRANCH  12  17
BRANCH  10  27
ATOM     27  O   UNL     1      -2.535  -5.102  -0.410  0.00  0.00    -0.492 OA
ATOM     28  H   UNL     1      -2.996  -5.910  -0.675  0.00  0.00    +0.294 HD
ENDBRANCH  10  27
TORSDOF 2
