REMARK  Name = ZINC15859888
REMARK  7 active torsions:
REMARK  status: ('A' for Active; 'I' for Inactive)
REMARK    1  A    between atoms: C_1  and  N_42
REMARK    2  A    between atoms: C_2  and  N_42
REMARK    3  A    between atoms: C_3  and  C_5
REMARK    4  A    between atoms: C_3  and  C_21
REMARK    5  A    between atoms: C_3  and  N_42
REMARK    6  A    between atoms: C_5  and  N_6
REMARK    7  A    between atoms: C_7  and  C_9
REMARK                            x       y       z     vdW  Elec       q    Type
REMARK                         _______ _______ _______ _____ _____    ______ ____
ROOT
ATOM      1  N   UNL     1      -2.759  -2.907   1.034  0.00  0.00    -0.310 N 
ATOM      2  C   UNL     1      -3.208  -3.763   1.974  0.00  0.00    +0.279 C 
ATOM      3  O   UNL     1      -2.752  -3.724   3.099  0.00  0.00    -0.267 OA
ATOM      4  H   UNL     1      -3.123  -2.938   0.136  0.00  0.00    +0.149 HD
ENDROOT
BRANCH   2   5
ATOM      5  C   UNL     1      -4.260  -4.750   1.635  0.00  0.00    +0.193 A 
ATOM      6  C   UNL     1      -4.693  -5.597   2.599  0.00  0.00    +0.103 A 
ATOM      7  C   UNL     1      -5.737  -6.578   2.263  0.00  0.00    +0.193 A 
ATOM      8  O   UNL     1      -6.163  -7.364   3.090  0.00  0.00    -0.287 OA
ATOM      9  C   UNL     1      -6.242  -6.564   0.877  0.00  0.00    +0.065 A 
ATOM     10  C   UNL     1      -7.232  -7.452   0.458  0.00  0.00    +0.035 A 
ATOM     11  C   UNL     1      -7.677  -7.408  -0.846  0.00  0.00    +0.042 A 
ATOM     12  C   UNL     1      -7.144  -6.484  -1.736  0.00  0.00    +0.023 A 
ATOM     13  C   UNL     1      -6.167  -5.601  -1.333  0.00  0.00    +0.048 A 
ATOM     14  C   UNL     1      -5.702  -5.628  -0.022  0.00  0.00    +0.140 A 
ATOM     15  O   UNL     1      -4.750  -4.766   0.386  0.00  0.00    -0.450 OA
ATOM     16 CL   UNL     1      -8.908  -8.511  -1.378  0.00  0.00    -0.084 Cl
ENDBRANCH   2   5
BRANCH   1  17
ATOM     17  C   UNL     1      -1.719  -1.931   1.370  0.00  0.00    +0.097 C 
BRANCH  17  18
ATOM     18  C   UNL     1      -1.392  -1.089   0.135  0.00  0.00    +0.016 C 
BRANCH  18  19
ATOM     19  C   UNL     1      -0.239  -0.170   0.445  0.00  0.00    +0.093 A 
ATOM     20  C   UNL     1      -0.320   1.161   0.622  0.00  0.00    +0.043 A 
ATOM     21  C   UNL     1       0.990   1.619   0.889  0.00  0.00    +0.041 A 
ATOM     22  C   UNL     1       1.794   0.541   0.859  0.00  0.00    +0.195 A 
ATOM     23  O   UNL     1       1.044  -0.540   0.589  0.00  0.00    -0.469 OA
ENDBRANCH  18  19
BRANCH  18  26
ATOM     24  C   UNL     1      -0.729  -1.201  -2.191  0.00  0.00    -0.096 C 
ATOM     25  C   UNL     1       0.104  -2.839  -0.615  0.00  0.00    -0.096 C 
ATOM     26  N   UNL     1      -1.049  -1.992  -0.984  0.00  0.00    +0.384 N 
ATOM     27  H   UNL     1      -1.855  -2.595  -1.185  0.00  0.00    -0.082 HD
ENDBRANCH  18  26
ENDBRANCH  17  18
ENDBRANCH   1  17
TORSDOF 5
