REMARK  Name = ZINC05392717
REMARK  6 active torsions:
REMARK  status: ('A' for Active; 'I' for Inactive)
REMARK    1  A    between atoms: C_1  and  C_2
REMARK    2  A    between atoms: C_5  and  S_8
REMARK    3  A    between atoms: S_8  and  N_11
REMARK    4  A    between atoms: N_11  and  C_12
REMARK    5  A    between atoms: C_13  and  C_23
REMARK    6  A    between atoms: C_18  and  C_22
REMARK                            x       y       z     vdW  Elec       q    Type
REMARK                         _______ _______ _______ _____ _____    ______ ____
ROOT
ATOM      1  C   UNL     1       0.002  -0.004   0.002  0.00  0.00    +0.098 A 
ATOM      2  C   UNL     1      -1.074  -0.882   0.013  0.00  0.00    +0.069 A 
ATOM      3  C   UNL     1      -0.779  -2.306  -0.002  0.00  0.00    -0.023 A 
ATOM      4  C   UNL     1       0.534  -2.620  -0.016  0.00  0.00    -0.004 A 
ATOM      5  S   UNL     1       1.374  -1.062  -0.016  0.00  0.00    -0.076 S 
ATOM      6  C   UNL     1       1.133  -3.993  -0.030  0.00  0.00    +0.046 C 
ATOM      7  C   UNL     1       0.034  -4.998  -0.404  0.00  0.00    -0.009 C 
ATOM      8  C   UNL     1      -1.207  -4.710   0.446  0.00  0.00    +0.008 C 
ATOM      9  C   UNL     1      -1.847  -3.393   0.002  0.00  0.00    +0.037 C 
ATOM     10  C   UNL     1       0.526  -6.421  -0.132  0.00  0.00    +0.008 C 
ENDROOT
BRANCH   2  11
ATOM     11  C   UNL     1      -2.454  -0.393   0.036  0.00  0.00    +0.244 C 
ATOM     12  O   UNL     1      -3.043  -0.184  -1.008  0.00  0.00    -0.270 OA
ATOM     13  N   UNL     1      -3.072  -0.173   1.214  0.00  0.00    -0.325 N 
ATOM     14  H   UNL     1      -2.602  -0.339   2.046  0.00  0.00    +0.145 HD
ATOM     15  H   UNL     1      -3.986   0.151   1.229  0.00  0.00    +0.145 HD
ENDBRANCH   2  11
BRANCH   1  16
ATOM     16  N   UNL     1      -0.017   1.378   0.010  0.00  0.00    -0.209 N 
ATOM     17  H   UNL     1      -0.863   1.851   0.016  0.00  0.00    +0.174 HD
BRANCH  16  18
ATOM     18  S   UNL     1       1.406   2.225   0.001  0.00  0.00    +0.073 S 
ATOM     19  O   UNL     1       1.058   3.603  -0.016  0.00  0.00    -0.150 OA
ATOM     20  O   UNL     1       2.223   1.658   1.015  0.00  0.00    -0.150 OA
BRANCH  18  25
ATOM     21  C   UNL     1       4.136   1.074  -5.255  0.00  0.00    +0.044 C 
ATOM     22  C   UNL     1       3.454   1.362  -3.943  0.00  0.00    -0.050 A 
ATOM     23  C   UNL     1       2.581   2.428  -3.837  0.00  0.00    +0.005 A 
ATOM     24  C   UNL     1       1.956   2.692  -2.632  0.00  0.00    +0.029 A 
ATOM     25  C   UNL     1       2.203   1.889  -1.534  0.00  0.00    +0.109 A 
ATOM     26  C   UNL     1       3.080   0.826  -1.639  0.00  0.00    +0.029 A 
ATOM     27  C   UNL     1       3.702   0.559  -2.845  0.00  0.00    +0.005 A 
ENDBRANCH  18  25
ENDBRANCH  16  18
ENDBRANCH   1  16
TORSDOF 4
