REMARK  Name = ZINC10784657
REMARK  5 active torsions:
REMARK  status: ('A' for Active; 'I' for Inactive)
REMARK    1  A    between atoms: C_4  and  N_16
REMARK    2  A    between atoms: C_5  and  C_7
REMARK    3  A    between atoms: C_17  and  C_19
REMARK    4  A    between atoms: N_25  and  S_26
REMARK    5  A    between atoms: S_26  and  C_29
REMARK                            x       y       z     vdW  Elec       q    Type
REMARK                         _______ _______ _______ _____ _____    ______ ____
ROOT
ATOM      1  N   UNL     1       1.985   1.335   0.920  0.00  0.00    -0.284 N 
ATOM      2  C   UNL     1       1.194   1.490  -0.160  0.00  0.00    +0.236 C 
ATOM      3  O   UNL     1       1.588   2.127  -1.114  0.00  0.00    -0.274 OA
ATOM      4  H   UNL     1       1.700   0.765   1.652  0.00  0.00    +0.155 HD
ENDROOT
BRANCH   1   8
ATOM      5  C   UNL     1       5.657   3.305   1.115  0.00  0.00    +0.001 A 
ATOM      6  C   UNL     1       4.579   3.900   0.481  0.00  0.00    +0.002 A 
ATOM      7  C   UNL     1       3.363   3.248   0.411  0.00  0.00    +0.024 A 
ATOM      8  C   UNL     1       3.213   1.994   0.985  0.00  0.00    +0.043 A 
ATOM      9  C   UNL     1       4.303   1.389   1.627  0.00  0.00    +0.028 A 
ATOM     10  C   UNL     1       5.527   2.057   1.686  0.00  0.00    +0.012 A 
BRANCH   9  11
ATOM     11  C   UNL     1       4.157   0.051   2.236  0.00  0.00    +0.111 A 
ATOM     12  N   UNL     1       3.094  -0.722   2.285  0.00  0.00    -0.239 NA
ATOM     13  C   UNL     1       3.106  -1.933   2.875  0.00  0.00    +0.079 A 
ATOM     14  C   UNL     1       2.042  -2.859   2.993  0.00  0.00    +0.029 A 
ATOM     15  C   UNL     1       2.219  -4.046   3.632  0.00  0.00    +0.002 A 
ATOM     16  C   UNL     1       3.439  -4.399   4.191  0.00  0.00    +0.001 A 
ATOM     17  C   UNL     1       4.505  -3.523   4.098  0.00  0.00    +0.017 A 
ATOM     18  C   UNL     1       4.337  -2.321   3.455  0.00  0.00    +0.040 A 
ATOM     19  S   UNL     1       5.379  -0.926   3.101  0.00  0.00    -0.067 S 
ENDBRANCH   9  11
ENDBRANCH   1   8
BRANCH   2  20
ATOM     20  C   UNL     1      -0.180   0.871  -0.183  0.00  0.00    +0.166 C 
ATOM     21  C   UNL     1      -1.237   1.972  -0.316  0.00  0.00    +0.030 C 
ATOM     22  C   UNL     1      -2.618   1.327  -0.478  0.00  0.00    +0.003 C 
ATOM     23  C   UNL     1      -2.641   0.475  -1.750  0.00  0.00    +0.017 C 
ATOM     24  C   UNL     1      -1.598  -0.640  -1.632  0.00  0.00    +0.110 C 
ATOM     25  N   UNL     1      -0.292  -0.037  -1.333  0.00  0.00    -0.164 NA
BRANCH  25  26
ATOM     26  S   UNL     1       1.028  -0.373  -2.274  0.00  0.00    +0.068 S 
ATOM     27  O   UNL     1       2.173  -0.141  -1.465  0.00  0.00    -0.152 OA
ATOM     28  O   UNL     1       0.775  -1.626  -2.895  0.00  0.00    -0.152 OA
BRANCH  26  29
ATOM     29  C   UNL     1       1.069   0.828  -3.562  0.00  0.00    +0.143 A 
ATOM     30  C   UNL     1       1.797   1.969  -3.642  0.00  0.00    +0.036 A 
ATOM     31  C   UNL     1       1.670   2.768  -4.763  0.00  0.00    +0.010 A 
ATOM     32  C   UNL     1       0.814   2.392  -5.745  0.00  0.00    +0.047 A 
ATOM     33  S   UNL     1       0.158   0.863  -5.097  0.00  0.00    -0.077 S 
ENDBRANCH  26  29
ENDBRANCH  25  26
ENDBRANCH   2  20
TORSDOF 5
