REMARK  Name = ZINC65090259
REMARK  7 active torsions:
REMARK  status: ('A' for Active; 'I' for Inactive)
REMARK    1  A    between atoms: C_3  and  N_8
REMARK    2  A    between atoms: N_8  and  C_9
REMARK    3  A    between atoms: C_10  and  C_16
REMARK    4  A    between atoms: N_18  and  C_19
REMARK    5  A    between atoms: C_19  and  C_20
REMARK    6  A    between atoms: C_20  and  C_21
REMARK    7  A    between atoms: C_24  and  O_27
REMARK                            x       y       z     vdW  Elec       q    Type
REMARK                         _______ _______ _______ _____ _____    ______ ____
ROOT
ATOM      1  C   UNL     1       4.858   1.457  -0.250  0.00  0.00    +0.135 A 
ATOM      2  C   UNL     1       5.988   2.181   0.166  0.00  0.00    +0.077 A 
ATOM      3  C   UNL     1       7.127   1.477   0.573  0.00  0.00    +0.018 A 
ATOM      4  C   UNL     1       7.090   0.094   0.547  0.00  0.00    +0.021 A 
ATOM      5  C   UNL     1       5.939  -0.549   0.124  0.00  0.00    +0.113 A 
ATOM      6  N   UNL     1       4.874   0.132  -0.251  0.00  0.00    -0.239 NA
ENDROOT
BRANCH   2   7
ATOM      7  C   UNL     1       5.974   3.655   0.173  0.00  0.00    +0.247 C 
ATOM      8  O   UNL     1       4.915   4.253   0.186  0.00  0.00    -0.270 OA
ATOM      9  N   UNL     1       7.135   4.340   0.166  0.00  0.00    -0.311 N 
ATOM     10  H   UNL     1       7.979   3.863   0.155  0.00  0.00    +0.149 HD
BRANCH   9  11
ATOM     11  C   UNL     1       7.121   5.805   0.173  0.00  0.00    +0.109 C 
BRANCH  11  12
ATOM     12  C   UNL     1       8.558   6.329   0.162  0.00  0.00    +0.054 C 
BRANCH  12  13
ATOM     13  C   UNL     1       8.544   7.835   0.169  0.00  0.00    -0.046 A 
ATOM     14  C   UNL     1       8.520   8.531  -1.025  0.00  0.00    +0.007 A 
ATOM     15  C   UNL     1       8.508   9.913  -1.021  0.00  0.00    +0.045 A 
ATOM     16  C   UNL     1       8.518  10.602   0.183  0.00  0.00    +0.117 A 
ATOM     17  C   UNL     1       8.541   9.901   1.380  0.00  0.00    +0.045 A 
ATOM     18  C   UNL     1       8.549   8.520   1.371  0.00  0.00    +0.007 A 
BRANCH  16  19
ATOM     19  O   UNL     1       8.506  11.961   0.190  0.00  0.00    -0.507 OA
ATOM     20  H   UNL     1       7.619  12.346   0.204  0.00  0.00    +0.292 HD
ENDBRANCH  16  19
ENDBRANCH  12  13
ENDBRANCH  11  12
ENDBRANCH   9  11
ENDBRANCH   2   7
BRANCH   1  21
ATOM     21  N   UNL     1       3.720   2.131  -0.656  0.00  0.00    -0.299 N 
ATOM     22  H   UNL     1       3.727   3.098  -0.722  0.00  0.00    +0.154 HD
BRANCH  21  25
ATOM     23  C   UNL     1       0.168   1.235  -0.970  0.00  0.00    +0.005 A 
ATOM     24  C   UNL     1       1.313   1.942  -0.657  0.00  0.00    +0.023 A 
ATOM     25  C   UNL     1       2.560   1.417  -0.972  0.00  0.00    +0.035 A 
ATOM     26  C   UNL     1       2.652   0.182  -1.601  0.00  0.00    +0.061 A 
ATOM     27  C   UNL     1       1.503  -0.521  -1.912  0.00  0.00    +0.125 A 
ATOM     28  C   UNL     1       0.261   0.006  -1.596  0.00  0.00    +0.038 A 
ATOM     29  F   UNL     1       1.591  -1.722  -2.524  0.00  0.00    -0.205 F 
ENDBRANCH  21  25
ENDBRANCH   1  21
TORSDOF 7
