REMARK  Name = ZINC14472579
REMARK  7 active torsions:
REMARK  status: ('A' for Active; 'I' for Inactive)
REMARK    1  A    between atoms: C_1  and  C_2
REMARK    2  A    between atoms: C_2  and  N_3
REMARK    3  A    between atoms: N_3  and  C_4
REMARK    4  A    between atoms: N_3  and  C_6
REMARK    5  A    between atoms: C_4  and  C_5
REMARK    6  A    between atoms: C_19  and  C_22
REMARK    7  A    between atoms: C_24  and  N_29
REMARK                            x       y       z     vdW  Elec       q    Type
REMARK                         _______ _______ _______ _____ _____    ______ ____
ROOT
ATOM      1  C   UNL     1      -1.358  -1.906   0.120  0.00  0.00    +0.014 A 
ATOM      2  C   UNL     1      -0.723  -2.665  -0.848  0.00  0.00    +0.023 A 
ATOM      3  C   UNL     1      -0.712  -4.040  -0.743  0.00  0.00    +0.025 A 
ATOM      4  C   UNL     1      -1.336  -4.664   0.335  0.00  0.00    +0.031 A 
ATOM      5  C   UNL     1      -1.960  -3.905   1.308  0.00  0.00    -0.018 A 
ATOM      6  C   UNL     1      -1.968  -2.522   1.193  0.00  0.00    +0.027 A 
ATOM      7  C   UNL     1      -2.618  -4.524   2.510  0.00  0.00    +0.049 C 
ATOM      8  C   UNL     1      -2.082  -3.820   3.747  0.00  0.00    -0.023 C 
ATOM      9  C   UNL     1      -1.175  -4.553   4.338  0.00  0.00    -0.030 C 
ATOM     10  C   UNL     1      -0.971  -5.861   3.601  0.00  0.00    +0.033 C 
ATOM     11  C   UNL     1      -2.245  -5.991   2.708  0.00  0.00    +0.029 C 
ATOM     12  C   UNL     1      -2.007  -6.785   1.459  0.00  0.00    +0.106 C 
ATOM     13  N   UNL     1      -1.324  -6.052   0.411  0.00  0.00    -0.336 N 
ATOM     14  H   UNL     1      -0.860  -6.551  -0.279  0.00  0.00    +0.147 HD
ENDROOT
BRANCH  12  15
ATOM     15  C   UNL     1      -1.156  -7.979   1.807  0.00  0.00    -0.007 A 
ATOM     16  C   UNL     1       0.216  -7.917   1.654  0.00  0.00    +0.039 A 
ATOM     17  C   UNL     1       0.997  -9.012   1.973  0.00  0.00    +0.127 A 
ATOM     18  C   UNL     1       0.406 -10.170   2.445  0.00  0.00    +0.034 A 
ATOM     19  C   UNL     1      -0.965 -10.232   2.599  0.00  0.00    +0.022 A 
ATOM     20  C   UNL     1      -1.747  -9.134   2.285  0.00  0.00    +0.046 A 
ATOM     21 CL   UNL     1      -3.470  -9.210   2.485  0.00  0.00    -0.083 Cl
BRANCH  17  22
ATOM     22  N   UNL     1       2.467  -8.946   1.809  0.00  0.00    +0.056 N 
ATOM     23  O   UNL     1       2.984  -7.934   1.396  0.00  0.00    -0.126 OA
ATOM     24  O   UNL     1       3.150  -9.903   2.087  0.00  0.00    -0.126 OA
ENDBRANCH  17  22
ENDBRANCH  12  15
BRANCH   1  25
ATOM     25  N   UNL     1      -1.376  -0.512   0.012  0.00  0.00    -0.394 NA
ATOM     26  H   UNL     1      -1.873  -0.121   0.799  0.00  0.00    +0.126 HD
BRANCH  25  28
ATOM     27  C   UNL     1      -0.019   1.526   0.010  0.00  0.00    +0.022 C 
ATOM     28  C   UNL     1       0.002  -0.004   0.002  0.00  0.00    +0.081 C 
ENDBRANCH  25  28
BRANCH  25  29
ATOM     29  C   UNL     1      -2.050  -0.126  -1.234  0.00  0.00    +0.081 C 
ATOM     30  C   UNL     1      -3.520  -0.547  -1.171  0.00  0.00    +0.022 C 
ENDBRANCH  25  29
ENDBRANCH   1  25
TORSDOF 5
