REMARK  Name = ZINC39722234
REMARK  11 active torsions:
REMARK  status: ('A' for Active; 'I' for Inactive)
REMARK    1  A    between atoms: C_1  and  C_2
REMARK    2  A    between atoms: C_2  and  C_3
REMARK    3  A    between atoms: C_3  and  C_4
REMARK    4  A    between atoms: C_4  and  C_5
REMARK    5  A    between atoms: C_5  and  C_6
REMARK    6  A    between atoms: C_6  and  N_7
REMARK    7  A    between atoms: C_8  and  C_31
REMARK    8  A    between atoms: C_12  and  S_14
REMARK    9  A    between atoms: S_14  and  C_15
REMARK   10  A    between atoms: C_15  and  C_16
REMARK   11  A    between atoms: C_24  and  C_28
REMARK                            x       y       z     vdW  Elec       q    Type
REMARK                         _______ _______ _______ _____ _____    ______ ____
ROOT
ATOM      1  N   UNL     1       2.114  -4.596   3.416  0.00  0.00    +0.410 N 
ATOM      2  C   UNL     1       2.143  -6.045   3.746  0.00  0.00    +0.049 C 
ATOM      3  N   UNL     1       3.309  -6.152   4.662  0.00  0.00    -0.267 NA
ATOM      4  N   UNL     1       4.294  -5.216   4.113  0.00  0.00    -0.262 NA
ATOM      5  C   UNL     1       3.544  -4.220   3.322  0.00  0.00    +0.077 C 
ATOM      6  H   UNL     1       3.672  -7.093   4.677  0.00  0.00    +0.139 HD
ATOM      7  H   UNL     1       4.970  -5.698   3.540  0.00  0.00    +0.140 HD
ATOM      8  H   UNL     1       1.659  -4.074   4.150  0.00  0.00    -0.075 HD
ENDROOT
BRANCH   2   9
ATOM      9  C   UNL     1       0.873  -6.460   4.441  0.00  0.00    -0.046 A 
ATOM     10  C   UNL     1       0.003  -7.340   3.825  0.00  0.00    +0.005 A 
ATOM     11  C   UNL     1      -1.163  -7.721   4.462  0.00  0.00    +0.020 A 
ATOM     12  C   UNL     1      -1.459  -7.222   5.718  0.00  0.00    +0.041 A 
ATOM     13  C   UNL     1      -0.588  -6.342   6.335  0.00  0.00    +0.020 A 
ATOM     14  C   UNL     1       0.580  -5.966   5.699  0.00  0.00    +0.005 A 
ATOM     15 CL   UNL     1      -2.923  -7.699   6.519  0.00  0.00    -0.084 Cl
ENDBRANCH   2   9
BRANCH   1  16
ATOM     16  C   UNL     1       1.438  -4.374   2.131  0.00  0.00    -0.073 C 
BRANCH  16  17
ATOM     17  C   UNL     1       1.412  -2.876   1.820  0.00  0.00    -0.018 C 
BRANCH  17  18
ATOM     18  C   UNL     1       0.708  -2.645   0.482  0.00  0.00    -0.002 C 
BRANCH  18  19
ATOM     19  C   UNL     1       0.682  -1.147   0.171  0.00  0.00    -0.000 C 
BRANCH  19  21
ATOM     20  C   UNL     1      -0.048   0.582  -1.478  0.00  0.00    +0.004 C 
ATOM     21  C   UNL     1      -0.022  -0.916  -1.167  0.00  0.00    -0.003 C 
ENDBRANCH  19  21
ENDBRANCH  18  19
ENDBRANCH  17  18
ENDBRANCH  16  17
ENDBRANCH   1  16
BRANCH   5  22
ATOM     22  S   UNL     1       3.797  -2.561   4.011  0.00  0.00    -0.152 S 
BRANCH  22  23
ATOM     23  C   UNL     1       3.249  -2.712   5.733  0.00  0.00    +0.143 C 
BRANCH  23  24
ATOM     24  C   UNL     1       3.409  -1.386   6.430  0.00  0.00    +0.120 A 
ATOM     25  N   UNL     1       3.054  -1.298   7.738  0.00  0.00    -0.310 N 
ATOM     26  H   UNL     1       2.709  -2.080   8.196  0.00  0.00    +0.170 HD
ATOM     27  C   UNL     1       3.179  -0.129   8.409  0.00  0.00    +0.259 A 
ATOM     28  O   UNL     1       2.866  -0.037   9.582  0.00  0.00    -0.267 OA
ATOM     29  C   UNL     1       3.709   1.027   7.665  0.00  0.00    +0.065 A 
ATOM     30  C   UNL     1       3.875   2.273   8.266  0.00  0.00    +0.016 A 
ATOM     31  C   UNL     1       4.370   3.318   7.540  0.00  0.00    +0.016 A 
ATOM     32  C   UNL     1       4.714   3.149   6.192  0.00  0.00    +0.065 A 
ATOM     33  C   UNL     1       4.555   1.914   5.574  0.00  0.00    +0.043 A 
ATOM     34  C   UNL     1       4.050   0.839   6.308  0.00  0.00    +0.079 A 
ATOM     35  N   UNL     1       3.883  -0.386   5.750  0.00  0.00    -0.233 NA
BRANCH  32  36
ATOM     36  C   UNL     1       5.248   4.292   5.422  0.00  0.00    +0.387 C 
ATOM     37  O   UNL     1       5.389   5.380   5.961  0.00  0.00    -0.241 OA
ATOM     38  O   UNL     1       5.549   4.149   4.246  0.00  0.00    -0.241 OA
ENDBRANCH  32  36
ENDBRANCH  23  24
ENDBRANCH  22  23
ENDBRANCH   5  22
TORSDOF 10
