REMARK  Name = ZINC32976944
REMARK  10 active torsions:
REMARK  status: ('A' for Active; 'I' for Inactive)
REMARK    1  A    between atoms: C_4  and  C_7
REMARK    2  A    between atoms: C_8  and  C_17
REMARK    3  A    between atoms: C_17  and  C_19
REMARK    4  A    between atoms: C_17  and  C_32
REMARK    5  A    between atoms: C_19  and  N_20
REMARK    6  A    between atoms: C_21  and  C_23
REMARK    7  A    between atoms: C_23  and  C_24
REMARK    8  A    between atoms: C_24  and  C_25
REMARK    9  A    between atoms: C_25  and  N_26
REMARK   10  A    between atoms: C_27  and  C_29
REMARK                            x       y       z     vdW  Elec       q    Type
REMARK                         _______ _______ _______ _____ _____    ______ ____
ROOT
ATOM      1  C   UNL     1       3.171  -2.582  -1.789  0.00  0.00    +0.069 C 
ENDROOT
BRANCH   1   3
ATOM      2  C   UNL     1       3.713  -0.887   0.049  0.00  0.00    +0.051 A 
ATOM      3  C   UNL     1       4.079  -1.846  -0.837  0.00  0.00    -0.006 A 
ATOM      4  C   UNL     1       5.522  -2.032  -0.692  0.00  0.00    +0.004 A 
ATOM      5  C   UNL     1       6.459  -2.862  -1.315  0.00  0.00    +0.010 A 
ATOM      6  C   UNL     1       7.773  -2.797  -0.947  0.00  0.00    +0.001 A 
ATOM      7  C   UNL     1       8.186  -1.914   0.041  0.00  0.00    +0.002 A 
ATOM      8  C   UNL     1       7.280  -1.087   0.669  0.00  0.00    +0.026 A 
ATOM      9  C   UNL     1       5.936  -1.134   0.310  0.00  0.00    +0.047 A 
ATOM     10  N   UNL     1       4.820  -0.449   0.737  0.00  0.00    -0.354 N 
ATOM     11  H   UNL     1       4.816   0.237   1.423  0.00  0.00    +0.166 HD
BRANCH   2  15
ATOM     12  C   UNL     1      -0.244   0.558   0.597  0.00  0.00    +0.000 A 
ATOM     13  C   UNL     1       0.826   1.433   0.673  0.00  0.00    +0.001 A 
ATOM     14  C   UNL     1       2.113   0.970   0.496  0.00  0.00    +0.010 A 
ATOM     15  C   UNL     1       2.335  -0.384   0.240  0.00  0.00    -0.001 A 
ATOM     16  C   UNL     1       1.252  -1.261   0.165  0.00  0.00    +0.010 A 
ATOM     17  C   UNL     1      -0.030  -0.785   0.344  0.00  0.00    +0.001 A 
ENDBRANCH   2  15
ENDBRANCH   1   3
BRANCH   1  18
ATOM     18  C   UNL     1       2.911  -3.970  -1.263  0.00  0.00    -0.038 A 
ATOM     19  C   UNL     1       3.970  -4.787  -0.915  0.00  0.00    +0.004 A 
ATOM     20  C   UNL     1       3.730  -6.061  -0.433  0.00  0.00    +0.000 A 
ATOM     21  C   UNL     1       2.432  -6.516  -0.298  0.00  0.00    +0.000 A 
ATOM     22  C   UNL     1       1.373  -5.698  -0.645  0.00  0.00    +0.000 A 
ATOM     23  C   UNL     1       1.612  -4.423  -1.123  0.00  0.00    +0.004 A 
ENDBRANCH   1  18
BRANCH   1  24
ATOM     24  C   UNL     1       3.840  -2.674  -3.162  0.00  0.00    +0.117 C 
BRANCH  24  25
ATOM     25  N   UNL     1       2.910  -3.282  -4.118  0.00  0.00    -0.314 N 
ATOM     26  C   UNL     1       3.285  -3.465  -5.399  0.00  0.00    +0.213 C 
ATOM     27  O   UNL     1       4.392  -3.127  -5.762  0.00  0.00    -0.276 OA
ATOM     28  H   UNL     1       2.025  -3.553  -3.828  0.00  0.00    +0.149 HD
BRANCH  26  29
ATOM     29  C   UNL     1       2.329  -4.091  -6.382  0.00  0.00    +0.097 C 
BRANCH  29  30
ATOM     30  C   UNL     1       2.998  -4.183  -7.755  0.00  0.00    +0.028 C 
BRANCH  30  31
ATOM     31  C   UNL     1       2.027  -4.818  -8.753  0.00  0.00    +0.104 C 
BRANCH  31  32
ATOM     32  N   UNL     1       2.667  -4.907 -10.068  0.00  0.00    -0.315 N 
ATOM     33  C   UNL     1       1.996  -5.436 -11.110  0.00  0.00    +0.216 C 
ATOM     34  O   UNL     1       0.862  -5.840 -10.959  0.00  0.00    -0.276 OA
ATOM     35  H   UNL     1       3.574  -4.584 -10.189  0.00  0.00    +0.149 HD
BRANCH  33  36
ATOM     36  C   UNL     1       2.654  -5.527 -12.463  0.00  0.00    +0.075 C 
ATOM     37  C   UNL     1       2.106  -4.632 -13.576  0.00  0.00    +0.013 C 
ATOM     38  C   UNL     1       1.840  -6.138 -13.605  0.00  0.00    +0.013 C 
ENDBRANCH  33  36
ENDBRANCH  31  32
ENDBRANCH  30  31
ENDBRANCH  29  30
ENDBRANCH  26  29
ENDBRANCH  24  25
ENDBRANCH   1  24
TORSDOF 10
