REMARK  Name = ZINC09711054
REMARK  8 active torsions:
REMARK  status: ('A' for Active; 'I' for Inactive)
REMARK    1  A    between atoms: C_1  and  C_2
REMARK    2  A    between atoms: C_5  and  C_8
REMARK    3  A    between atoms: C_8  and  N_9
REMARK    4  A    between atoms: N_12  and  C_13
REMARK    5  A    between atoms: C_13  and  C_15
REMARK    6  A    between atoms: C_13  and  C_25
REMARK    7  A    between atoms: C_25  and  C_26
REMARK    8  A    between atoms: C_25  and  C_27
REMARK                            x       y       z     vdW  Elec       q    Type
REMARK                         _______ _______ _______ _____ _____    ______ ____
ROOT
ATOM      1  N   UNL     1      -6.522  -0.262   2.302  0.00  0.00    -0.295 N 
ATOM      2  C   UNL     1      -5.643  -0.864   1.476  0.00  0.00    +0.300 C 
ATOM      3  O   UNL     1      -5.749  -2.051   1.236  0.00  0.00    -0.253 OA
ATOM      4  N   UNL     1      -4.647  -0.149   0.915  0.00  0.00    -0.292 N 
ATOM      5  H   UNL     1      -6.438   0.685   2.493  0.00  0.00    +0.151 HD
ATOM      6  H   UNL     1      -4.563   0.798   1.107  0.00  0.00    +0.151 HD
ENDROOT
BRANCH   1   7
ATOM      7  C   UNL     1      -7.605  -1.039   2.911  0.00  0.00    +0.141 C 
BRANCH   7  12
ATOM      8  C   UNL     1     -10.806   2.415   6.260  0.00  0.00    +0.044 C 
ATOM      9  C   UNL     1      -9.972   1.514   5.386  0.00  0.00    -0.050 A 
ATOM     10  C   UNL     1     -10.294   1.353   4.052  0.00  0.00    +0.003 A 
ATOM     11  C   UNL     1      -9.528   0.526   3.251  0.00  0.00    +0.005 A 
ATOM     12  C   UNL     1      -8.440  -0.138   3.784  0.00  0.00    -0.030 A 
ATOM     13  C   UNL     1      -8.120   0.019   5.120  0.00  0.00    +0.005 A 
ATOM     14  C   UNL     1      -8.883   0.849   5.920  0.00  0.00    +0.003 A 
ENDBRANCH   7  12
ENDBRANCH   1   7
BRANCH   4  15
ATOM     15  C   UNL     1      -3.692  -0.803   0.018  0.00  0.00    +0.107 C 
BRANCH  15  16
ATOM     16  C   UNL     1      -2.397  -0.033   0.016  0.00  0.00    -0.023 A 
ATOM     17  C   UNL     1      -2.415   1.349   0.026  0.00  0.00    +0.009 A 
ATOM     18  C   UNL     1      -1.229   2.059   0.019  0.00  0.00    +0.050 A 
ATOM     19  C   UNL     1      -0.017   1.385   0.010  0.00  0.00    +0.162 A 
ATOM     20  C   UNL     1       0.002  -0.004   0.002  0.00  0.00    +0.162 A 
ATOM     21  C   UNL     1      -1.192  -0.710   0.004  0.00  0.00    +0.055 A 
ATOM     22  O   UNL     1       1.181  -0.685  -0.007  0.00  0.00    -0.485 OA
ATOM     23  C   UNL     1       2.347   0.053  -0.387  0.00  0.00    +0.270 C 
ATOM     24  C   UNL     1       2.334   1.392   0.364  0.00  0.00    +0.270 C 
ATOM     25  O   UNL     1       1.143   2.098   0.002  0.00  0.00    -0.485 OA
ENDBRANCH  15  16
BRANCH  15  26
ATOM     26  C   UNL     1      -4.266  -0.838  -1.400  0.00  0.00    +0.008 C 
ATOM     27  C   UNL     1      -5.582  -1.620  -1.398  0.00  0.00    +0.009 C 
ATOM     28  C   UNL     1      -4.523   0.591  -1.882  0.00  0.00    +0.009 C 
ENDBRANCH  15  26
ENDBRANCH   4  15
TORSDOF 5
