REMARK  Name = ZINC06058145
REMARK  9 active torsions:
REMARK  status: ('A' for Active; 'I' for Inactive)
REMARK    1  A    between atoms: C_1  and  C_2
REMARK    2  A    between atoms: C_2  and  N_3
REMARK    3  A    between atoms: N_3  and  C_4
REMARK    4  A    between atoms: C_10  and  C_12
REMARK    5  A    between atoms: C_12  and  S_13
REMARK    6  A    between atoms: S_13  and  C_14
REMARK    7  A    between atoms: C_17  and  C_20
REMARK    8  A    between atoms: N_18  and  N_19
REMARK    9  A    between atoms: C_23  and  C_26
REMARK                            x       y       z     vdW  Elec       q    Type
REMARK                         _______ _______ _______ _____ _____    ______ ____
ROOT
ATOM      1  C   UNL     1       4.747   5.473  -0.180  0.00  0.00    +0.209 A 
ATOM      2  N   UNL     1       5.803   4.689  -0.175  0.00  0.00    -0.121 NA
ATOM      3  N   UNL     1       6.866   5.381   0.029  0.00  0.00    -0.127 NA
ATOM      4  C   UNL     1       6.554   6.648   0.176  0.00  0.00    +0.182 A 
ATOM      5  N   UNL     1       5.188   6.745   0.046  0.00  0.00    -0.224 N 
ENDROOT
BRANCH   4   6
ATOM      6  C   UNL     1       7.494   7.760   0.432  0.00  0.00    +0.021 A 
ATOM      7  C   UNL     1       8.859   7.592   0.197  0.00  0.00    +0.012 A 
ATOM      8  C   UNL     1       9.730   8.636   0.434  0.00  0.00    +0.004 A 
ATOM      9  C   UNL     1       9.254   9.843   0.913  0.00  0.00    -0.050 A 
ATOM     10  C   UNL     1       7.902  10.014   1.154  0.00  0.00    +0.004 A 
ATOM     11  C   UNL     1       7.020   8.980   0.916  0.00  0.00    +0.012 A 
ATOM     12  C   UNL     1      10.212  10.976   1.176  0.00  0.00    +0.044 C 
ENDBRANCH   4   6
BRANCH   5  13
ATOM     13  N   UNL     1       4.430   7.879   0.127  0.00  0.00    -0.295 N 
ATOM     14  H   UNL     1       4.208   8.098   1.087  0.00  0.00    +0.163 HD
ATOM     15  H   UNL     1       4.891   8.655  -0.324  0.00  0.00    +0.163 HD
ENDBRANCH   5  13
BRANCH   1  16
ATOM     16  S   UNL     1       3.076   4.973  -0.426  0.00  0.00    -0.075 S 
BRANCH  16  17
ATOM     17  C   UNL     1       3.310   3.193  -0.654  0.00  0.00    +0.173 C 
BRANCH  17  19
ATOM     18  N   UNL     1       1.902   1.205  -1.084  0.00  0.00    -0.298 N 
ATOM     19  C   UNL     1       1.974   2.536  -0.888  0.00  0.00    +0.226 C 
ATOM     20  O   UNL     1       0.963   3.206  -0.898  0.00  0.00    -0.275 OA
BRANCH  18  21
ATOM     21  C   UNL     1       0.603   0.567  -1.311  0.00  0.00    +0.076 C 
ATOM     22  C   UNL     1      -0.303   0.811  -0.102  0.00  0.00    +0.022 C 
ATOM     23  C   UNL     1      -1.660   0.145  -0.339  0.00  0.00    +0.002 C 
ATOM     24  C   UNL     1      -2.308   0.738  -1.591  0.00  0.00    +0.000 C 
ATOM     25  C   UNL     1      -1.402   0.494  -2.800  0.00  0.00    +0.002 C 
ATOM     26  C   UNL     1      -0.045   1.160  -2.563  0.00  0.00    +0.022 C 
ENDBRANCH  18  21
BRANCH  18  28
ATOM     27  C   UNL     1       3.697   0.316  -2.487  0.00  0.00    +0.024 C 
ATOM     28  C   UNL     1       3.123   0.396  -1.071  0.00  0.00    +0.105 C 
ENDBRANCH  18  28
ENDBRANCH  17  19
ENDBRANCH  16  17
ENDBRANCH   1  16
TORSDOF 7
