REMARK  Name = ZINC38597809
REMARK  11 active torsions:
REMARK  status: ('A' for Active; 'I' for Inactive)
REMARK    1  A    between atoms: C_1  and  C_2
REMARK    2  A    between atoms: C_4  and  C_35
REMARK    3  A    between atoms: C_5  and  C_34
REMARK    4  A    between atoms: C_6  and  S_9
REMARK    5  A    between atoms: C_7  and  C_8
REMARK    6  A    between atoms: S_9  and  N_12
REMARK    7  A    between atoms: N_12  and  C_13
REMARK    8  A    between atoms: C_13  and  C_14
REMARK    9  A    between atoms: C_14  and  C_16
REMARK   10  A    between atoms: C_14  and  N_21
REMARK   11  A    between atoms: N_24  and  C_27
REMARK                            x       y       z     vdW  Elec       q    Type
REMARK                         _______ _______ _______ _____ _____    ______ ____
ROOT
ATOM      1  C   UNL     1       2.614  -1.446   4.257  0.00  0.00    +0.015 C 
ENDROOT
BRANCH   1   2
ATOM      2  N   UNL     1       2.051  -2.022   5.485  0.00  0.00    +0.389 N 
ATOM      3  C   UNL     1       1.156  -1.045   6.117  0.00  0.00    -0.059 C 
ATOM      4  C   UNL     1       0.480  -1.685   7.334  0.00  0.00    +0.086 C 
ATOM      5  N   UNL     1       1.526  -2.215   8.223  0.00  0.00    -0.333 N 
ATOM      6  C   UNL     1       2.564  -3.076   7.636  0.00  0.00    +0.086 C 
ATOM      7  C   UNL     1       3.141  -2.370   6.405  0.00  0.00    -0.059 C 
ATOM      8  H   UNL     1       1.528  -2.855   5.255  0.00  0.00    -0.081 HD
BRANCH   5   9
ATOM      9  C   UNL     1       1.532  -1.909   9.588  0.00  0.00    +0.030 A 
ATOM     10  C   UNL     1       0.473  -1.207  10.148  0.00  0.00    +0.026 A 
ATOM     11  C   UNL     1       0.481  -0.906  11.496  0.00  0.00    +0.040 A 
ATOM     12  C   UNL     1       1.545  -1.303  12.288  0.00  0.00    +0.124 A 
ATOM     13  C   UNL     1       2.602  -2.003  11.732  0.00  0.00    +0.040 A 
ATOM     14  C   UNL     1       2.596  -2.311  10.385  0.00  0.00    +0.026 A 
ATOM     15  F   UNL     1       1.551  -1.007  13.607  0.00  0.00    -0.205 F 
ENDBRANCH   5   9
ENDBRANCH   1   2
BRANCH   1  16
ATOM     16  C   UNL     1       3.476  -0.261   4.607  0.00  0.00    +0.093 A 
ATOM     17  C   UNL     1       4.671   0.031   4.064  0.00  0.00    +0.043 A 
ATOM     18  C   UNL     1       5.123   1.220   4.681  0.00  0.00    +0.041 A 
ATOM     19  C   UNL     1       4.177   1.584   5.565  0.00  0.00    +0.195 A 
ATOM     20  O   UNL     1       3.179   0.687   5.512  0.00  0.00    -0.469 OA
ENDBRANCH   1  16
BRANCH   1  21
ATOM     21  C   UNL     1       1.476  -0.995   3.338  0.00  0.00    +0.098 C 
BRANCH  21  22
ATOM     22  N   UNL     1       0.578  -2.123   3.082  0.00  0.00    -0.191 NA
ATOM     23  H   UNL     1       0.846  -3.022   3.329  0.00  0.00    +0.148 HD
BRANCH  22  24
ATOM     24  S   UNL     1      -0.896  -1.864   2.373  0.00  0.00    +0.059 S 
ATOM     25  O   UNL     1      -1.506  -0.795   3.083  0.00  0.00    -0.153 OA
ATOM     26  O   UNL     1      -1.511  -3.138   2.237  0.00  0.00    -0.153 OA
BRANCH  24  32
ATOM     27  C   UNL     1       0.120  -2.688  -2.688  0.00  0.00    +0.044 C 
ATOM     28  C   UNL     1      -0.126  -1.710  -1.568  0.00  0.00    -0.045 A 
ATOM     29  C   UNL     1      -0.113  -0.351  -1.821  0.00  0.00    +0.007 A 
ATOM     30  C   UNL     1      -0.339   0.546  -0.794  0.00  0.00    -0.045 A 
ATOM     31  C   UNL     1      -0.578   0.084   0.487  0.00  0.00    -0.021 A 
ATOM     32  C   UNL     1      -0.592  -1.275   0.740  0.00  0.00    +0.112 A 
ATOM     33  C   UNL     1      -0.370  -2.172  -0.288  0.00  0.00    -0.021 A 
ATOM     34  C   UNL     1      -0.390  -3.654  -0.013  0.00  0.00    +0.046 C 
ATOM     35  C   UNL     1      -0.823   1.061   1.607  0.00  0.00    +0.046 C 
ATOM     36  C   UNL     1      -0.324   2.027  -1.070  0.00  0.00    +0.044 C 
ENDBRANCH  24  32
ENDBRANCH  22  24
ENDBRANCH  21  22
ENDBRANCH   1  21
TORSDOF 7
