REMARK  Name = ZINC51038306
REMARK  9 active torsions:
REMARK  status: ('A' for Active; 'I' for Inactive)
REMARK    1  A    between atoms: C_1  and  C_2
REMARK    2  A    between atoms: C_5  and  S_7
REMARK    3  A    between atoms: S_7  and  C_8
REMARK    4  A    between atoms: C_11  and  C_19
REMARK    5  A    between atoms: C_15  and  C_17
REMARK    6  A    between atoms: C_17  and  N_18
REMARK    7  A    between atoms: C_19  and  C_20
REMARK    8  A    between atoms: C_19  and  C_21
REMARK    9  A    between atoms: C_19  and  C_22
REMARK                            x       y       z     vdW  Elec       q    Type
REMARK                         _______ _______ _______ _____ _____    ______ ____
ROOT
ATOM      1  C   UNL     1       0.070  -4.875   0.362  0.00  0.00    +0.057 C 
ATOM      2  C   UNL     1      -1.240  -4.856  -0.427  0.00  0.00    +0.019 C 
ATOM      3  C   UNL     1      -1.228  -5.982  -1.463  0.00  0.00    -0.004 C 
ATOM      4  C   UNL     1      -1.081  -7.329  -0.751  0.00  0.00    +0.004 C 
ATOM      5  C   UNL     1       0.229  -7.348   0.038  0.00  0.00    +0.003 C 
ATOM      6  C   UNL     1       0.217  -6.221   1.074  0.00  0.00    -0.015 C 
ENDROOT
BRANCH   3   7
ATOM      7  C   UNL     1      -2.539  -5.963  -2.252  0.00  0.00    -0.035 C 
ATOM      8  C   UNL     1      -2.686  -4.617  -2.964  0.00  0.00    +0.011 C 
ATOM      9  C   UNL     1      -2.527  -7.089  -3.288  0.00  0.00    +0.011 C 
ATOM     10  C   UNL     1      -3.715  -6.164  -1.294  0.00  0.00    +0.011 C 
ENDBRANCH   3   7
BRANCH   1  11
ATOM     11  S   UNL     1       0.057  -3.540   1.590  0.00  0.00    -0.062 S 
BRANCH  11  16
ATOM     12  C   UNL     1      -0.018   1.503   0.010  0.00  0.00    +0.111 C 
ATOM     13  C   UNL     1       0.002  -0.004   0.002  0.00  0.00    +0.215 A 
ATOM     14  N   UNL     1       0.008  -0.767  -1.052  0.00  0.00    -0.112 NA
ATOM     15  N   UNL     1       0.026  -2.001  -0.690  0.00  0.00    -0.101 NA
ATOM     16  C   UNL     1       0.033  -2.069   0.620  0.00  0.00    +0.278 A 
ATOM     17  O   UNL     1       0.023  -0.806   1.085  0.00  0.00    -0.416 OA
ENDBRANCH  11  16
ENDBRANCH   1  11
BRANCH   6  18
ATOM     18  C   UNL     1      -0.958  -6.422   2.032  0.00  0.00    -0.082 C 
BRANCH  18  19
ATOM     19  N   UNL     1      -0.756  -7.657   2.803  0.00  0.00    +0.378 N 
ATOM     20  H   UNL     1      -1.531  -7.789   3.435  0.00  0.00    -0.090 HD
ATOM     21  H   UNL     1      -0.699  -8.442   2.171  0.00  0.00    -0.090 HD
ATOM     22  H   UNL     1       0.101  -7.587   3.331  0.00  0.00    -0.090 HD
ENDBRANCH  18  19
ENDBRANCH   6  18
TORSDOF 5
