REMARK  Name = ZINC01826454
REMARK  13 active torsions:
REMARK  status: ('A' for Active; 'I' for Inactive)
REMARK    1  A    between atoms: C_1  and  O_2
REMARK    2  A    between atoms: O_2  and  C_3
REMARK    3  A    between atoms: C_6  and  C_9
REMARK    4  A    between atoms: C_12  and  S_21
REMARK    5  A    between atoms: N_13  and  C_14
REMARK    6  A    between atoms: S_21  and  C_22
REMARK    7  A    between atoms: C_22  and  C_23
REMARK    8  A    between atoms: N_25  and  N_26
REMARK    9  A    between atoms: C_27  and  C_28
REMARK   10  A    between atoms: C_31  and  O_36
REMARK   11  A    between atoms: C_32  and  O_34
REMARK   12  A    between atoms: O_34  and  C_35
REMARK   13  A    between atoms: O_36  and  C_37
REMARK                            x       y       z     vdW  Elec       q    Type
REMARK                         _______ _______ _______ _____ _____    ______ ____
ROOT
ATOM      1  C   UNL     1       2.493  -2.492  -4.362  0.00  0.00    +0.169 A 
ATOM      2  N   UNL     1       2.826  -1.925  -5.499  0.00  0.00    -0.128 NA
ATOM      3  N   UNL     1       3.378  -2.787  -6.276  0.00  0.00    -0.122 NA
ATOM      4  C   UNL     1       3.432  -3.959  -5.685  0.00  0.00    +0.197 A 
ATOM      5  N   UNL     1       2.876  -3.813  -4.443  0.00  0.00    -0.270 N 
ENDROOT
BRANCH   5   6
ATOM      6  C   UNL     1       2.725  -4.802  -3.460  0.00  0.00    +0.051 A 
ATOM      7  C   UNL     1       3.403  -4.691  -2.253  0.00  0.00    +0.028 A 
ATOM      8  C   UNL     1       3.252  -5.666  -1.287  0.00  0.00    +0.022 A 
ATOM      9  C   UNL     1       2.428  -6.752  -1.520  0.00  0.00    +0.041 A 
ATOM     10  C   UNL     1       1.752  -6.865  -2.723  0.00  0.00    +0.022 A 
ATOM     11  C   UNL     1       1.894  -5.889  -3.690  0.00  0.00    +0.028 A 
ATOM     12 CL   UNL     1       2.241  -7.976  -0.303  0.00  0.00    -0.084 Cl
ENDBRANCH   5   6
BRANCH   1  16
ATOM     13  C   UNL     1       0.606  -0.607  -1.056  0.00  0.00    +0.120 A 
ATOM     14  C   UNL     1       1.172   0.165  -2.062  0.00  0.00    +0.046 A 
ATOM     15  C   UNL     1       1.786  -0.443  -3.136  0.00  0.00    +0.015 A 
ATOM     16  C   UNL     1       1.837  -1.837  -3.212  0.00  0.00    +0.020 A 
ATOM     17  C   UNL     1       1.266  -2.608  -2.198  0.00  0.00    +0.015 A 
ATOM     18  C   UNL     1       0.659  -1.993  -1.125  0.00  0.00    +0.046 A 
BRANCH  13  20
ATOM     19  C   UNL     1      -0.017   1.425   0.010  0.00  0.00    +0.277 C 
ATOM     20  O   UNL     1       0.002  -0.004   0.002  0.00  0.00    -0.495 OA
ENDBRANCH  13  20
ENDBRANCH   1  16
BRANCH   4  21
ATOM     21  S   UNL     1       4.102  -5.441  -6.363  0.00  0.00    -0.076 S 
BRANCH  21  22
ATOM     22  C   UNL     1       4.673  -4.950  -8.014  0.00  0.00    +0.174 C 
BRANCH  22  23
ATOM     23  C   UNL     1       5.276  -6.142  -8.712  0.00  0.00    +0.242 C 
ATOM     24  O   UNL     1       5.317  -7.217  -8.151  0.00  0.00    -0.273 OA
ATOM     25  N   UNL     1       5.770  -6.013  -9.959  0.00  0.00    -0.206 N 
ATOM     26  H   UNL     1       5.737  -5.154 -10.408  0.00  0.00    +0.177 HD
BRANCH  25  27
ATOM     27  N   UNL     1       6.331  -7.121 -10.608  0.00  0.00    -0.188 NA
ATOM     28  C   UNL     1       6.806  -6.997 -11.809  0.00  0.00    +0.138 C 
BRANCH  28  29
ATOM     29  C   UNL     1       7.396  -8.163 -12.492  0.00  0.00    -0.002 A 
ATOM     30  C   UNL     1       7.439  -9.403 -11.850  0.00  0.00    +0.013 A 
ATOM     31  C   UNL     1       7.992 -10.492 -12.491  0.00  0.00    +0.050 A 
ATOM     32  C   UNL     1       8.506 -10.360 -13.772  0.00  0.00    +0.162 A 
ATOM     33  C   UNL     1       8.467  -9.126 -14.419  0.00  0.00    +0.162 A 
ATOM     34  C   UNL     1       7.909  -8.031 -13.785  0.00  0.00    +0.059 A 
BRANCH  33  35
ATOM     35  O   UNL     1       8.972  -9.000 -15.675  0.00  0.00    -0.491 OA
ATOM     36  C   UNL     1       8.898  -7.707 -16.277  0.00  0.00    +0.277 C 
ENDBRANCH  33  35
BRANCH  32  37
ATOM     37  O   UNL     1       9.051 -11.436 -14.399  0.00  0.00    -0.491 OA
ATOM     38  C   UNL     1       9.059 -12.670 -13.678  0.00  0.00    +0.277 C 
ENDBRANCH  32  37
ENDBRANCH  28  29
ENDBRANCH  25  27
ENDBRANCH  22  23
ENDBRANCH  21  22
ENDBRANCH   4  21
TORSDOF 10
