REMARK  Name = ZINC21579743
REMARK  9 active torsions:
REMARK  status: ('A' for Active; 'I' for Inactive)
REMARK    1  A    between atoms: C_1  and  C_2
REMARK    2  A    between atoms: C_2  and  C_3
REMARK    3  A    between atoms: C_3  and  C_35
REMARK    4  A    between atoms: N_6  and  N_10
REMARK    5  A    between atoms: C_11  and  C_13
REMARK    6  A    between atoms: C_13  and  N_14
REMARK    7  A    between atoms: N_17  and  C_20
REMARK    8  A    between atoms: C_20  and  C_21
REMARK    9  A    between atoms: C_20  and  C_28
REMARK                            x       y       z     vdW  Elec       q    Type
REMARK                         _______ _______ _______ _____ _____    ______ ____
ROOT
ATOM      1  N   UNL     1      -0.735   2.124  -1.184  0.00  0.00    +0.387 N 
ATOM      2  C   UNL     1      -2.096   1.569  -1.190  0.00  0.00    -0.063 C 
ATOM      3  C   UNL     1      -2.805   1.977  -2.483  0.00  0.00    +0.067 C 
ATOM      4  N   UNL     1      -2.034   1.488  -3.636  0.00  0.00    -0.295 NA
ATOM      5  C   UNL     1      -0.674   2.043  -3.630  0.00  0.00    +0.067 C 
ATOM      6  C   UNL     1       0.035   1.635  -2.336  0.00  0.00    -0.063 C 
ATOM      7  H   UNL     1      -0.814   3.218  -1.267  0.00  0.00    -0.081 HD
ENDROOT
BRANCH   1   8
ATOM      8  C   UNL     1      -0.047   1.818   0.077  0.00  0.00    +0.020 C 
BRANCH   8  10
ATOM      9  N   UNL     1      -0.269   2.406   2.470  0.00  0.00    -0.225 N 
ATOM     10  C   UNL     1      -0.730   2.539   1.211  0.00  0.00    +0.213 C 
ATOM     11  O   UNL     1      -1.695   3.240   0.989  0.00  0.00    -0.276 OA
ATOM     12  H   UNL     1       0.607   1.771   2.671  0.00  0.00    +0.173 HD
BRANCH   9  16
ATOM     13  C   UNL     1      -1.421   4.545   5.196  0.00  0.00    +0.111 C 
ATOM     14  C   UNL     1      -0.406   4.170   4.134  0.00  0.00    +0.263 C 
ATOM     15  O   UNL     1       0.636   4.738   3.885  0.00  0.00    -0.271 OA
ATOM     16  N   UNL     1      -0.904   3.077   3.523  0.00  0.00    -0.137 N 
ATOM     17  C   UNL     1      -2.076   2.708   4.051  0.00  0.00    +0.326 C 
ATOM     18  O   UNL     1      -2.716   1.748   3.670  0.00  0.00    -0.251 OA
ATOM     19  N   UNL     1      -2.467   3.518   5.051  0.00  0.00    -0.284 N 
ATOM     20  C   UNL     1      -0.788   4.476   6.587  0.00  0.00    +0.041 C 
ATOM     21  H   UNL     1      -3.349   3.535   5.708  0.00  0.00    +0.151 HD
BRANCH  13  23
ATOM     22  C   UNL     1      -3.088   6.240   5.962  0.00  0.00    +0.006 C 
ATOM     23  C   UNL     1      -1.995   5.939   4.935  0.00  0.00    +0.032 C 
ENDBRANCH  13  23
ENDBRANCH   9  16
ENDBRANCH   8  10
ENDBRANCH   1   8
BRANCH   4  24
ATOM     24  C   UNL     1      -2.723   1.794  -4.897  0.00  0.00    +0.117 C 
BRANCH  24  25
ATOM     25  C   UNL     1      -1.918   1.256  -6.052  0.00  0.00    -0.026 A 
ATOM     26  C   UNL     1      -1.367  -0.010  -5.979  0.00  0.00    +0.008 A 
ATOM     27  C   UNL     1      -0.633  -0.506  -7.040  0.00  0.00    +0.038 A 
ATOM     28  C   UNL     1      -0.441   0.269  -8.171  0.00  0.00    +0.123 A 
ATOM     29  C   UNL     1      -0.989   1.538  -8.240  0.00  0.00    +0.038 A 
ATOM     30  C   UNL     1      -1.727   2.031  -7.181  0.00  0.00    +0.008 A 
ATOM     31  F   UNL     1       0.281  -0.214  -9.206  0.00  0.00    -0.205 F 
ENDBRANCH  24  25
BRANCH  24  32
ATOM     32  C   UNL     1      -4.087   1.154  -4.893  0.00  0.00    -0.026 A 
ATOM     33  C   UNL     1      -4.237  -0.149  -4.457  0.00  0.00    +0.008 A 
ATOM     34  C   UNL     1      -5.488  -0.736  -4.449  0.00  0.00    +0.038 A 
ATOM     35  C   UNL     1      -6.590  -0.022  -4.888  0.00  0.00    +0.123 A 
ATOM     36  C   UNL     1      -6.438   1.282  -5.329  0.00  0.00    +0.038 A 
ATOM     37  C   UNL     1      -5.186   1.868  -5.332  0.00  0.00    +0.008 A 
ATOM     38  F   UNL     1      -7.813  -0.596  -4.885  0.00  0.00    -0.205 F 
ENDBRANCH  24  32
ENDBRANCH   4  24
TORSDOF 7
