REMARK  Name = ZINC40744808
REMARK  13 active torsions:
REMARK  status: ('A' for Active; 'I' for Inactive)
REMARK    1  A    between atoms: C_1  and  C_2
REMARK    2  A    between atoms: C_2  and  O_3
REMARK    3  A    between atoms: O_3  and  C_4
REMARK    4  A    between atoms: C_6  and  C_21
REMARK    5  A    between atoms: C_9  and  O_10
REMARK    6  A    between atoms: O_10  and  C_11
REMARK    7  A    between atoms: C_11  and  C_12
REMARK    8  A    between atoms: C_21  and  N_22
REMARK    9  A    between atoms: N_22  and  C_23
REMARK   10  A    between atoms: C_23  and  C_24
REMARK   11  A    between atoms: C_24  and  S_25
REMARK   12  A    between atoms: S_25  and  C_26
REMARK   13  A    between atoms: N_30  and  C_31
REMARK                            x       y       z     vdW  Elec       q    Type
REMARK                         _______ _______ _______ _____ _____    ______ ____
ROOT
ATOM      1  C   UNL     1       0.777  -1.811  -1.336  0.00  0.00    +0.164 A 
ATOM      2  C   UNL     1       0.243  -2.669  -0.388  0.00  0.00    +0.051 A 
ATOM      3  C   UNL     1       0.352  -4.037  -0.554  0.00  0.00    -0.059 A 
ATOM      4  C   UNL     1       0.992  -4.553  -1.665  0.00  0.00    +0.025 A 
ATOM      5  C   UNL     1       1.527  -3.703  -2.616  0.00  0.00    +0.086 A 
ATOM      6  C   UNL     1       1.416  -2.329  -2.458  0.00  0.00    +0.181 A 
ATOM      7 CL   UNL     1       2.331  -4.354  -4.010  0.00  0.00    -0.080 Cl
ENDROOT
BRANCH   1   8
ATOM      8  O   UNL     1       0.671  -0.465  -1.174  0.00  0.00    -0.489 OA
BRANCH   8  10
ATOM      9  C   UNL     1      -0.019   1.526   0.010  0.00  0.00    +0.048 C 
ATOM     10  C   UNL     1       0.002  -0.004   0.002  0.00  0.00    +0.226 C 
ENDBRANCH   8  10
ENDBRANCH   1   8
BRANCH   6  11
ATOM     11  O   UNL     1       1.936  -1.491  -3.395  0.00  0.00    -0.482 OA
BRANCH  11  12
ATOM     12  C   UNL     1       3.292  -1.079  -3.215  0.00  0.00    +0.264 C 
BRANCH  12  13
ATOM     13  C   UNL     1       3.691  -0.161  -4.341  0.00  0.00    -0.009 A 
ATOM     14  C   UNL     1       4.239  -0.683  -5.498  0.00  0.00    +0.008 A 
ATOM     15  C   UNL     1       4.606   0.159  -6.531  0.00  0.00    +0.022 A 
ATOM     16  C   UNL     1       4.424   1.524  -6.409  0.00  0.00    +0.059 A 
ATOM     17  C   UNL     1       3.875   2.047  -5.250  0.00  0.00    +0.060 A 
ATOM     18  C   UNL     1       3.503   1.203  -4.219  0.00  0.00    +0.028 A 
ATOM     19 CL   UNL     1       3.647   3.761  -5.095  0.00  0.00    -0.082 Cl
ATOM     20 CL   UNL     1       4.885   2.582  -7.706  0.00  0.00    -0.082 Cl
ENDBRANCH  12  13
ENDBRANCH  11  12
ENDBRANCH   6  11
BRANCH   3  21
ATOM     21  C   UNL     1      -0.229  -4.968   0.479  0.00  0.00    -0.047 C 
BRANCH  21  22
ATOM     22  N   UNL     1      -1.621  -5.282   0.128  0.00  0.00    +0.382 N 
ATOM     23  H   UNL     1      -2.161  -4.431   0.101  0.00  0.00    -0.085 HD
ATOM     24  H   UNL     1      -1.647  -5.726  -0.778  0.00  0.00    -0.085 HD
BRANCH  22  25
ATOM     25  C   UNL     1      -2.187  -6.190   1.135  0.00  0.00    -0.071 C 
BRANCH  25  26
ATOM     26  C   UNL     1      -3.636  -6.517   0.769  0.00  0.00    +0.058 C 
BRANCH  26  27
ATOM     27  S   UNL     1      -4.335  -7.638   2.012  0.00  0.00    -0.086 S 
BRANCH  27  28
ATOM     28  C   UNL     1      -5.984  -7.916   1.457  0.00  0.00    +0.209 A 
ATOM     29  N   UNL     1      -6.540  -7.411   0.377  0.00  0.00    -0.102 NA
ATOM     30  N   UNL     1      -7.754  -7.815   0.265  0.00  0.00    -0.022 NA
ATOM     31  N   UNL     1      -8.059  -8.593   1.247  0.00  0.00    -0.043 NA
ATOM     32  N   UNL     1      -6.915  -8.693   2.058  0.00  0.00    -0.223 N 
ATOM     33  C   UNL     1      -6.764  -9.470   3.291  0.00  0.00    +0.177 C 
ENDBRANCH  27  28
ENDBRANCH  26  27
ENDBRANCH  25  26
ENDBRANCH  22  25
ENDBRANCH  21  22
ENDBRANCH   3  21
TORSDOF 11
