REMARK  Name = ZINC59124535
REMARK  6 active torsions:
REMARK  status: ('A' for Active; 'I' for Inactive)
REMARK    1  A    between atoms: C_1  and  C_2
REMARK    2  A    between atoms: C_5  and  C_32
REMARK    3  A    between atoms: C_6  and  C_8
REMARK    4  A    between atoms: N_18  and  C_25
REMARK    5  A    between atoms: C_20  and  C_22
REMARK    6  A    between atoms: C_22  and  C_24
REMARK                            x       y       z     vdW  Elec       q    Type
REMARK                         _______ _______ _______ _____ _____    ______ ____
ROOT
ATOM      1  C   UNL     1       0.054  -2.845   2.489  0.00  0.00    +0.110 C 
ATOM      2  C   UNL     1      -1.369  -3.182   2.944  0.00  0.00    -0.023 A 
ATOM      3  C   UNL     1      -2.352  -3.716   2.107  0.00  0.00    +0.005 A 
ATOM      4  C   UNL     1      -3.613  -4.005   2.572  0.00  0.00    +0.000 A 
ATOM      5  C   UNL     1      -3.920  -3.762   3.898  0.00  0.00    +0.000 A 
ATOM      6  C   UNL     1      -2.961  -3.234   4.729  0.00  0.00    +0.008 A 
ATOM      7  C   UNL     1      -1.675  -2.934   4.268  0.00  0.00    +0.003 A 
ATOM      8  C   UNL     1      -0.567  -2.344   5.099  0.00  0.00    +0.180 C 
ATOM      9  S   UNL     1       0.652  -1.778   3.867  0.00  0.00    -0.105 S 
ATOM     10  N   UNL     1      -0.975  -1.297   6.021  0.00  0.00    -0.193 N 
ATOM     11  N   UNL     1      -0.690  -1.557   7.352  0.00  0.00    -0.167 NA
ATOM     12  C   UNL     1      -0.100  -2.659   7.749  0.00  0.00    +0.160 C 
ATOM     13  S   UNL     1       0.171  -3.569   6.232  0.00  0.00    -0.058 S 
ENDROOT
BRANCH   1  19
ATOM     14  C   UNL     1      -0.018   1.503   0.010  0.00  0.00    +0.044 C 
ATOM     15  C   UNL     1       0.002  -0.004   0.002  0.00  0.00    -0.050 A 
ATOM     16  C   UNL     1       0.006  -0.689  -1.199  0.00  0.00    +0.003 A 
ATOM     17  C   UNL     1       0.025  -2.071  -1.207  0.00  0.00    +0.004 A 
ATOM     18  C   UNL     1       0.040  -2.768  -0.013  0.00  0.00    -0.046 A 
ATOM     19  C   UNL     1       0.037  -2.084   1.188  0.00  0.00    -0.027 A 
ATOM     20  C   UNL     1       0.023  -0.702   1.195  0.00  0.00    +0.008 A 
ATOM     21  C   UNL     1       0.059  -4.275  -0.021  0.00  0.00    +0.044 C 
ENDBRANCH   1  19
BRANCH  10  22
ATOM     22  C   UNL     1      -1.603  -0.125   5.599  0.00  0.00    +0.054 A 
ATOM     23  C   UNL     1      -1.867   0.077   4.250  0.00  0.00    +0.026 A 
ATOM     24  C   UNL     1      -2.490   1.238   3.836  0.00  0.00    +0.017 A 
ATOM     25  C   UNL     1      -2.849   2.201   4.763  0.00  0.00    +0.018 A 
ATOM     26  C   UNL     1      -2.587   2.003   6.108  0.00  0.00    +0.017 A 
ATOM     27  C   UNL     1      -1.970   0.841   6.529  0.00  0.00    +0.026 A 
ATOM     28 BR   UNL     1      -3.700   3.790   4.192  0.00  0.00    -0.050 Br
ENDBRANCH  10  22
BRANCH  12  29
ATOM     29  C   UNL     1       0.243  -3.040   9.069  0.00  0.00    +0.186 C 
ATOM     30  O   UNL     1       0.792  -4.104   9.271  0.00  0.00    -0.290 OA
ATOM     31  C   UNL     1      -0.073  -2.125  10.224  0.00  0.00    +0.094 C 
ENDBRANCH  12  29
TORSDOF 3
