REMARK  Name = ZINC64930885
REMARK  7 active torsions:
REMARK  status: ('A' for Active; 'I' for Inactive)
REMARK    1  A    between atoms: C_1  and  C_2
REMARK    2  A    between atoms: C_2  and  C_3
REMARK    3  A    between atoms: C_3  and  C_5
REMARK    4  A    between atoms: C_3  and  N_6
REMARK    5  A    between atoms: C_13  and  C_15
REMARK    6  A    between atoms: C_18  and  C_20
REMARK    7  A    between atoms: N_22  and  C_23
REMARK                            x       y       z     vdW  Elec       q    Type
REMARK                         _______ _______ _______ _____ _____    ______ ____
ROOT
ATOM      1  C   UNL     1      -6.219  -0.841  -2.342  0.00  0.00    +0.123 A 
ATOM      2  N   UNL     1      -5.878  -2.051  -2.737  0.00  0.00    -0.144 NA
ATOM      3  N   UNL     1      -6.558  -3.072  -2.435  0.00  0.00    -0.136 NA
ATOM      4  C   UNL     1      -7.652  -2.916  -1.695  0.00  0.00    +0.187 A 
ATOM      5  S   UNL     1      -7.622  -1.145  -1.457  0.00  0.00    -0.044 S 
ENDROOT
BRANCH   1  13
ATOM      6  N   UNL     1      -2.108  -0.143  -1.278  0.00  0.00    -0.297 N 
ATOM      7  C   UNL     1      -3.451  -0.035  -1.302  0.00  0.00    +0.303 C 
ATOM      8  O   UNL     1      -4.097  -0.258  -0.296  0.00  0.00    -0.253 OA
ATOM      9  N   UNL     1      -4.078   0.319  -2.441  0.00  0.00    -0.276 N 
ATOM     10  C   UNL     1      -3.422   0.610  -3.729  0.00  0.00    +0.110 C 
ATOM     11  C   UNL     1      -4.418   1.525  -4.484  0.00  0.00    +0.021 C 
ATOM     12  C   UNL     1      -5.781   0.915  -4.064  0.00  0.00    +0.031 C 
ATOM     13  C   UNL     1      -5.531   0.473  -2.607  0.00  0.00    +0.135 C 
ATOM     14  H   UNL     1      -1.592   0.034  -2.080  0.00  0.00    +0.151 HD
BRANCH   6  15
ATOM     15  C   UNL     1      -1.426  -0.528  -0.040  0.00  0.00    +0.071 C 
ATOM     16  C   UNL     1      -1.403  -2.054   0.077  0.00  0.00    +0.028 C 
BRANCH  15  18
ATOM     17  C   UNL     1      -0.013   1.532  -0.053  0.00  0.00    +0.005 C 
ATOM     18  C   UNL     1       0.009   0.003  -0.062  0.00  0.00    +0.019 C 
ENDBRANCH  15  18
ENDBRANCH   6  15
ENDBRANCH   1  13
BRANCH   4  19
ATOM     19  C   UNL     1      -8.613  -3.918  -1.206  0.00  0.00    +0.275 C 
ATOM     20  O   UNL     1      -9.565  -3.571  -0.533  0.00  0.00    -0.268 OA
ATOM     21  N   UNL     1      -8.439  -5.221  -1.504  0.00  0.00    -0.280 N 
ATOM     22  H   UNL     1      -7.719  -5.491  -2.096  0.00  0.00    +0.155 HD
BRANCH  21  23
ATOM     23  C   UNL     1      -9.296  -6.184  -0.961  0.00  0.00    +0.037 A 
ATOM     24  C   UNL     1      -8.804  -7.436  -0.614  0.00  0.00    +0.026 A 
ATOM     25  C   UNL     1      -9.651  -8.386  -0.077  0.00  0.00    +0.043 A 
ATOM     26  C   UNL     1     -10.990  -8.093   0.115  0.00  0.00    +0.159 A 
ATOM     27  C   UNL     1     -11.484  -6.844  -0.231  0.00  0.00    +0.160 A 
ATOM     28  C   UNL     1     -10.638  -5.888  -0.762  0.00  0.00    +0.064 A 
ATOM     29  F   UNL     1     -12.791  -6.559  -0.043  0.00  0.00    -0.202 F 
ATOM     30  F   UNL     1     -11.816  -9.024   0.640  0.00  0.00    -0.202 F 
ENDBRANCH  21  23
ENDBRANCH   4  19
TORSDOF 5
