REMARK  Name = ZINC41082522
REMARK  12 active torsions:
REMARK  status: ('A' for Active; 'I' for Inactive)
REMARK    1  A    between atoms: C_1  and  C_2
REMARK    2  A    between atoms: C_2  and  O_3
REMARK    3  A    between atoms: O_3  and  C_4
REMARK    4  A    between atoms: C_6  and  C_23
REMARK    5  A    between atoms: C_9  and  O_10
REMARK    6  A    between atoms: O_10  and  C_11
REMARK    7  A    between atoms: C_11  and  C_12
REMARK    8  A    between atoms: C_12  and  O_13
REMARK    9  A    between atoms: O_13  and  C_14
REMARK   10  A    between atoms: C_19  and  O_20
REMARK   11  A    between atoms: O_20  and  C_21
REMARK   12  A    between atoms: C_33  and  C_35
REMARK                            x       y       z     vdW  Elec       q    Type
REMARK                         _______ _______ _______ _____ _____    ______ ____
ROOT
ATOM      1  C   UNL     1      -1.615  -1.916   0.001  0.00  0.00    +0.164 A 
ATOM      2  C   UNL     1      -0.488  -2.710  -0.067  0.00  0.00    +0.057 A 
ATOM      3  C   UNL     1      -0.604  -4.100   0.079  0.00  0.00    -0.019 A 
ATOM      4  C   UNL     1      -1.866  -4.675   0.291  0.00  0.00    +0.032 A 
ATOM      5  C   UNL     1      -2.984  -3.873   0.357  0.00  0.00    +0.087 A 
ATOM      6  C   UNL     1      -2.865  -2.495   0.218  0.00  0.00    +0.180 A 
ATOM      7 CL   UNL     1      -4.545  -4.585   0.620  0.00  0.00    -0.080 Cl
ENDROOT
BRANCH   3   8
ATOM      8  C   UNL     1       0.587  -4.949   0.008  0.00  0.00    +0.025 C 
ATOM      9  C   UNL     1       0.497  -6.220  -0.513  0.00  0.00    +0.084 C 
ATOM     10  C   UNL     1      -0.742  -6.717  -1.186  0.00  0.00    +0.176 C 
ATOM     11  N   UNL     1      -1.563  -5.947  -1.850  0.00  0.00    -0.280 NA
ATOM     12  N   UNL     1      -0.927  -8.084  -1.032  0.00  0.00    -0.142 N 
ATOM     13  C   UNL     1       0.125  -8.919  -0.751  0.00  0.00    +0.168 C 
ATOM     14  N   UNL     1       1.363  -8.498  -0.497  0.00  0.00    -0.156 NA
ATOM     15  C   UNL     1       1.625  -7.182  -0.448  0.00  0.00    +0.273 C 
ATOM     16  O   UNL     1       2.774  -6.781  -0.347  0.00  0.00    -0.268 OA
ATOM     17  C   UNL     1      -0.384 -10.225  -0.779  0.00  0.00    +0.091 C 
ATOM     18  C   UNL     1      -1.714 -10.159  -1.011  0.00  0.00    +0.134 C 
ATOM     19  O   UNL     1      -2.083  -8.872  -1.124  0.00  0.00    -0.375 OA
ATOM     20  C   UNL     1      -2.639 -11.344  -1.124  0.00  0.00    +0.089 C 
ATOM     21  H   UNL     1      -1.341  -5.014  -1.998  0.00  0.00    +0.188 HD
ENDBRANCH   3   8
BRANCH   1  22
ATOM     22  O   UNL     1      -1.505  -0.568  -0.139  0.00  0.00    -0.489 OA
BRANCH  22  24
ATOM     23  C   UNL     1      -0.270   1.479  -0.491  0.00  0.00    +0.048 C 
ATOM     24  C   UNL     1      -0.194  -0.043  -0.359  0.00  0.00    +0.226 C 
ENDBRANCH  22  24
ENDBRANCH   1  22
BRANCH   6  25
ATOM     25  O   UNL     1      -3.971  -1.709   0.289  0.00  0.00    -0.483 OA
BRANCH  25  26
ATOM     26  C   UNL     1      -4.663  -1.451  -0.934  0.00  0.00    +0.270 C 
BRANCH  26  27
ATOM     27  C   UNL     1      -5.872  -0.556  -0.656  0.00  0.00    +0.270 C 
BRANCH  27  28
ATOM     28  O   UNL     1      -5.424   0.722  -0.199  0.00  0.00    -0.485 OA
BRANCH  28  29
ATOM     29  C   UNL     1      -6.380   1.643   0.095  0.00  0.00    +0.162 A 
ATOM     30  C   UNL     1      -7.721   1.322  -0.049  0.00  0.00    +0.049 A 
ATOM     31  C   UNL     1      -8.691   2.259   0.251  0.00  0.00    +0.004 A 
ATOM     32  C   UNL     1      -8.329   3.518   0.693  0.00  0.00    +0.004 A 
ATOM     33  C   UNL     1      -6.993   3.845   0.838  0.00  0.00    +0.049 A 
ATOM     34  C   UNL     1      -6.015   2.908   0.545  0.00  0.00    +0.161 A 
BRANCH  34  35
ATOM     35  O   UNL     1      -4.701   3.225   0.693  0.00  0.00    -0.491 OA
ATOM     36  C   UNL     1      -4.400   4.542   1.160  0.00  0.00    +0.277 C 
ENDBRANCH  34  35
ENDBRANCH  28  29
ENDBRANCH  27  28
ENDBRANCH  26  27
ENDBRANCH  25  26
ENDBRANCH   6  25
TORSDOF 9
