REMARK  Name = ZINC02414675
REMARK  7 active torsions:
REMARK  status: ('A' for Active; 'I' for Inactive)
REMARK    1  A    between atoms: C_1  and  N_2
REMARK    2  A    between atoms: N_5  and  C_22
REMARK    3  A    between atoms: C_6  and  C_14
REMARK    4  A    between atoms: N_10  and  C_13
REMARK    5  A    between atoms: C_17  and  O_20
REMARK    6  A    between atoms: O_20  and  C_21
REMARK    7  A    between atoms: C_27  and  O_28
REMARK                            x       y       z     vdW  Elec       q    Type
REMARK                         _______ _______ _______ _____ _____    ______ ____
ROOT
ATOM      1  C   UNL     1       1.060   3.707  -0.370  0.00  0.00    +0.154 C 
ATOM      2  N   UNL     1       1.105   2.243  -0.341  0.00  0.00    -0.295 N 
ATOM      3  C   UNL     1      -0.071   1.513  -0.140  0.00  0.00    +0.077 A 
ATOM      4  C   UNL     1      -1.365   1.814   0.061  0.00  0.00    +0.118 A 
ATOM      5  N   UNL     1      -2.084   0.653   0.196  0.00  0.00    -0.310 N 
ATOM      6  C   UNL     1      -1.256  -0.428   0.093  0.00  0.00    +0.068 A 
ATOM      7  C   UNL     1       0.028   0.044  -0.119  0.00  0.00    +0.089 A 
ATOM      8  C   UNL     1       1.351  -0.552  -0.311  0.00  0.00    +0.266 A 
ATOM      9  O   UNL     1       1.497  -1.760  -0.305  0.00  0.00    -0.267 OA
ATOM     10  N   UNL     1       2.404   0.272  -0.496  0.00  0.00    -0.263 N 
ATOM     11  C   UNL     1       2.277   1.605  -0.509  0.00  0.00    +0.332 A 
ATOM     12  O   UNL     1       3.277   2.276  -0.681  0.00  0.00    -0.246 OA
ATOM     13  C   UNL     1       3.733  -0.313  -0.689  0.00  0.00    +0.157 C 
ENDROOT
BRANCH   5  14
ATOM     14  C   UNL     1      -3.467   0.586   0.414  0.00  0.00    +0.089 A 
ATOM     15  C   UNL     1      -4.348   1.013  -0.565  0.00  0.00    +0.033 A 
ATOM     16  C   UNL     1      -5.720   0.951  -0.357  0.00  0.00    -0.042 A 
ATOM     17  C   UNL     1      -6.210   0.456   0.832  0.00  0.00    -0.041 A 
ATOM     18  C   UNL     1      -5.331   0.029   1.819  0.00  0.00    +0.051 A 
ATOM     19  C   UNL     1      -3.964   0.086   1.615  0.00  0.00    +0.141 A 
ATOM     20  C   UNL     1      -7.686   0.351   1.119  0.00  0.00    +0.035 C 
ATOM     21  C   UNL     1      -8.482   1.239   0.164  0.00  0.00    +0.005 C 
ATOM     22  C   UNL     1      -8.041   0.925  -1.270  0.00  0.00    +0.005 C 
ATOM     23  C   UNL     1      -6.617   1.446  -1.461  0.00  0.00    +0.035 C 
BRANCH  19  24
ATOM     24  O   UNL     1      -3.110  -0.340   2.584  0.00  0.00    -0.505 OA
ATOM     25  H   UNL     1      -2.849   0.350   3.209  0.00  0.00    +0.292 HD
ENDBRANCH  19  24
ENDBRANCH   5  14
BRANCH   6  26
ATOM     26  C   UNL     1      -1.658  -1.844   0.191  0.00  0.00    -0.000 A 
ATOM     27  C   UNL     1      -2.679  -2.341  -0.624  0.00  0.00    +0.013 A 
ATOM     28  C   UNL     1      -3.047  -3.666  -0.532  0.00  0.00    +0.046 A 
ATOM     29  C   UNL     1      -2.413  -4.504   0.375  0.00  0.00    +0.120 A 
ATOM     30  C   UNL     1      -1.401  -4.013   1.190  0.00  0.00    +0.046 A 
ATOM     31  C   UNL     1      -1.022  -2.691   1.102  0.00  0.00    +0.013 A 
BRANCH  29  32
ATOM     32  O   UNL     1      -2.783  -5.808   0.465  0.00  0.00    -0.495 OA
ATOM     33  C   UNL     1      -3.830  -6.247  -0.402  0.00  0.00    +0.277 C 
ENDBRANCH  29  32
ENDBRANCH   6  26
TORSDOF 4
