REMARK  Name = ZINC39666510
REMARK  8 active torsions:
REMARK  status: ('A' for Active; 'I' for Inactive)
REMARK    1  A    between atoms: C_1  and  C_2
REMARK    2  A    between atoms: C_5  and  C_10
REMARK    3  A    between atoms: C_14  and  C_23
REMARK    4  A    between atoms: N_25  and  C_26
REMARK    5  A    between atoms: C_26  and  C_27
REMARK    6  A    between atoms: C_27  and  C_29
REMARK    7  A    between atoms: C_27  and  O_30
REMARK    8  A    between atoms: O_30  and  C_31
REMARK                            x       y       z     vdW  Elec       q    Type
REMARK                         _______ _______ _______ _____ _____    ______ ____
ROOT
ATOM      1  C   UNL     1       1.289  -4.614   0.794  0.00  0.00    +0.250 C 
ATOM      2  O   UNL     1       1.609  -5.286   1.755  0.00  0.00    -0.270 OA
ATOM      3  N   UNL     1       0.969  -5.212  -0.370  0.00  0.00    -0.296 N 
ATOM      4  C   UNL     1       0.660  -4.566  -1.668  0.00  0.00    +0.121 C 
ATOM      5  C   UNL     1       1.335  -5.470  -2.724  0.00  0.00    +0.100 C 
ATOM      6  C   UNL     1       1.452  -6.845  -2.046  0.00  0.00    -0.004 C 
ATOM      7  C   UNL     1       0.853  -6.664  -0.644  0.00  0.00    +0.115 C 
ATOM      8  C   UNL     1       2.917  -7.257  -1.937  0.00  0.00    -0.010 C 
ATOM      9  C   UNL     1       3.006  -8.652  -1.312  0.00  0.00    -0.082 C 
ATOM     10  N   UNL     1       2.268  -9.611  -2.143  0.00  0.00    +0.379 N 
ATOM     11  C   UNL     1       0.843  -9.260  -2.167  0.00  0.00    -0.082 C 
ATOM     12  C   UNL     1       0.663  -7.890  -2.829  0.00  0.00    -0.010 C 
ATOM     13  H   UNL     1       2.634  -9.590  -3.083  0.00  0.00    -0.086 HD
ATOM     14  H   UNL     1       2.378 -10.539  -1.763  0.00  0.00    -0.086 HD
ENDROOT
BRANCH   1  19
ATOM     15  C   UNL     1       1.133   1.125   1.216  0.00  0.00    +0.047 C 
ATOM     16  C   UNL     1       1.176  -0.377   1.107  0.00  0.00    -0.012 A 
ATOM     17  C   UNL     1       0.261  -1.036   0.303  0.00  0.00    +0.007 A 
ATOM     18  C   UNL     1       0.293  -2.410   0.197  0.00  0.00    +0.016 A 
ATOM     19  C   UNL     1       1.251  -3.141   0.903  0.00  0.00    +0.075 A 
ATOM     20  C   UNL     1       2.174  -2.473   1.713  0.00  0.00    +0.171 A 
ATOM     21  C   UNL     1       2.134  -1.091   1.806  0.00  0.00    +0.162 A 
ATOM     22  F   UNL     1       3.027  -0.441   2.583  0.00  0.00    -0.202 F 
ATOM     23  F   UNL     1       3.104  -3.172   2.400  0.00  0.00    -0.202 F 
ENDBRANCH   1  19
BRANCH   5  24
ATOM     24  C   UNL     1       2.700  -4.937  -3.076  0.00  0.00    +0.218 C 
ATOM     25  O   UNL     1       3.355  -4.349  -2.241  0.00  0.00    -0.275 OA
ATOM     26  N   UNL     1       3.192  -5.114  -4.318  0.00  0.00    -0.312 N 
ATOM     27  H   UNL     1       2.669  -5.584  -4.985  0.00  0.00    +0.149 HD
BRANCH  26  28
ATOM     28  C   UNL     1       4.519  -4.596  -4.660  0.00  0.00    +0.148 C 
BRANCH  28  29
ATOM     29  C   UNL     1       4.836  -4.928  -6.119  0.00  0.00    +0.187 C 
ATOM     30  C   UNL     1       6.222  -4.387  -6.476  0.00  0.00    +0.053 C 
BRANCH  29  31
ATOM     31  O   UNL     1       4.817  -6.346  -6.300  0.00  0.00    -0.486 OA
BRANCH  31  32
ATOM     32  C   UNL     1       4.561  -6.804  -7.554  0.00  0.00    +0.139 A 
ATOM     33  C   UNL     1       4.449  -5.913  -8.610  0.00  0.00    +0.047 A 
ATOM     34  C   UNL     1       4.189  -6.381  -9.884  0.00  0.00    +0.004 A 
ATOM     35  C   UNL     1       4.041  -7.738 -10.106  0.00  0.00    +0.002 A 
ATOM     36  C   UNL     1       4.152  -8.630  -9.055  0.00  0.00    +0.023 A 
ATOM     37  C   UNL     1       4.418  -8.166  -7.780  0.00  0.00    +0.083 A 
ATOM     38 CL   UNL     1       4.565  -9.286  -6.462  0.00  0.00    -0.080 Cl
ENDBRANCH  31  32
ENDBRANCH  29  31
ENDBRANCH  28  29
ENDBRANCH  26  28
ENDBRANCH   5  24
TORSDOF 6
