REMARK  Name = ZINC16291129
REMARK  15 active torsions:
REMARK  status: ('A' for Active; 'I' for Inactive)
REMARK    1  A    between atoms: C_1  and  C_2
REMARK    2  A    between atoms: C_2  and  C_3
REMARK    3  A    between atoms: C_3  and  C_4
REMARK    4  A    between atoms: C_4  and  N_5
REMARK    5  A    between atoms: C_6  and  N_35
REMARK    6  A    between atoms: C_7  and  N_14
REMARK    7  A    between atoms: N_14  and  C_15
REMARK    8  A    between atoms: C_15  and  C_16
REMARK    9  A    between atoms: C_22  and  C_24
REMARK   10  A    between atoms: C_24  and  S_25
REMARK   11  A    between atoms: S_25  and  C_26
REMARK   12  A    between atoms: N_30  and  C_31
REMARK   13  A    between atoms: C_31  and  C_32
REMARK   14  A    between atoms: C_31  and  C_33
REMARK   15  A    between atoms: C_31  and  C_34
REMARK                            x       y       z     vdW  Elec       q    Type
REMARK                         _______ _______ _______ _____ _____    ______ ____
ROOT
ATOM      1  N   UNL     1       2.365   3.764   0.044  0.00  0.00    -0.259 N 
ATOM      2  C   UNL     1       2.161   5.097   0.003  0.00  0.00    +0.231 C 
ATOM      3  O   UNL     1       1.076   5.535  -0.316  0.00  0.00    -0.274 OA
ENDROOT
BRANCH   1   6
ATOM      4  N   UNL     1      -0.225   1.217   0.603  0.00  0.00    -0.280 N 
ATOM      5  C   UNL     1       0.827   2.070   0.846  0.00  0.00    +0.127 A 
ATOM      6  C   UNL     1       1.287   2.878  -0.173  0.00  0.00    +0.140 A 
ATOM      7  C   UNL     1       0.664   2.805  -1.433  0.00  0.00    +0.277 A 
ATOM      8  O   UNL     1       1.052   3.508  -2.351  0.00  0.00    -0.266 OA
ATOM      9  N   UNL     1      -0.362   1.952  -1.618  0.00  0.00    -0.273 N 
ATOM     10  H   UNL     1      -0.803   1.896  -2.514  0.00  0.00    +0.173 HD
ATOM     11  C   UNL     1      -0.801   1.175  -0.612  0.00  0.00    +0.331 A 
ATOM     12  O   UNL     1      -1.733   0.418  -0.804  0.00  0.00    -0.246 OA
BRANCH   5  13
ATOM     13  N   UNL     1       1.412   2.116   2.088  0.00  0.00    -0.343 N 
ATOM     14  H   UNL     1       2.092   2.781   2.280  0.00  0.00    +0.144 HD
ATOM     15  H   UNL     1       1.146   1.484   2.774  0.00  0.00    +0.144 HD
ENDBRANCH   5  13
BRANCH   4  16
ATOM     16  C   UNL     1      -0.724   0.353   1.676  0.00  0.00    +0.128 C 
BRANCH  16  17
ATOM     17  C   UNL     1      -1.825   1.083   2.447  0.00  0.00    +0.021 C 
BRANCH  17  19
ATOM     18  C   UNL     1      -3.449   0.911   4.339  0.00  0.00    +0.004 C 
ATOM     19  C   UNL     1      -2.347   0.181   3.568  0.00  0.00    -0.002 C 
ENDBRANCH  17  19
ENDBRANCH  16  17
ENDBRANCH   4  16
ENDBRANCH   1   6
BRANCH   1  20
ATOM     20  C   UNL     1       3.704   3.235   0.315  0.00  0.00    +0.149 C 
BRANCH  20  21
ATOM     21  C   UNL     1       4.426   3.006  -0.988  0.00  0.00    -0.030 A 
ATOM     22  C   UNL     1       4.243   1.825  -1.682  0.00  0.00    +0.005 A 
ATOM     23  C   UNL     1       4.902   1.618  -2.880  0.00  0.00    +0.000 A 
ATOM     24  C   UNL     1       5.752   2.587  -3.378  0.00  0.00    +0.000 A 
ATOM     25  C   UNL     1       5.940   3.766  -2.681  0.00  0.00    +0.000 A 
ATOM     26  C   UNL     1       5.277   3.976  -1.486  0.00  0.00    +0.005 A 
ENDBRANCH  20  21
ENDBRANCH   1  20
BRANCH   2  27
ATOM     27  C   UNL     1       3.282   6.041   0.352  0.00  0.00    +0.173 C 
BRANCH  27  28
ATOM     28  S   UNL     1       2.650   7.736   0.402  0.00  0.00    -0.075 S 
BRANCH  28  29
ATOM     29  C   UNL     1       4.126   8.602   0.820  0.00  0.00    +0.210 A 
ATOM     30  N   UNL     1       5.313   8.071   1.020  0.00  0.00    -0.101 NA
ATOM     31  N   UNL     1       6.171   8.983   1.308  0.00  0.00    -0.022 NA
ATOM     32  N   UNL     1       5.607  10.142   1.315  0.00  0.00    -0.043 NA
ATOM     33  N   UNL     1       4.254   9.939   0.991  0.00  0.00    -0.215 N 
BRANCH  33  34
ATOM     34  C   UNL     1       3.207  10.956   0.867  0.00  0.00    +0.060 C 
ATOM     35  C   UNL     1       2.094  10.667   1.877  0.00  0.00    +0.036 C 
ATOM     36  C   UNL     1       3.802  12.337   1.146  0.00  0.00    +0.036 C 
ATOM     37  C   UNL     1       2.631  10.925  -0.550  0.00  0.00    +0.036 C 
ENDBRANCH  33  34
ENDBRANCH  28  29
ENDBRANCH  27  28
ENDBRANCH   2  27
TORSDOF 11
