REMARK  Name = ZINC37810617
REMARK  5 active torsions:
REMARK  status: ('A' for Active; 'I' for Inactive)
REMARK    1  A    between atoms: C_4  and  C_7
REMARK    2  A    between atoms: C_4  and  N_23
REMARK    3  A    between atoms: N_9  and  C_10
REMARK    4  A    between atoms: N_9  and  C_17
REMARK    5  A    between atoms: C_10  and  C_11
REMARK                            x       y       z     vdW  Elec       q    Type
REMARK                         _______ _______ _______ _____ _____    ______ ____
ROOT
ATOM      1  C   UNL     1       2.277  -0.272   0.231  0.00  0.00    +0.204 C 
ATOM      2  O   UNL     1       1.567   0.127   1.130  0.00  0.00    -0.277 OA
ATOM      3  N   UNL     1       3.192  -1.231   0.471  0.00  0.00    -0.296 N 
ENDROOT
BRANCH   1   7
ATOM      4  C   UNL     1      -0.745  -0.052  -1.562  0.00  0.00    -0.000 C 
ATOM      5  C   UNL     1       0.220  -1.238  -1.600  0.00  0.00    -0.001 C 
ATOM      6  C   UNL     1       1.588  -0.768  -2.099  0.00  0.00    -0.004 C 
ATOM      7  C   UNL     1       2.135   0.304  -1.154  0.00  0.00    +0.007 C 
ATOM      8  C   UNL     1       1.169   1.491  -1.116  0.00  0.00    -0.004 C 
ATOM      9  C   UNL     1      -0.198   1.020  -0.617  0.00  0.00    -0.001 C 
BRANCH   7  10
ATOM     10  N   UNL     1       3.448   0.756  -1.633  0.00  0.00    +0.388 N 
ATOM     11  H   UNL     1       3.324   1.376  -2.420  0.00  0.00    -0.089 HD
ATOM     12  H   UNL     1       3.926   1.245  -0.892  0.00  0.00    -0.089 HD
ATOM     13  H   UNL     1       3.995  -0.043  -1.918  0.00  0.00    -0.089 HD
ENDBRANCH   7  10
ENDBRANCH   1   7
BRANCH   3  14
ATOM     14  C   UNL     1       3.269  -1.856   1.794  0.00  0.00    +0.087 C 
ATOM     15  C   UNL     1       3.828  -0.836   2.785  0.00  0.00    +0.034 C 
ATOM     16  C   UNL     1       2.672  -0.025   3.433  0.00  0.00    +0.071 C 
ATOM     17  S   UNL     1       1.434  -1.377   3.656  0.00  0.00    -0.159 S 
ATOM     18  C   UNL     1       1.870  -2.376   2.177  0.00  0.00    +0.091 C 
ENDBRANCH   3  14
BRANCH   3  19
ATOM     19  C   UNL     1       4.111  -1.650  -0.591  0.00  0.00    +0.139 C 
BRANCH  19  20
ATOM     20  C   UNL     1       5.425  -0.878  -0.462  0.00  0.00    +0.136 C 
ATOM     21  C   UNL     1       6.361  -1.237  -1.636  0.00  0.00    +0.035 C 
ATOM     22  C   UNL     1       7.750  -1.301  -0.943  0.00  0.00    +0.031 C 
ATOM     23  C   UNL     1       7.358  -1.854   0.451  0.00  0.00    +0.160 C 
ATOM     24  O   UNL     1       6.089  -1.248   0.752  0.00  0.00    -0.375 OA
ENDBRANCH  19  20
ENDBRANCH   3  19
TORSDOF 5
