REMARK  Name = ZINC04810198
REMARK  9 active torsions:
REMARK  status: ('A' for Active; 'I' for Inactive)
REMARK    1  A    between atoms: C_1  and  C_2
REMARK    2  A    between atoms: C_5  and  C_8
REMARK    3  A    between atoms: C_15  and  O_16
REMARK    4  A    between atoms: C_18  and  C_31
REMARK    5  A    between atoms: C_18  and  O_32
REMARK    6  A    between atoms: C_19  and  C_21
REMARK    7  A    between atoms: C_21  and  O_23
REMARK    8  A    between atoms: O_23  and  C_24
REMARK    9  A    between atoms: C_24  and  C_25
REMARK                            x       y       z     vdW  Elec       q    Type
REMARK                         _______ _______ _______ _____ _____    ______ ____
ROOT
ATOM      1  C   UNL     1      -0.041  -4.445   0.086  0.00  0.00    +0.072 C 
ATOM      2  C   UNL     1      -1.039  -5.141   0.977  0.00  0.00    +0.044 A 
ATOM      3  C   UNL     1      -0.728  -6.158   1.821  0.00  0.00    +0.046 A 
ATOM      4  N   UNL     1      -1.854  -6.529   2.453  0.00  0.00    -0.278 N 
ATOM      5  H   UNL     1      -1.931  -7.233   3.116  0.00  0.00    +0.189 HD
ATOM      6  N   UNL     1      -2.899  -5.718   1.986  0.00  0.00    -0.136 NA
ATOM      7  C   UNL     1      -2.407  -4.884   1.098  0.00  0.00    +0.235 A 
ATOM      8  C   UNL     1       0.658  -6.732   1.978  0.00  0.00    +0.090 C 
ATOM      9  C   UNL     1       1.505  -6.287   0.779  0.00  0.00    +0.082 C 
ATOM     10  C   UNL     1       1.370  -4.775   0.590  0.00  0.00    +0.141 C 
ATOM     11  C   UNL     1       2.972  -6.641   1.033  0.00  0.00    +0.042 C 
ENDROOT
BRANCH   1  16
ATOM     12  C   UNL     1      -0.893   1.267   0.295  0.00  0.00    +0.044 C 
ATOM     13  C   UNL     1      -0.671  -0.223   0.240  0.00  0.00    -0.050 A 
ATOM     14  C   UNL     1      -0.804  -0.984   1.387  0.00  0.00    +0.003 A 
ATOM     15  C   UNL     1      -0.600  -2.350   1.337  0.00  0.00    +0.004 A 
ATOM     16  C   UNL     1      -0.264  -2.956   0.140  0.00  0.00    -0.039 A 
ATOM     17  C   UNL     1      -0.132  -2.195  -1.006  0.00  0.00    +0.004 A 
ATOM     18  C   UNL     1      -0.340  -0.829  -0.957  0.00  0.00    +0.003 A 
ENDBRANCH   1  16
BRANCH   7  19
ATOM     19  O   UNL     1      -3.106  -3.937   0.417  0.00  0.00    -0.491 OA
ATOM     20  H   UNL     1      -3.475  -4.248  -0.422  0.00  0.00    +0.294 HD
ENDBRANCH   7  19
BRANCH  10  21
ATOM     21  C   UNL     1       1.608  -4.082   1.906  0.00  0.00    +0.314 C 
ATOM     22  O   UNL     1       0.852  -4.265   2.831  0.00  0.00    -0.250 OA
BRANCH  21  23
ATOM     23  O   UNL     1       2.660  -3.260   2.052  0.00  0.00    -0.460 OA
BRANCH  23  24
ATOM     24  C   UNL     1       2.889  -2.725   3.357  0.00  0.00    +0.267 C 
BRANCH  24  25
ATOM     25  C   UNL     1       4.169  -1.930   3.355  0.00  0.00    -0.010 A 
ATOM     26  C   UNL     1       5.380  -2.569   3.545  0.00  0.00    +0.007 A 
ATOM     27  C   UNL     1       6.554  -1.839   3.544  0.00  0.00    +0.000 A 
ATOM     28  C   UNL     1       6.518  -0.470   3.353  0.00  0.00    +0.000 A 
ATOM     29  C   UNL     1       5.307   0.168   3.162  0.00  0.00    +0.000 A 
ATOM     30  C   UNL     1       4.133  -0.562   3.159  0.00  0.00    +0.007 A 
ENDBRANCH  24  25
ENDBRANCH  23  24
ENDBRANCH  21  23
ENDBRANCH  10  21
BRANCH   9  31
ATOM     31  O   UNL     1       1.050  -6.956  -0.399  0.00  0.00    -0.388 OA
ATOM     32  H   UNL     1       1.108  -7.920  -0.351  0.00  0.00    +0.210 HD
ENDBRANCH   9  31
TORSDOF 7
