REMARK  Name = ZINC59443913
REMARK  16 active torsions:
REMARK  status: ('A' for Active; 'I' for Inactive)
REMARK    1  A    between atoms: C_1  and  C_2
REMARK    2  A    between atoms: C_2  and  O_3
REMARK    3  A    between atoms: O_3  and  C_4
REMARK    4  A    between atoms: C_9  and  C_10
REMARK    5  A    between atoms: N_11  and  N_12
REMARK    6  A    between atoms: C_13  and  C_15
REMARK    7  A    between atoms: C_15  and  N_16
REMARK    8  A    between atoms: N_16  and  C_17
REMARK    9  A    between atoms: N_16  and  S_25
REMARK   10  A    between atoms: C_17  and  C_18
REMARK   11  A    between atoms: C_18  and  C_19
REMARK   12  A    between atoms: S_25  and  C_28
REMARK   13  A    between atoms: C_31  and  O_36
REMARK   14  A    between atoms: C_32  and  O_34
REMARK   15  A    between atoms: O_34  and  C_35
REMARK   16  A    between atoms: O_36  and  C_37
REMARK                            x       y       z     vdW  Elec       q    Type
REMARK                         _______ _______ _______ _____ _____    ______ ____
ROOT
ATOM      1  N   UNL     1      -5.587   4.228   0.078  0.00  0.00    -0.167 NA
ENDROOT
BRANCH   1   2
ATOM      2  S   UNL     1      -5.451   5.049   1.510  0.00  0.00    +0.061 S 
ATOM      3  O   UNL     1      -5.583   6.430   1.201  0.00  0.00    -0.153 OA
ATOM      4  O   UNL     1      -6.304   4.391   2.438  0.00  0.00    -0.153 OA
BRANCH   2   5
ATOM      5  C   UNL     1      -3.803   4.817   2.090  0.00  0.00    +0.109 A 
ATOM      6  C   UNL     1      -3.504   3.743   2.906  0.00  0.00    +0.032 A 
ATOM      7  C   UNL     1      -2.213   3.557   3.364  0.00  0.00    +0.051 A 
ATOM      8  C   UNL     1      -1.215   4.448   3.002  0.00  0.00    +0.162 A 
ATOM      9  C   UNL     1      -1.516   5.529   2.180  0.00  0.00    +0.163 A 
ATOM     10  C   UNL     1      -2.812   5.707   1.721  0.00  0.00    +0.078 A 
BRANCH   9  11
ATOM     11  O   UNL     1      -0.540   6.407   1.823  0.00  0.00    -0.491 OA
ATOM     12  C   UNL     1      -0.922   7.493   0.976  0.00  0.00    +0.277 C 
ENDBRANCH   9  11
BRANCH   8  13
ATOM     13  O   UNL     1       0.056   4.267   3.452  0.00  0.00    -0.491 OA
ATOM     14  C   UNL     1       0.292   3.136   4.293  0.00  0.00    +0.277 C 
ENDBRANCH   8  13
ENDBRANCH   2   5
ENDBRANCH   1   2
BRANCH   1  15
ATOM     15  C   UNL     1      -6.014   2.827   0.075  0.00  0.00    +0.206 C 
BRANCH  15  17
ATOM     16  N   UNL     1      -4.952   0.593   0.053  0.00  0.00    -0.206 N 
ATOM     17  C   UNL     1      -4.801   1.932   0.059  0.00  0.00    +0.248 C 
ATOM     18  O   UNL     1      -3.690   2.417   0.051  0.00  0.00    -0.273 OA
ATOM     19  H   UNL     1      -5.841   0.205   0.059  0.00  0.00    +0.177 HD
BRANCH  16  21
ATOM     20  C   UNL     1      -3.970  -1.529   0.032  0.00  0.00    +0.142 C 
ATOM     21  N   UNL     1      -3.825  -0.239   0.037  0.00  0.00    -0.188 NA
BRANCH  20  27
ATOM     22  C   UNL     1      -1.498  -1.847   0.006  0.00  0.00    +0.129 A 
ATOM     23  C   UNL     1      -0.390  -2.679  -0.003  0.00  0.00    +0.046 A 
ATOM     24  C   UNL     1      -0.554  -4.051  -0.009  0.00  0.00    +0.004 A 
ATOM     25  C   UNL     1      -1.823  -4.605  -0.006  0.00  0.00    +0.001 A 
ATOM     26  C   UNL     1      -2.936  -3.792   0.003  0.00  0.00    +0.013 A 
ATOM     27  C   UNL     1      -2.784  -2.404   0.016  0.00  0.00    +0.036 A 
BRANCH  22  28
ATOM     28  O   UNL     1      -1.339  -0.499   0.012  0.00  0.00    -0.492 OA
BRANCH  28  30
ATOM     29  C   UNL     1      -0.019   1.526   0.010  0.00  0.00    +0.048 C 
ATOM     30  C   UNL     1       0.002  -0.004   0.002  0.00  0.00    +0.226 C 
ENDBRANCH  28  30
ENDBRANCH  22  28
ENDBRANCH  20  27
ENDBRANCH  16  21
ENDBRANCH  15  17
ENDBRANCH   1  15
BRANCH   1  31
ATOM     31  C   UNL     1      -5.280   4.904  -1.185  0.00  0.00    +0.114 C 
BRANCH  31  32
ATOM     32  C   UNL     1      -6.570   5.451  -1.797  0.00  0.00    +0.052 C 
BRANCH  32  33
ATOM     33  C   UNL     1      -6.254   6.146  -3.097  0.00  0.00    -0.046 A 
ATOM     34  C   UNL     1      -5.946   7.493  -3.103  0.00  0.00    +0.003 A 
ATOM     35  C   UNL     1      -5.656   8.131  -4.295  0.00  0.00    +0.000 A 
ATOM     36  C   UNL     1      -5.674   7.420  -5.481  0.00  0.00    +0.000 A 
ATOM     37  C   UNL     1      -5.981   6.072  -5.474  0.00  0.00    +0.000 A 
ATOM     38  C   UNL     1      -6.267   5.434  -4.282  0.00  0.00    +0.003 A 
ENDBRANCH  32  33
ENDBRANCH  31  32
ENDBRANCH   1  31
TORSDOF 13
