REMARK  Name = ZINC13495886
REMARK  14 active torsions:
REMARK  status: ('A' for Active; 'I' for Inactive)
REMARK    1  A    between atoms: C_1  and  C_2
REMARK    2  A    between atoms: C_2  and  C_3
REMARK    3  A    between atoms: C_3  and  C_5
REMARK    4  A    between atoms: C_3  and  N_75
REMARK    5  A    between atoms: N_9  and  C_10
REMARK    6  A    between atoms: C_10  and  C_11
REMARK    7  A    between atoms: C_11  and  C_12
REMARK    8  A    between atoms: C_18  and  C_19
REMARK    9  A    between atoms: C_18  and  N_75
REMARK   10  A    between atoms: C_19  and  C_20
REMARK   11  A    between atoms: C_25  and  C_26
REMARK   12  A    between atoms: C_27  and  C_28
REMARK   13  A    between atoms: C_27  and  N_75
REMARK   14  A    between atoms: C_34  and  C_40
REMARK                            x       y       z     vdW  Elec       q    Type
REMARK                         _______ _______ _______ _____ _____    ______ ____
ROOT
ATOM      1  N   UNL     1       1.972  -3.530   6.044  0.00  0.00    +0.389 N 
ATOM      2  H   UNL     1       2.732  -2.870   6.247  0.00  0.00    -0.080 HD
ENDROOT
BRANCH   1   3
ATOM      3  C   UNL     1       1.210  -3.783   7.285  0.00  0.00    +0.003 C 
BRANCH   3   4
ATOM      4  C   UNL     1       1.168  -2.511   8.092  0.00  0.00    +0.138 A 
ATOM      5  N   UNL     1       0.972  -1.299   7.632  0.00  0.00    -0.115 NA
ATOM      6  N   UNL     1       1.004  -0.485   8.630  0.00  0.00    -0.023 NA
ATOM      7  N   UNL     1       1.224  -1.145   9.714  0.00  0.00    -0.044 NA
ATOM      8  N   UNL     1       1.331  -2.398   9.423  0.00  0.00    -0.231 N 
BRANCH   8   9
ATOM      9  C   UNL     1       1.583  -3.491  10.365  0.00  0.00    +0.152 C 
BRANCH   9  10
ATOM     10  C   UNL     1       3.091  -3.707  10.505  0.00  0.00    +0.058 C 
BRANCH  10  11
ATOM     11  C   UNL     1       3.350  -4.832  11.474  0.00  0.00    -0.046 A 
ATOM     12  C   UNL     1       3.503  -4.562  12.821  0.00  0.00    +0.004 A 
ATOM     13  C   UNL     1       3.735  -5.595  13.710  0.00  0.00    +0.000 A 
ATOM     14  C   UNL     1       3.825  -6.896  13.251  0.00  0.00    +0.000 A 
ATOM     15  C   UNL     1       3.678  -7.164  11.903  0.00  0.00    +0.000 A 
ATOM     16  C   UNL     1       3.440  -6.133  11.015  0.00  0.00    +0.004 A 
ENDBRANCH  10  11
ENDBRANCH   9  10
ENDBRANCH   8   9
ENDBRANCH   3   4
BRANCH   3  18
ATOM     17  C   UNL     1      -0.176  -5.547   6.186  0.00  0.00    +0.002 C 
ATOM     18  C   UNL     1      -0.217  -4.225   6.955  0.00  0.00    -0.011 C 
ENDBRANCH   3  18
ENDBRANCH   1   3
BRANCH   1  19
ATOM     19  C   UNL     1       2.554  -4.792   5.541  0.00  0.00    -0.073 C 
BRANCH  19  20
ATOM     20  C   UNL     1       3.716  -5.194   6.451  0.00  0.00    +0.017 C 
BRANCH  20  21
ATOM     21  C   UNL     1       4.420  -6.392   5.867  0.00  0.00    -0.046 A 
ATOM     22  C   UNL     1       4.087  -7.665   6.291  0.00  0.00    +0.004 A 
ATOM     23  C   UNL     1       4.730  -8.763   5.752  0.00  0.00    +0.000 A 
ATOM     24  C   UNL     1       5.712  -8.588   4.795  0.00  0.00    +0.000 A 
ATOM     25  C   UNL     1       6.049  -7.316   4.375  0.00  0.00    +0.003 A 
ATOM     26  C   UNL     1       5.403  -6.217   4.910  0.00  0.00    -0.047 A 
ATOM     27  C   UNL     1       5.770  -4.829   4.452  0.00  0.00    +0.044 C 
ENDBRANCH  20  21
ENDBRANCH  19  20
ENDBRANCH   1  19
BRANCH   1  28
ATOM     28  C   UNL     1       1.085  -2.939   5.019  0.00  0.00    -0.037 C 
BRANCH  28  29
ATOM     29  C   UNL     1       1.936  -2.369   3.913  0.00  0.00    +0.001 A 
ATOM     30  C   UNL     1       2.181  -3.105   2.801  0.00  0.00    +0.017 A 
ATOM     31  C   UNL     1       3.010  -2.521   1.745  0.00  0.00    -0.001 A 
ATOM     32  C   UNL     1       3.298  -3.232   0.576  0.00  0.00    +0.010 A 
ATOM     33  C   UNL     1       4.076  -2.660  -0.391  0.00  0.00    +0.001 A 
ATOM     34  C   UNL     1       4.578  -1.376  -0.225  0.00  0.00    +0.005 A 
ATOM     35  C   UNL     1       4.312  -0.660   0.922  0.00  0.00    -0.026 A 
ATOM     36  C   UNL     1       3.523  -1.222   1.920  0.00  0.00    +0.052 A 
ATOM     37  N   UNL     1       3.237  -0.526   3.075  0.00  0.00    -0.322 N 
ATOM     38  H   UNL     1       3.591   0.369   3.194  0.00  0.00    +0.169 HD
ATOM     39  C   UNL     1       2.474  -1.070   4.039  0.00  0.00    +0.251 A 
ATOM     40  O   UNL     1       2.241  -0.425   5.047  0.00  0.00    -0.268 OA
ATOM     41  C   UNL     1       4.870   0.730   1.092  0.00  0.00    +0.046 C 
ENDBRANCH  28  29
ENDBRANCH   1  28
TORSDOF 11
