REMARK  Name = ZINC05655828
REMARK  11 active torsions:
REMARK  status: ('A' for Active; 'I' for Inactive)
REMARK    1  A    between atoms: C_1  and  C_2
REMARK    2  A    between atoms: C_4  and  C_28
REMARK    3  A    between atoms: C_5  and  N_9
REMARK    4  A    between atoms: C_6  and  C_8
REMARK    5  A    between atoms: C_10  and  C_12
REMARK    6  A    between atoms: C_12  and  N_13
REMARK    7  A    between atoms: C_14  and  C_16
REMARK    8  A    between atoms: C_16  and  O_17
REMARK    9  A    between atoms: O_17  and  C_18
REMARK   10  A    between atoms: C_18  and  C_20
REMARK   11  A    between atoms: C_24  and  N_26
REMARK                            x       y       z     vdW  Elec       q    Type
REMARK                         _______ _______ _______ _____ _____    ______ ____
ROOT
ATOM      1  N   UNL     1      -5.999   2.898  -1.138  0.00  0.00    -0.304 N 
ATOM      2  C   UNL     1      -7.260   3.314  -1.369  0.00  0.00    +0.251 C 
ATOM      3  O   UNL     1      -7.562   4.472  -1.175  0.00  0.00    -0.272 OA
ATOM      4  H   UNL     1      -5.758   1.972  -1.293  0.00  0.00    +0.149 HD
ENDROOT
BRANCH   1   5
ATOM      5  C   UNL     1      -4.993   3.846  -0.653  0.00  0.00    +0.200 C 
BRANCH   5   7
ATOM      6  N   UNL     1      -2.598   3.812  -0.036  0.00  0.00    -0.284 N 
ATOM      7  C   UNL     1      -3.676   3.135  -0.477  0.00  0.00    +0.234 C 
ATOM      8  O   UNL     1      -3.587   1.952  -0.732  0.00  0.00    -0.274 OA
ATOM      9  H   UNL     1      -2.685   4.739   0.234  0.00  0.00    +0.155 HD
BRANCH   6  14
ATOM     10  C   UNL     1       2.452   1.240   0.236  0.00  0.00    +0.044 C 
ATOM     11  C   UNL     1       1.110   1.923   0.163  0.00  0.00    -0.050 A 
ATOM     12  C   UNL     1       0.499   2.114  -1.062  0.00  0.00    +0.008 A 
ATOM     13  C   UNL     1      -0.728   2.745  -1.132  0.00  0.00    -0.029 A 
ATOM     14  C   UNL     1      -1.352   3.178   0.031  0.00  0.00    +0.039 A 
ATOM     15  C   UNL     1      -0.735   2.984   1.260  0.00  0.00    -0.029 A 
ATOM     16  C   UNL     1       0.494   2.357   1.323  0.00  0.00    +0.008 A 
ATOM     17  C   UNL     1      -1.406   3.457   2.523  0.00  0.00    +0.045 C 
ATOM     18  C   UNL     1      -1.391   2.958  -2.468  0.00  0.00    +0.045 C 
ENDBRANCH   6  14
ENDBRANCH   5   7
ENDBRANCH   1   5
BRANCH   2  19
ATOM     19  C   UNL     1      -8.295   2.339  -1.868  0.00  0.00    +0.328 C 
BRANCH  19  20
ATOM     20  O   UNL     1      -9.564   3.025  -2.038  0.00  0.00    -0.452 OA
BRANCH  20  21
ATOM     21  C   UNL     1     -10.602   2.289  -2.481  0.00  0.00    +0.340 C 
ATOM     22  O   UNL     1     -10.451   1.108  -2.720  0.00  0.00    -0.245 OA
BRANCH  21  23
ATOM     23  C   UNL     1     -11.923   2.920  -2.678  0.00  0.00    +0.061 A 
ATOM     24  C   UNL     1     -12.100   4.277  -2.398  0.00  0.00    +0.016 A 
ATOM     25  C   UNL     1     -13.333   4.865  -2.588  0.00  0.00    +0.022 A 
ATOM     26  C   UNL     1     -14.401   4.112  -3.043  0.00  0.00    +0.062 A 
ATOM     27  C   UNL     1     -14.236   2.758  -3.319  0.00  0.00    +0.044 A 
ATOM     28  C   UNL     1     -13.000   2.160  -3.137  0.00  0.00    +0.039 A 
ATOM     29 CL   UNL     1     -15.951   4.859  -3.272  0.00  0.00    -0.082 Cl
BRANCH  27  30
ATOM     30  N   UNL     1     -15.318   2.002  -3.779  0.00  0.00    -0.357 N 
ATOM     31  H   UNL     1     -15.203   1.058  -3.971  0.00  0.00    +0.142 HD
ATOM     32  H   UNL     1     -16.184   2.421  -3.906  0.00  0.00    +0.142 HD
ENDBRANCH  27  30
ENDBRANCH  21  23
ENDBRANCH  20  21
ENDBRANCH  19  20
ENDBRANCH   2  19
TORSDOF 8
