REMARK  Name = ZINC63497318
REMARK  13 active torsions:
REMARK  status: ('A' for Active; 'I' for Inactive)
REMARK    1  A    between atoms: C_1  and  C_2
REMARK    2  A    between atoms: C_2  and  N_3
REMARK    3  A    between atoms: N_3  and  C_4
REMARK    4  A    between atoms: N_3  and  C_12
REMARK    5  A    between atoms: C_4  and  C_5
REMARK    6  A    between atoms: C_10  and  C_11
REMARK    7  A    between atoms: C_12  and  C_13
REMARK    8  A    between atoms: C_13  and  C_15
REMARK    9  A    between atoms: C_16  and  N_28
REMARK   10  A    between atoms: N_17  and  C_24
REMARK   11  A    between atoms: C_24  and  C_25
REMARK   12  A    between atoms: C_25  and  C_26
REMARK   13  A    between atoms: C_25  and  C_27
REMARK                            x       y       z     vdW  Elec       q    Type
REMARK                         _______ _______ _______ _____ _____    ______ ____
ROOT
ATOM      1  C   UNL     1       1.939  -3.515   0.091  0.00  0.00    +0.118 A 
ATOM      2  C   UNL     1       2.716  -3.889  -1.019  0.00  0.00    +0.116 A 
ATOM      3  N   UNL     1       3.262  -5.140  -1.051  0.00  0.00    -0.281 N 
ATOM      4  C   UNL     1       3.071  -6.011  -0.049  0.00  0.00    +0.331 A 
ATOM      5  O   UNL     1       3.579  -7.112  -0.125  0.00  0.00    -0.246 OA
ATOM      6  N   UNL     1       2.339  -5.710   1.036  0.00  0.00    -0.274 N 
ATOM      7  H   UNL     1       2.228  -6.372   1.737  0.00  0.00    +0.173 HD
ATOM      8  C   UNL     1       1.761  -4.498   1.167  0.00  0.00    +0.266 A 
ATOM      9  O   UNL     1       1.103  -4.227   2.154  0.00  0.00    -0.267 OA
ENDROOT
BRANCH   2  10
ATOM     10  N   UNL     1       2.919  -3.018  -2.045  0.00  0.00    -0.344 N 
ATOM     11  H   UNL     1       2.639  -2.094  -1.960  0.00  0.00    +0.144 HD
ATOM     12  H   UNL     1       3.345  -3.323  -2.862  0.00  0.00    +0.144 HD
ENDBRANCH   2  10
BRANCH   1  13
ATOM     13  C   UNL     1       1.353  -2.233   0.172  0.00  0.00    +0.155 C 
ATOM     14  O   UNL     1       1.423  -1.473  -0.773  0.00  0.00    -0.294 OA
BRANCH  13  15
ATOM     15  C   UNL     1       0.640  -1.809   1.429  0.00  0.00    +0.003 C 
BRANCH  15  16
ATOM     16  N   UNL     1       0.122  -0.444   1.262  0.00  0.00    +0.387 N 
ATOM     17  H   UNL     1       0.877   0.172   1.000  0.00  0.00    -0.081 HD
BRANCH  16  19
ATOM     18  C   UNL     1      -1.338   1.006  -0.065  0.00  0.00    -0.017 C 
ATOM     19  C   UNL     1      -0.904  -0.435   0.211  0.00  0.00    -0.081 C 
ENDBRANCH  16  19
BRANCH  16  20
ATOM     20  C   UNL     1      -0.467   0.015   2.527  0.00  0.00    -0.042 C 
BRANCH  20  21
ATOM     21  C   UNL     1       0.613   0.135   3.571  0.00  0.00    -0.061 A 
ATOM     22  C   UNL     1       0.792  -0.873   4.500  0.00  0.00    +0.002 A 
ATOM     23  C   UNL     1       1.783  -0.763   5.457  0.00  0.00    +0.000 A 
ATOM     24  C   UNL     1       2.595   0.355   5.485  0.00  0.00    +0.000 A 
ATOM     25  C   UNL     1       2.417   1.363   4.556  0.00  0.00    +0.003 A 
ATOM     26  C   UNL     1       1.429   1.250   3.595  0.00  0.00    -0.049 A 
ATOM     27  C   UNL     1       1.238   2.346   2.579  0.00  0.00    +0.044 C 
ENDBRANCH  20  21
ENDBRANCH  16  20
ENDBRANCH  15  16
ENDBRANCH  13  15
ENDBRANCH   1  13
BRANCH   3  28
ATOM     28  C   UNL     1       4.074  -5.539  -2.204  0.00  0.00    +0.131 C 
BRANCH  28  29
ATOM     29  C   UNL     1       5.538  -5.178  -1.946  0.00  0.00    +0.003 C 
ATOM     30  C   UNL     1       6.068  -6.005  -0.773  0.00  0.00    +0.009 C 
ATOM     31  C   UNL     1       6.365  -5.481  -3.198  0.00  0.00    +0.009 C 
ENDBRANCH  28  29
ENDBRANCH   3  28
TORSDOF 9
