REMARK  Name = ZINC39684337
REMARK  10 active torsions:
REMARK  status: ('A' for Active; 'I' for Inactive)
REMARK    1  A    between atoms: C_1  and  C_2
REMARK    2  A    between atoms: C_2  and  C_4
REMARK    3  A    between atoms: C_2  and  N_8
REMARK    4  A    between atoms: C_4  and  C_5
REMARK    5  A    between atoms: C_4  and  C_6
REMARK    6  A    between atoms: C_4  and  C_7
REMARK    7  A    between atoms: C_9  and  C_11
REMARK    8  A    between atoms: C_22  and  C_24
REMARK    9  A    between atoms: C_24  and  C_25
REMARK   10  A    between atoms: C_25  and  C_26
REMARK                            x       y       z     vdW  Elec       q    Type
REMARK                         _______ _______ _______ _____ _____    ______ ____
ROOT
ATOM      1  C   UNL     1      -3.465  -1.164  -1.134  0.00  0.00    +0.100 C 
ATOM      2  C   UNL     1      -4.361  -0.271  -0.248  0.00  0.00    +0.121 C 
ATOM      3  N   UNL     1      -4.986   0.686  -1.192  0.00  0.00    -0.300 N 
ATOM      4  C   UNL     1      -5.291  -0.128  -2.393  0.00  0.00    +0.115 C 
ATOM      5  C   UNL     1      -4.080  -1.071  -2.540  0.00  0.00    -0.004 C 
ATOM      6  C   UNL     1      -4.538  -2.449  -3.009  0.00  0.00    -0.010 C 
ATOM      7  C   UNL     1      -5.093  -2.341  -4.432  0.00  0.00    -0.082 C 
ATOM      8  N   UNL     1      -4.053  -1.817  -5.326  0.00  0.00    +0.379 N 
ATOM      9  C   UNL     1      -3.685  -0.455  -4.923  0.00  0.00    -0.082 C 
ATOM     10  C   UNL     1      -3.071  -0.483  -3.521  0.00  0.00    -0.010 C 
ATOM     11  C   UNL     1      -5.223   1.999  -1.002  0.00  0.00    +0.216 C 
ATOM     12  O   UNL     1      -5.747   2.654  -1.878  0.00  0.00    -0.276 OA
ATOM     13  H   UNL     1      -3.240  -2.412  -5.278  0.00  0.00    -0.086 HD
ATOM     14  H   UNL     1      -4.401  -1.804  -6.273  0.00  0.00    -0.086 HD
ENDROOT
BRANCH   1  16
ATOM     15  N   UNL     1      -1.020  -1.493  -1.323  0.00  0.00    -0.312 N 
ATOM     16  C   UNL     1      -2.051  -0.643  -1.145  0.00  0.00    +0.218 C 
ATOM     17  O   UNL     1      -1.840   0.542  -0.993  0.00  0.00    -0.275 OA
ATOM     18  H   UNL     1      -1.189  -2.440  -1.444  0.00  0.00    +0.149 HD
BRANCH  15  20
ATOM     19  C   UNL     1       0.873  -0.889   0.103  0.00  0.00    +0.028 C 
ATOM     20  C   UNL     1       0.354  -0.986  -1.333  0.00  0.00    +0.075 C 
BRANCH  20  21
ATOM     21  C   UNL     1       1.243  -1.939  -2.134  0.00  0.00    -0.020 C 
ATOM     22  C   UNL     1       1.216  -3.326  -1.488  0.00  0.00    +0.012 C 
ATOM     23  C   UNL     1       0.725  -2.035  -3.570  0.00  0.00    +0.012 C 
ATOM     24  C   UNL     1       2.679  -1.409  -2.145  0.00  0.00    +0.012 C 
ENDBRANCH  20  21
ENDBRANCH  15  20
ENDBRANCH   1  16
BRANCH  11  25
ATOM     25  C   UNL     1      -4.838   2.653   0.300  0.00  0.00    +0.100 C 
BRANCH  25  26
ATOM     26  C   UNL     1      -5.214   4.136   0.257  0.00  0.00    +0.044 C 
BRANCH  26  27
ATOM     27  C   UNL     1      -4.828   4.790   1.558  0.00  0.00    -0.047 A 
ATOM     28  C   UNL     1      -5.727   4.825   2.607  0.00  0.00    +0.003 A 
ATOM     29  C   UNL     1      -5.373   5.425   3.801  0.00  0.00    +0.000 A 
ATOM     30  C   UNL     1      -4.120   5.990   3.946  0.00  0.00    +0.000 A 
ATOM     31  C   UNL     1      -3.221   5.955   2.897  0.00  0.00    +0.000 A 
ATOM     32  C   UNL     1      -3.573   5.351   1.705  0.00  0.00    +0.003 A 
ENDBRANCH  26  27
ENDBRANCH  25  26
ENDBRANCH  11  25
TORSDOF 6
