REMARK  Name = ZINC35098484
REMARK  11 active torsions:
REMARK  status: ('A' for Active; 'I' for Inactive)
REMARK    1  A    between atoms: C_1  and  C_2
REMARK    2  A    between atoms: C_2  and  C_3
REMARK    3  A    between atoms: C_3  and  C_5
REMARK    4  A    between atoms: C_3  and  C_6
REMARK    5  A    between atoms: C_6  and  C_8
REMARK    6  A    between atoms: C_6  and  N_27
REMARK    7  A    between atoms: C_14  and  C_17
REMARK    8  A    between atoms: N_20  and  C_21
REMARK    9  A    between atoms: C_28  and  C_30
REMARK   10  A    between atoms: C_30  and  C_31
REMARK   11  A    between atoms: C_30  and  C_32
REMARK                            x       y       z     vdW  Elec       q    Type
REMARK                         _______ _______ _______ _____ _____    ______ ____
ROOT
ATOM      1  C   UNL     1      -0.463  -2.257  -1.367  0.00  0.00    +0.236 C 
ATOM      2  O   UNL     1      -0.924  -2.858  -0.420  0.00  0.00    -0.274 OA
ATOM      3  N   UNL     1      -1.240  -1.981  -2.434  0.00  0.00    -0.297 N 
ATOM      4  C   UNL     1      -0.748  -1.114  -3.513  0.00  0.00    +0.127 C 
ATOM      5  C   UNL     1      -1.742   0.037  -3.709  0.00  0.00    +0.128 C 
ATOM      6  N   UNL     1      -3.096  -0.524  -3.813  0.00  0.00    -0.280 N 
ATOM      7  C   UNL     1      -3.588  -1.392  -2.734  0.00  0.00    +0.092 C 
ATOM      8  C   UNL     1      -2.592  -2.547  -2.541  0.00  0.00    +0.130 C 
ATOM      9  C   UNL     1      -3.705  -0.584  -1.440  0.00  0.00    +0.030 C 
ATOM     10  C   UNL     1      -3.873  -0.249  -4.880  0.00  0.00    +0.303 C 
ATOM     11  O   UNL     1      -5.027  -0.630  -4.906  0.00  0.00    -0.253 OA
ATOM     12  N   UNL     1      -3.370   0.450  -5.917  0.00  0.00    -0.296 N 
ATOM     13  H   UNL     1      -2.429   0.684  -5.933  0.00  0.00    +0.151 HD
ENDROOT
BRANCH  12  14
ATOM     14  C   UNL     1      -4.244   0.854  -7.021  0.00  0.00    +0.074 C 
ATOM     15  C   UNL     1      -4.352  -0.289  -8.032  0.00  0.00    +0.022 C 
ATOM     16  C   UNL     1      -5.265   0.134  -9.184  0.00  0.00    +0.002 C 
ATOM     17  C   UNL     1      -4.681   1.370  -9.871  0.00  0.00    +0.000 C 
ATOM     18  C   UNL     1      -4.573   2.513  -8.860  0.00  0.00    +0.002 C 
ATOM     19  C   UNL     1      -3.660   2.090  -7.708  0.00  0.00    +0.022 C 
ENDBRANCH  12  14
BRANCH   1  20
ATOM     20  C   UNL     1       0.979  -1.819  -1.351  0.00  0.00    +0.162 C 
BRANCH  20  21
ATOM     21  N   UNL     1       1.800  -2.862  -0.733  0.00  0.00    -0.304 N 
ATOM     22  C   UNL     1       3.109  -2.957  -1.037  0.00  0.00    +0.216 C 
ATOM     23  O   UNL     1       3.608  -2.179  -1.822  0.00  0.00    -0.276 OA
ATOM     24  H   UNL     1       1.401  -3.485  -0.105  0.00  0.00    +0.149 HD
BRANCH  22  25
ATOM     25  C   UNL     1       3.954  -4.031  -0.401  0.00  0.00    +0.069 C 
ATOM     26  C   UNL     1       3.390  -5.406  -0.764  0.00  0.00    +0.017 C 
ATOM     27  C   UNL     1       5.392  -3.919  -0.912  0.00  0.00    +0.017 C 
ENDBRANCH  22  25
ENDBRANCH  20  21
BRANCH  20  28
ATOM     28  C   UNL     1       1.109  -0.524  -0.547  0.00  0.00    +0.015 C 
ATOM     29  C   UNL     1       0.318   0.589  -1.239  0.00  0.00    +0.010 C 
BRANCH  28  31
ATOM     30  C   UNL     1       0.798   0.513   1.705  0.00  0.00    +0.004 C 
ATOM     31  C   UNL     1       0.555  -0.741   0.863  0.00  0.00    +0.002 C 
ENDBRANCH  28  31
ENDBRANCH  20  28
ENDBRANCH   1  20
TORSDOF 6
