REMARK  Name = ZINC14182862
REMARK  6 active torsions:
REMARK  status: ('A' for Active; 'I' for Inactive)
REMARK    1  A    between atoms: C_1  and  C_2
REMARK    2  A    between atoms: C_5  and  C_28
REMARK    3  A    between atoms: C_10  and  C_12
REMARK    4  A    between atoms: C_15  and  S_18
REMARK    5  A    between atoms: S_18  and  N_21
REMARK    6  A    between atoms: C_24  and  C_27
REMARK                            x       y       z     vdW  Elec       q    Type
REMARK                         _______ _______ _______ _____ _____    ______ ____
ROOT
ATOM      1  C   UNL     1       2.034   0.856   3.426  0.00  0.00    +0.037 A 
ATOM      2  C   UNL     1       0.726   0.405   3.617  0.00  0.00    +0.015 A 
ATOM      3  C   UNL     1       0.075   0.668   4.804  0.00  0.00    +0.029 A 
ATOM      4  C   UNL     1       0.715   1.378   5.805  0.00  0.00    +0.106 A 
ATOM      5  C   UNL     1       2.010   1.828   5.622  0.00  0.00    +0.029 A 
ATOM      6  C   UNL     1       2.675   1.566   4.442  0.00  0.00    +0.015 A 
ENDROOT
BRANCH   1  14
ATOM      7  C   UNL     1       2.512   2.058  -1.139  0.00  0.00    +0.009 C 
ATOM      8  C   UNL     1       3.966   2.246  -0.701  0.00  0.00    +0.004 C 
ATOM      9  C   UNL     1       4.156   3.662  -0.154  0.00  0.00    +0.009 C 
ATOM     10  C   UNL     1       3.207   3.887   1.025  0.00  0.00    +0.004 C 
ATOM     11  C   UNL     1       3.538   2.890   2.140  0.00  0.00    +0.111 C 
ATOM     12  N   UNL     1       3.499   1.530   1.584  0.00  0.00    -0.297 N 
ATOM     13  C   UNL     1       4.306   1.229   0.393  0.00  0.00    +0.111 C 
ATOM     14  C   UNL     1       2.738   0.577   2.157  0.00  0.00    +0.247 C 
ATOM     15  O   UNL     1       2.630  -0.513   1.629  0.00  0.00    -0.270 OA
ATOM     16  C   UNL     1       3.373   5.315   1.550  0.00  0.00    +0.009 C 
ENDBRANCH   1  14
BRANCH   4  17
ATOM     17  S   UNL     1      -0.124   1.710   7.318  0.00  0.00    +0.061 S 
ATOM     18  O   UNL     1       0.493   2.860   7.881  0.00  0.00    -0.153 OA
ATOM     19  O   UNL     1      -1.515   1.656   7.032  0.00  0.00    -0.153 OA
BRANCH  17  20
ATOM     20  N   UNL     1       0.197   0.451   8.343  0.00  0.00    -0.177 NA
ATOM     21  C   UNL     1      -0.673  -0.733   8.372  0.00  0.00    +0.110 C 
ATOM     22  C   UNL     1       0.188  -1.983   8.167  0.00  0.00    +0.020 C 
ATOM     23  C   UNL     1       1.308  -2.002   9.209  0.00  0.00    -0.012 C 
ATOM     24  C   UNL     1       2.197  -0.770   9.028  0.00  0.00    +0.020 C 
ATOM     25  C   UNL     1       1.362   0.492   9.238  0.00  0.00    +0.110 C 
ATOM     26  C   UNL     1       2.150  -3.268   9.029  0.00  0.00    +0.007 C 
ENDBRANCH  17  20
ENDBRANCH   4  17
TORSDOF 3
