REMARK  Name = ZINC64701825
REMARK  12 active torsions:
REMARK  status: ('A' for Active; 'I' for Inactive)
REMARK    1  A    between atoms: C_1  and  C_2
REMARK    2  A    between atoms: C_2  and  C_3
REMARK    3  A    between atoms: C_7  and  C_37
REMARK    4  A    between atoms: C_8  and  N_9
REMARK    5  A    between atoms: C_10  and  C_12
REMARK    6  A    between atoms: C_12  and  S_13
REMARK    7  A    between atoms: S_13  and  C_14
REMARK    8  A    between atoms: C_24  and  C_27
REMARK    9  A    between atoms: C_30  and  O_35
REMARK   10  A    between atoms: C_31  and  O_33
REMARK   11  A    between atoms: O_33  and  C_34
REMARK   12  A    between atoms: O_35  and  C_36
REMARK                            x       y       z     vdW  Elec       q    Type
REMARK                         _______ _______ _______ _____ _____    ______ ____
ROOT
ATOM      1  C   UNL     1       7.373  -0.037   2.598  0.00  0.00    +0.269 C 
ATOM      2  N   UNL     1       7.164   1.396   2.870  0.00  0.00    -0.163 NA
ATOM      3  N   UNL     1       6.976   1.851   4.000  0.00  0.00    -0.081 NA
ATOM      4  C   UNL     1       6.970   1.097   5.127  0.00  0.00    +0.272 C 
ATOM      5  O   UNL     1       6.682   1.566   6.202  0.00  0.00    -0.270 OA
ATOM      6  C   UNL     1       7.338  -0.350   4.971  0.00  0.00    +0.167 C 
ATOM      7  N   UNL     1       6.740  -0.777   3.671  0.00  0.00    -0.196 NA
ATOM      8  N   UNL     1       6.766  -2.214   3.690  0.00  0.00    -0.243 NA
ATOM      9  C   UNL     1       6.605  -2.626   5.112  0.00  0.00    +0.102 C 
ATOM     10  C   UNL     1       6.636  -1.302   5.954  0.00  0.00    +0.054 C 
ATOM     11  H   UNL     1       7.631  -2.566   3.308  0.00  0.00    +0.142 HD
ENDROOT
BRANCH   9  12
ATOM     12  C   UNL     1       5.295  -3.346   5.300  0.00  0.00    -0.025 A 
ATOM     13  C   UNL     1       4.169  -2.917   4.621  0.00  0.00    +0.009 A 
ATOM     14  C   UNL     1       2.964  -3.575   4.790  0.00  0.00    +0.050 A 
ATOM     15  C   UNL     1       2.884  -4.665   5.641  0.00  0.00    +0.162 A 
ATOM     16  C   UNL     1       4.017  -5.097   6.324  0.00  0.00    +0.162 A 
ATOM     17  C   UNL     1       5.222  -4.437   6.146  0.00  0.00    +0.054 A 
BRANCH  16  18
ATOM     18  O   UNL     1       3.943  -6.167   7.160  0.00  0.00    -0.491 OA
ATOM     19  C   UNL     1       5.146  -6.553   7.827  0.00  0.00    +0.277 C 
ENDBRANCH  16  18
BRANCH  15  20
ATOM     20  O   UNL     1       1.699  -5.312   5.809  0.00  0.00    -0.491 OA
ATOM     21  C   UNL     1       0.578  -4.814   5.077  0.00  0.00    +0.277 C 
ENDBRANCH  15  20
ENDBRANCH   9  12
BRANCH   1  22
ATOM     22  S   UNL     1       6.615  -0.481   1.011  0.00  0.00    -0.107 S 
BRANCH  22  23
ATOM     23  C   UNL     1       4.865  -0.053   1.226  0.00  0.00    +0.168 C 
BRANCH  23  25
ATOM     24  N   UNL     1       2.785  -0.140  -0.110  0.00  0.00    -0.284 N 
ATOM     25  C   UNL     1       4.111  -0.376  -0.038  0.00  0.00    +0.227 C 
ATOM     26  O   UNL     1       4.695  -0.849  -0.989  0.00  0.00    -0.275 OA
ATOM     27  H   UNL     1       2.330   0.299   0.625  0.00  0.00    +0.155 HD
BRANCH  24  33
ATOM     28  C   UNL     1       1.650   0.424  -2.166  0.00  0.00    -0.026 A 
ATOM     29  C   UNL     1       0.945   0.036  -3.289  0.00  0.00    +0.005 A 
ATOM     30  C   UNL     1       0.651  -1.299  -3.495  0.00  0.00    +0.001 A 
ATOM     31  C   UNL     1       1.060  -2.250  -2.579  0.00  0.00    +0.005 A 
ATOM     32  C   UNL     1       1.765  -1.869  -1.454  0.00  0.00    -0.029 A 
ATOM     33  C   UNL     1       2.067  -0.529  -1.246  0.00  0.00    +0.040 A 
ATOM     34  C   UNL     1       2.211  -2.906  -0.456  0.00  0.00    +0.045 C 
BRANCH  28  36
ATOM     35  C   UNL     1       3.369   2.183  -2.483  0.00  0.00    +0.009 C 
ATOM     36  C   UNL     1       1.970   1.879  -1.942  0.00  0.00    +0.033 C 
ENDBRANCH  28  36
ENDBRANCH  24  33
ENDBRANCH  23  25
ENDBRANCH  22  23
ENDBRANCH   1  22
TORSDOF 8
