REMARK  Name = ZINC24853843
REMARK  7 active torsions:
REMARK  status: ('A' for Active; 'I' for Inactive)
REMARK    1  A    between atoms: C_1  and  C_2
REMARK    2  A    between atoms: C_14  and  C_16
REMARK    3  A    between atoms: C_16  and  O_17
REMARK    4  A    between atoms: O_17  and  C_18
REMARK    5  A    between atoms: C_18  and  C_20
REMARK    6  A    between atoms: C_29  and  N_32
REMARK    7  A    between atoms: C_33  and  C_35
REMARK                            x       y       z     vdW  Elec       q    Type
REMARK                         _______ _______ _______ _____ _____    ______ ____
ROOT
ATOM      1  C   UNL     1       5.501  -4.791   0.739  0.00  0.00    +0.314 C 
ATOM      2  O   UNL     1       5.061  -5.225   1.777  0.00  0.00    -0.250 OA
ENDROOT
BRANCH   1   3
ATOM      3  C   UNL     1       6.939  -5.043   0.366  0.00  0.00    +0.070 C 
ATOM      4  C   UNL     1       6.995  -5.811  -0.956  0.00  0.00    +0.021 C 
ATOM      5  C   UNL     1       8.455  -6.067  -1.335  0.00  0.00    -0.008 C 
ATOM      6  C   UNL     1       9.184  -4.731  -1.490  0.00  0.00    +0.007 C 
ATOM      7  C   UNL     1       9.127  -3.963  -0.168  0.00  0.00    -0.008 C 
ATOM      8  C   UNL     1       7.667  -3.707   0.211  0.00  0.00    +0.021 C 
ATOM      9  C   UNL     1       9.802  -4.787   0.930  0.00  0.00    +0.029 C 
ATOM     10  C   UNL     1       9.073  -6.123   1.085  0.00  0.00    +0.036 C 
ATOM     11  C   UNL     1       9.130  -6.892  -0.237  0.00  0.00    +0.029 C 
ATOM     12  C   UNL     1       7.614  -5.867   1.464  0.00  0.00    +0.043 C 
BRANCH  10  13
ATOM     13  N   UNL     1       9.720  -6.913   2.136  0.00  0.00    -0.310 N 
ATOM     14  C   UNL     1      11.016  -7.261   2.017  0.00  0.00    +0.210 C 
ATOM     15  O   UNL     1      11.648  -6.920   1.040  0.00  0.00    -0.276 OA
ATOM     16  C   UNL     1      11.681  -8.073   3.099  0.00  0.00    +0.109 C 
ATOM     17  H   UNL     1       9.214  -7.185   2.918  0.00  0.00    +0.149 HD
ENDBRANCH  10  13
ENDBRANCH   1   3
BRANCH   1  18
ATOM     18  O   UNL     1       4.708  -4.083  -0.081  0.00  0.00    -0.455 OA
BRANCH  18  19
ATOM     19  C   UNL     1       3.356  -3.882   0.336  0.00  0.00    +0.328 C 
BRANCH  19  32
ATOM     20  C   UNL     1      -0.019   1.526   0.010  0.00  0.00    +0.019 C 
ATOM     21  C   UNL     1       0.002  -0.004   0.002  0.00  0.00    +0.050 C 
ATOM     22  C   UNL     1       0.709  -0.492  -1.253  0.00  0.00    +0.033 C 
ATOM     23  C   UNL     1       0.596  -1.969  -1.525  0.00  0.00    +0.115 C 
ATOM     24  N   UNL     1       1.327  -2.758  -0.522  0.00  0.00    -0.268 N 
ATOM     25  C   UNL     1       0.641  -3.176   0.626  0.00  0.00    +0.050 A 
ATOM     26  C   UNL     1       0.290  -4.514   0.771  0.00  0.00    +0.024 A 
ATOM     27  C   UNL     1      -0.428  -4.918   1.881  0.00  0.00    +0.002 A 
ATOM     28  C   UNL     1      -0.805  -4.005   2.849  0.00  0.00    +0.001 A 
ATOM     29  C   UNL     1      -0.445  -2.673   2.722  0.00  0.00    +0.016 A 
ATOM     30  C   UNL     1       0.292  -2.277   1.624  0.00  0.00    +0.030 A 
ATOM     31  S   UNL     1       0.875  -0.603   1.479  0.00  0.00    -0.120 S 
ATOM     32  C   UNL     1       2.625  -3.072  -0.704  0.00  0.00    +0.258 C 
ATOM     33  O   UNL     1       3.205  -2.703  -1.703  0.00  0.00    -0.272 OA
ENDBRANCH  19  32
ENDBRANCH  18  19
ENDBRANCH   1  18
TORSDOF 5
