REMARK  Name = ZINC00714796
REMARK  7 active torsions:
REMARK  status: ('A' for Active; 'I' for Inactive)
REMARK    1  A    between atoms: C_1  and  C_2
REMARK    2  A    between atoms: C_2  and  C_4
REMARK    3  A    between atoms: C_2  and  C_26
REMARK    4  A    between atoms: N_5  and  N_6
REMARK    5  A    between atoms: C_7  and  C_9
REMARK    6  A    between atoms: C_10  and  C_20
REMARK    7  A    between atoms: C_20  and  N_56
REMARK                            x       y       z     vdW  Elec       q    Type
REMARK                         _______ _______ _______ _____ _____    ______ ____
ROOT
ATOM      1  C   UNL     1       5.351  -0.900   1.275  0.00  0.00    +0.170 A 
ATOM      2  C   UNL     1       4.435  -0.185   1.993  0.00  0.00    +0.063 A 
ATOM      3  N   UNL     1       5.071   0.917   2.450  0.00  0.00    -0.194 N 
ATOM      4  N   UNL     1       6.395   0.837   1.994  0.00  0.00    -0.058 NA
ATOM      5  N   UNL     1       6.523  -0.242   1.304  0.00  0.00    -0.124 NA
ATOM      6  C   UNL     1       4.517   1.938   3.230  0.00  0.00    +0.240 A 
ATOM      7  C   UNL     1       5.224   3.126   3.716  0.00  0.00    +0.206 A 
ATOM      8  N   UNL     1       4.386   3.848   4.407  0.00  0.00    -0.032 NA
ATOM      9  O   UNL     1       3.134   3.184   4.401  0.00  0.00    -0.239 OA
ATOM     10  N   UNL     1       3.283   1.997   3.643  0.00  0.00    -0.027 NA
ATOM     11  N   UNL     1       6.560   3.430   3.482  0.00  0.00    -0.337 N 
ATOM     12  H   UNL     1       7.109   2.830   2.954  0.00  0.00    +0.144 HD
ATOM     13  H   UNL     1       6.944   4.244   3.846  0.00  0.00    +0.144 HD
ENDROOT
BRANCH   1  15
ATOM     14  N   UNL     1       6.089  -2.787  -0.094  0.00  0.00    -0.202 N 
ATOM     15  C   UNL     1       5.096  -2.179   0.584  0.00  0.00    +0.285 C 
ATOM     16  O   UNL     1       3.991  -2.683   0.627  0.00  0.00    -0.267 OA
ATOM     17  H   UNL     1       6.971  -2.385  -0.128  0.00  0.00    +0.178 HD
BRANCH  14  19
ATOM     18  C   UNL     1       6.791  -4.580  -1.394  0.00  0.00    +0.111 C 
ATOM     19  N   UNL     1       5.848  -4.002  -0.750  0.00  0.00    -0.192 NA
BRANCH  18  21
ATOM     20  C   UNL     1       7.453  -6.966  -1.528  0.00  0.00    +0.018 C 
ATOM     21  C   UNL     1       6.532  -5.886  -2.099  0.00  0.00    +0.059 C 
BRANCH  21  22
ATOM     22  C   UNL     1       6.801  -5.723  -3.573  0.00  0.00    -0.039 A 
ATOM     23  C   UNL     1       8.058  -5.347  -4.008  0.00  0.00    +0.004 A 
ATOM     24  C   UNL     1       8.306  -5.202  -5.361  0.00  0.00    +0.000 A 
ATOM     25  C   UNL     1       7.294  -5.423  -6.277  0.00  0.00    +0.000 A 
ATOM     26  C   UNL     1       6.036  -5.795  -5.841  0.00  0.00    +0.000 A 
ATOM     27  C   UNL     1       5.789  -5.944  -4.489  0.00  0.00    +0.004 A 
ENDBRANCH  21  22
ENDBRANCH  18  21
ENDBRANCH  14  19
ENDBRANCH   1  15
BRANCH   2  28
ATOM     28  C   UNL     1       2.991  -0.550   2.226  0.00  0.00    -0.020 C 
BRANCH  28  34
ATOM     29  C   UNL     1       0.793  -0.505   1.212  0.00  0.00    -0.078 C 
ATOM     30  C   UNL     1       0.002  -0.004   0.002  0.00  0.00    -0.019 C 
ATOM     31  C   UNL     1      -0.019   1.527   0.010  0.00  0.00    -0.004 C 
ATOM     32  C   UNL     1       1.421   2.049  -0.001  0.00  0.00    -0.019 C 
ATOM     33  C   UNL     1       2.171   1.488   1.210  0.00  0.00    -0.078 C 
ATOM     34  N   UNL     1       2.176   0.012   1.129  0.00  0.00    +0.383 N 
ATOM     35  H   UNL     1       2.584  -0.271   0.231  0.00  0.00    -0.081 HD
ENDBRANCH  28  34
ENDBRANCH   2  28
TORSDOF 6
