REMARK  Name = ZINC38664532
REMARK  8 active torsions:
REMARK  status: ('A' for Active; 'I' for Inactive)
REMARK    1  A    between atoms: C_1  and  C_2
REMARK    2  A    between atoms: C_2  and  O_3
REMARK    3  A    between atoms: O_3  and  C_4
REMARK    4  A    between atoms: C_4  and  C_6
REMARK    5  A    between atoms: C_8  and  N_17
REMARK    6  A    between atoms: N_23  and  C_28
REMARK    7  A    between atoms: C_24  and  C_27
REMARK    8  A    between atoms: C_32  and  C_34
REMARK                            x       y       z     vdW  Elec       q    Type
REMARK                         _______ _______ _______ _____ _____    ______ ____
ROOT
ATOM      1  N   UNL     1       0.001  -1.431   4.245  0.00  0.00    -0.270 N 
ATOM      2  C   UNL     1      -0.722  -1.617   5.367  0.00  0.00    +0.306 C 
ATOM      3  O   UNL     1      -0.762  -2.714   5.889  0.00  0.00    -0.252 OA
ATOM      4  N   UNL     1      -1.401  -0.587   5.910  0.00  0.00    -0.282 N 
ATOM      5  C   UNL     1      -1.465   0.711   5.224  0.00  0.00    +0.128 C 
ATOM      6  C   UNL     1      -0.962   1.797   6.183  0.00  0.00    +0.124 C 
ATOM      7  N   UNL     1      -1.652   1.642   7.471  0.00  0.00    -0.324 N 
ATOM      8  C   UNL     1      -1.588   0.344   8.157  0.00  0.00    +0.088 C 
ATOM      9  C   UNL     1      -2.095  -0.744   7.196  0.00  0.00    +0.131 C 
ATOM     10  C   UNL     1      -0.142   0.048   8.562  0.00  0.00    +0.029 C 
ATOM     11  H   UNL     1       0.101  -0.540   3.874  0.00  0.00    +0.156 HD
ENDROOT
BRANCH   1  13
ATOM     12  C   UNL     1       0.602  -3.931   4.103  0.00  0.00    +0.234 C 
ATOM     13  C   UNL     1       0.592  -2.494   3.631  0.00  0.00    +0.054 C 
ATOM     14  C   UNL     1       1.309  -2.482   2.447  0.00  0.00    +0.020 A 
ATOM     15  C   UNL     1       1.643  -1.444   1.543  0.00  0.00    +0.050 A 
ATOM     16  C   UNL     1       2.374  -1.728   0.435  0.00  0.00    +0.124 A 
ATOM     17  C   UNL     1       2.810  -3.028   0.157  0.00  0.00    +0.040 A 
ATOM     18  C   UNL     1       2.526  -4.068   0.978  0.00  0.00    +0.029 A 
ATOM     19  C   UNL     1       1.766  -3.852   2.157  0.00  0.00    +0.045 A 
ATOM     20  N   UNL     1       1.364  -4.682   3.100  0.00  0.00    -0.367 N 
ATOM     21  F   UNL     1       2.687  -0.731  -0.421  0.00  0.00    -0.205 F 
ATOM     22  H   UNL     1       1.542  -5.635   3.127  0.00  0.00    +0.161 HD
BRANCH  12  23
ATOM     23  C   UNL     1       1.274  -4.031   5.448  0.00  0.00    +0.336 C 
ATOM     24  O   UNL     1       2.480  -4.056   5.521  0.00  0.00    -0.248 OA
BRANCH  23  25
ATOM     25  O   UNL     1       0.533  -4.094   6.566  0.00  0.00    -0.463 OA
BRANCH  25  27
ATOM     26  C   UNL     1       0.233  -4.086   8.964  0.00  0.00    +0.048 C 
ATOM     27  C   UNL     1       1.236  -4.132   7.809  0.00  0.00    +0.229 C 
ENDBRANCH  25  27
ENDBRANCH  23  25
ENDBRANCH  12  23
ENDBRANCH   1  13
BRANCH   7  28
ATOM     28  C   UNL     1      -2.355   2.710   8.034  0.00  0.00    +0.030 A 
ATOM     29  C   UNL     1      -2.485   3.904   7.335  0.00  0.00    +0.023 A 
ATOM     30  C   UNL     1      -3.181   4.957   7.894  0.00  0.00    +0.002 A 
ATOM     31  C   UNL     1      -3.749   4.824   9.148  0.00  0.00    +0.003 A 
ATOM     32  C   UNL     1      -3.622   3.637   9.847  0.00  0.00    -0.049 A 
ATOM     33  C   UNL     1      -2.932   2.578   9.291  0.00  0.00    +0.026 A 
ATOM     34  C   UNL     1      -4.242   3.498  11.213  0.00  0.00    +0.044 C 
ENDBRANCH   7  28
TORSDOF 5
