REMARK  Name = ZINC04268201
REMARK  15 active torsions:
REMARK  status: ('A' for Active; 'I' for Inactive)
REMARK    1  A    between atoms: C_1  and  C_2
REMARK    2  A    between atoms: C_2  and  O_4
REMARK    3  A    between atoms: O_4  and  C_5
REMARK    4  A    between atoms: C_9  and  C_44
REMARK    5  A    between atoms: C_9  and  C_45
REMARK    6  A    between atoms: C_12  and  C_42
REMARK    7  A    between atoms: C_15  and  O_38
REMARK    8  A    between atoms: C_20  and  O_34
REMARK    9  A    between atoms: C_23  and  O_26
REMARK   10  A    between atoms: O_26  and  C_27
REMARK   11  A    between atoms: C_27  and  C_29
REMARK   12  A    between atoms: O_34  and  C_35
REMARK   13  A    between atoms: C_35  and  C_37
REMARK   14  A    between atoms: O_38  and  C_39
REMARK   15  A    between atoms: C_39  and  C_41
REMARK                            x       y       z     vdW  Elec       q    Type
REMARK                         _______ _______ _______ _____ _____    ______ ____
ROOT
ATOM      1  C   UNL     1       0.897   3.618   0.375  0.00  0.00    +0.190 C 
ATOM      2  C   UNL     1       0.475   4.096  -1.012  0.00  0.00    +0.046 C 
ATOM      3  C   UNL     1       1.466   3.634  -2.070  0.00  0.00    +0.010 C 
ATOM      4  C   UNL     1       2.907   4.023  -1.749  0.00  0.00    -0.031 C 
ATOM      5  C   UNL     1       3.272   3.758  -0.307  0.00  0.00    +0.015 C 
ATOM      6  C   UNL     1       2.264   4.228   0.735  0.00  0.00    +0.073 C 
ATOM      7  C   UNL     1       2.680   3.714   2.108  0.00  0.00    +0.067 C 
ATOM      8  C   UNL     1       1.738   4.134   3.220  0.00  0.00    +0.182 C 
ATOM      9  C   UNL     1       2.183   5.343   4.024  0.00  0.00    +0.057 C 
ATOM     10  C   UNL     1       3.684   5.328   4.316  0.00  0.00    +0.067 C 
ATOM     11  C   UNL     1       4.405   5.373   2.934  0.00  0.00    +0.202 C 
ATOM     12  C   UNL     1       4.144   3.931   2.465  0.00  0.00    +0.114 C 
ATOM     13  C   UNL     1       5.075   3.517   1.346  0.00  0.00    +0.194 C 
ATOM     14  C   UNL     1       4.674   4.249   0.054  0.00  0.00    +0.051 C 
ATOM     15  C   UNL     1       4.414   3.108   3.721  0.00  0.00    +0.173 C 
ATOM     16  O   UNL     1       4.814   1.966   3.748  0.00  0.00    -0.292 OA
ATOM     17  C   UNL     1       4.091   3.973   4.867  0.00  0.00    -0.004 C 
ATOM     18  C   UNL     1       4.151   3.630   6.157  0.00  0.00    +0.016 C 
ATOM     19  C   UNL     1       3.805   3.128  -2.642  0.00  0.00    +0.011 C 
ATOM     20  C   UNL     1       3.166   5.469  -2.172  0.00  0.00    +0.011 C 
ENDROOT
BRANCH   6  21
ATOM     21  C   UNL     1       2.109   5.723   0.758  0.00  0.00    +0.234 C 
ATOM     22  O   UNL     1       1.009   6.217   0.690  0.00  0.00    -0.300 OA
ENDBRANCH   6  21
BRANCH   1  23
ATOM     23  O   UNL     1       0.998   2.170   0.380  0.00  0.00    -0.461 OA
BRANCH  23  25
ATOM     24  C   UNL     1      -0.078  -0.024   0.735  0.00  0.00    +0.136 C 
ATOM     25  C   UNL     1      -0.107   1.483   0.709  0.00  0.00    +0.304 C 
ATOM     26  O   UNL     1      -1.127   2.072   0.978  0.00  0.00    -0.251 OA
ENDBRANCH  23  25
ENDBRANCH   1  23
BRANCH  13  27
ATOM     27  O   UNL     1       6.457   3.787   1.668  0.00  0.00    -0.460 OA
BRANCH  27  28
ATOM     28  C   UNL     1       7.379   2.974   1.129  0.00  0.00    +0.304 C 
ATOM     29  O   UNL     1       7.036   2.065   0.410  0.00  0.00    -0.251 OA
ATOM     30  C   UNL     1       8.841   3.194   1.421  0.00  0.00    +0.136 C 
ENDBRANCH  27  28
ENDBRANCH  13  27
BRANCH  11  31
ATOM     31  O   UNL     1       5.824   5.643   3.135  0.00  0.00    -0.460 OA
BRANCH  31  32
ATOM     32  C   UNL     1       6.209   6.929   3.115  0.00  0.00    +0.304 C 
ATOM     33  O   UNL     1       5.392   7.801   2.938  0.00  0.00    -0.251 OA
ATOM     34  C   UNL     1       7.659   7.285   3.316  0.00  0.00    +0.136 C 
ENDBRANCH  31  32
ENDBRANCH  11  31
BRANCH   8  35
ATOM     35  O   UNL     1       1.543   3.007   4.123  0.00  0.00    -0.461 OA
BRANCH  35  36
ATOM     36  C   UNL     1       0.362   2.932   4.757  0.00  0.00    +0.304 C 
ATOM     37  O   UNL     1      -0.481   3.776   4.566  0.00  0.00    -0.251 OA
ATOM     38  C   UNL     1       0.088   1.794   5.707  0.00  0.00    +0.136 C 
ENDBRANCH  35  36
ENDBRANCH   8  35
TORSDOF 9
