REMARK  Name = ZINC01822367
REMARK  12 active torsions:
REMARK  status: ('A' for Active; 'I' for Inactive)
REMARK    1  A    between atoms: C_1  and  C_2
REMARK    2  A    between atoms: C_2  and  C_3
REMARK    3  A    between atoms: C_11  and  C_12
REMARK    4  A    between atoms: C_14  and  O_31
REMARK    5  A    between atoms: C_15  and  O_19
REMARK    6  A    between atoms: O_19  and  C_20
REMARK    7  A    between atoms: C_20  and  C_21
REMARK    8  A    between atoms: C_21  and  O_22
REMARK    9  A    between atoms: O_22  and  C_23
REMARK   10  A    between atoms: C_26  and  C_30
REMARK   11  A    between atoms: C_27  and  C_29
REMARK   12  A    between atoms: O_31  and  C_32
REMARK                            x       y       z     vdW  Elec       q    Type
REMARK                         _______ _______ _______ _____ _____    ______ ____
ROOT
ATOM      1  C   UNL     1      -5.066  -6.768  -4.128  0.00  0.00    -0.019 A 
ATOM      2  C   UNL     1      -5.986  -7.827  -4.107  0.00  0.00    +0.057 A 
ATOM      3  C   UNL     1      -5.736  -8.967  -4.842  0.00  0.00    +0.164 A 
ATOM      4  C   UNL     1      -4.572  -9.067  -5.604  0.00  0.00    +0.180 A 
ATOM      5  C   UNL     1      -3.659  -8.019  -5.627  0.00  0.00    +0.087 A 
ATOM      6  C   UNL     1      -3.901  -6.874  -4.901  0.00  0.00    +0.032 A 
ATOM      7 CL   UNL     1      -2.212  -8.152  -6.578  0.00  0.00    -0.080 Cl
ENDROOT
BRANCH   1  16
ATOM      8  C   UNL     1     -10.347  -3.249   1.271  0.00  0.00    +0.007 C 
ATOM      9  C   UNL     1      -9.421  -4.026   0.717  0.00  0.00    +0.092 A 
ATOM     10  N   UNL     1      -8.415  -3.684  -0.190  0.00  0.00    -0.283 N 
ATOM     11  H   UNL     1      -8.344  -2.780  -0.533  0.00  0.00    +0.188 HD
ATOM     12  N   UNL     1      -7.523  -4.660  -0.586  0.00  0.00    -0.212 N 
ATOM     13  C   UNL     1      -6.370  -4.434  -1.367  0.00  0.00    +0.160 A 
ATOM     14  N   UNL     1      -5.761  -3.281  -1.431  0.00  0.00    -0.281 NA
ATOM     15  C   UNL     1      -5.917  -5.644  -2.111  0.00  0.00    +0.085 A 
ATOM     16  C   UNL     1      -5.324  -5.554  -3.350  0.00  0.00    +0.025 C 
ATOM     17  C   UNL     1      -6.140  -6.950  -1.443  0.00  0.00    +0.283 A 
ATOM     18  O   UNL     1      -5.451  -7.919  -1.716  0.00  0.00    -0.265 OA
ATOM     19  N   UNL     1      -7.125  -7.036  -0.524  0.00  0.00    -0.182 NA
ATOM     20  C   UNL     1      -7.768  -5.955  -0.167  0.00  0.00    +0.199 A 
ATOM     21  S   UNL     1      -9.138  -5.776   0.945  0.00  0.00    -0.031 S 
ATOM     22  H   UNL     1      -6.099  -2.525  -0.925  0.00  0.00    +0.188 HD
BRANCH   8  24
ATOM     23  C   UNL     1     -11.294  -3.055   3.555  0.00  0.00    +0.008 C 
ATOM     24  C   UNL     1     -11.342  -3.836   2.240  0.00  0.00    +0.026 C 
ENDBRANCH   8  24
ENDBRANCH   1  16
BRANCH   3  25
ATOM     25  O   UNL     1      -6.626  -9.996  -4.824  0.00  0.00    -0.491 OA
ATOM     26  C   UNL     1      -7.797  -9.826  -4.021  0.00  0.00    +0.277 C 
ENDBRANCH   3  25
BRANCH   4  27
ATOM     27  O   UNL     1      -4.330 -10.191  -6.327  0.00  0.00    -0.483 OA
BRANCH  27  28
ATOM     28  C   UNL     1      -4.823 -10.220  -7.668  0.00  0.00    +0.270 C 
BRANCH  28  29
ATOM     29  C   UNL     1      -4.457 -11.556  -8.317  0.00  0.00    +0.270 C 
BRANCH  29  30
ATOM     30  O   UNL     1      -5.137 -12.616  -7.642  0.00  0.00    -0.489 OA
BRANCH  30  31
ATOM     31  C   UNL     1      -4.919 -13.877  -8.098  0.00  0.00    +0.121 A 
ATOM     32  C   UNL     1      -4.064 -14.091  -9.170  0.00  0.00    +0.046 A 
ATOM     33  C   UNL     1      -3.845 -15.374  -9.632  0.00  0.00    +0.007 A 
ATOM     34  C   UNL     1      -4.476 -16.445  -9.026  0.00  0.00    -0.047 A 
ATOM     35  C   UNL     1      -5.328 -16.235  -7.958  0.00  0.00    -0.044 A 
ATOM     36  C   UNL     1      -5.547 -14.954  -7.489  0.00  0.00    +0.049 A 
ATOM     37  C   UNL     1      -6.014 -17.405  -7.301  0.00  0.00    +0.044 C 
ATOM     38  C   UNL     1      -4.234 -17.844  -9.532  0.00  0.00    +0.044 C 
ENDBRANCH  30  31
ENDBRANCH  29  30
ENDBRANCH  28  29
ENDBRANCH  27  28
ENDBRANCH   4  27
TORSDOF 8
