REMARK  Name = ZINC12619845
REMARK  7 active torsions:
REMARK  status: ('A' for Active; 'I' for Inactive)
REMARK    1  A    between atoms: C_3  and  C_9
REMARK    2  A    between atoms: C_9  and  C_10
REMARK    3  A    between atoms: C_10  and  N_11
REMARK    4  A    between atoms: C_12  and  C_14
REMARK    5  A    between atoms: C_14  and  S_15
REMARK    6  A    between atoms: S_15  and  C_16
REMARK    7  A    between atoms: C_22  and  N_24
REMARK                            x       y       z     vdW  Elec       q    Type
REMARK                         _______ _______ _______ _____ _____    ______ ____
ROOT
ATOM      1  N   UNL     1      -3.259  -2.322   0.021  0.00  0.00    -0.314 N 
ATOM      2  C   UNL     1      -2.004  -1.832   0.011  0.00  0.00    +0.223 C 
ATOM      3  O   UNL     1      -1.057  -2.590  -0.002  0.00  0.00    -0.275 OA
ATOM      4  H   UNL     1      -4.016  -1.716   0.031  0.00  0.00    +0.149 HD
ENDROOT
BRANCH   1   5
ATOM      5  C   UNL     1      -3.481  -3.770   0.015  0.00  0.00    +0.109 C 
BRANCH   5   6
ATOM      6  C   UNL     1      -4.984  -4.056   0.028  0.00  0.00    +0.055 C 
BRANCH   6   9
ATOM      7  C   UNL     1      -5.720  -7.570   1.196  0.00  0.00    +0.020 A 
ATOM      8  C   UNL     1      -5.510  -6.204   1.200  0.00  0.00    +0.006 A 
ATOM      9  C   UNL     1      -5.212  -5.546   0.022  0.00  0.00    -0.027 A 
ATOM     10  C   UNL     1      -5.127  -6.254  -1.164  0.00  0.00    +0.046 A 
ATOM     11  C   UNL     1      -5.332  -7.622  -1.168  0.00  0.00    +0.040 A 
ATOM     12  C   UNL     1      -5.630  -8.280   0.011  0.00  0.00    +0.042 A 
ATOM     13 CL   UNL     1      -5.893  -9.996   0.006  0.00  0.00    -0.083 Cl
ATOM     14 CL   UNL     1      -4.759  -5.426  -2.645  0.00  0.00    -0.083 Cl
ENDBRANCH   6   9
ENDBRANCH   5   6
ENDBRANCH   1   5
BRANCH   2  15
ATOM     15  C   UNL     1      -1.776  -0.343   0.017  0.00  0.00    +0.173 C 
BRANCH  15  16
ATOM     16  S   UNL     1       0.002  -0.004   0.002  0.00  0.00    -0.078 S 
BRANCH  16  17
ATOM     17  C   UNL     1      -0.022   1.758   0.012  0.00  0.00    +0.171 A 
ATOM     18  N   UNL     1       1.157   2.441   0.004  0.00  0.00    -0.302 N 
ATOM     19  H   UNL     1       1.997   1.957  -0.006  0.00  0.00    +0.171 HD
ATOM     20  C   UNL     1       1.157   3.791   0.011  0.00  0.00    +0.254 A 
ATOM     21  O   UNL     1       2.209   4.411   0.004  0.00  0.00    -0.268 OA
ATOM     22  C   UNL     1      -0.067   4.466   0.025  0.00  0.00    +0.113 A 
ATOM     23  C   UNL     1      -1.239   3.724   0.033  0.00  0.00    +0.124 A 
ATOM     24  N   UNL     1      -1.179   2.387   0.021  0.00  0.00    -0.209 NA
BRANCH  23  25
ATOM     25  N   UNL     1      -2.463   4.362   0.047  0.00  0.00    -0.343 N 
ATOM     26  H   UNL     1      -2.505   5.331   0.052  0.00  0.00    +0.144 HD
ATOM     27  H   UNL     1      -3.282   3.841   0.053  0.00  0.00    +0.144 HD
ENDBRANCH  23  25
ENDBRANCH  16  17
ENDBRANCH  15  16
ENDBRANCH   2  15
TORSDOF 7
