REMARK  Name = ZINC43959459
REMARK  8 active torsions:
REMARK  status: ('A' for Active; 'I' for Inactive)
REMARK    1  A    between atoms: C_1  and  S_2
REMARK    2  A    between atoms: S_2  and  C_3
REMARK    3  A    between atoms: C_8  and  C_9
REMARK    4  A    between atoms: C_9  and  N_10
REMARK    5  A    between atoms: C_13  and  C_16
REMARK    6  A    between atoms: C_16  and  N_17
REMARK    7  A    between atoms: N_17  and  S_18
REMARK    8  A    between atoms: S_18  and  C_21
REMARK                            x       y       z     vdW  Elec       q    Type
REMARK                         _______ _______ _______ _____ _____    ______ ____
ROOT
ATOM      1  N   UNL     1      -1.194  -2.813  -2.532  0.00  0.00    +0.382 N 
ATOM      2  C   UNL     1      -1.676  -3.407  -3.784  0.00  0.00    -0.078 C 
ATOM      3  C   UNL     1      -3.191  -3.609  -3.708  0.00  0.00    -0.014 C 
ATOM      4  C   UNL     1      -3.518  -4.544  -2.540  0.00  0.00    +0.001 C 
ATOM      5  C   UNL     1      -2.946  -3.950  -1.249  0.00  0.00    -0.014 C 
ATOM      6  C   UNL     1      -1.440  -3.735  -1.417  0.00  0.00    -0.078 C 
ATOM      7  H   UNL     1      -1.683  -1.946  -2.363  0.00  0.00    -0.081 HD
ENDROOT
BRANCH   1   8
ATOM      8  C   UNL     1       0.247  -2.549  -2.639  0.00  0.00    -0.042 C 
BRANCH   8  14
ATOM      9  C   UNL     1       0.300  -0.163  -3.414  0.00  0.00    +0.009 A 
ATOM     10  C   UNL     1       0.531   0.793  -4.396  0.00  0.00    +0.015 A 
ATOM     11  C   UNL     1       0.942   0.402  -5.655  0.00  0.00    +0.001 A 
ATOM     12  C   UNL     1       1.124  -0.939  -5.939  0.00  0.00    +0.000 A 
ATOM     13  C   UNL     1       0.895  -1.893  -4.965  0.00  0.00    +0.003 A 
ATOM     14  C   UNL     1       0.489  -1.509  -3.702  0.00  0.00    -0.051 A 
BRANCH   9  16
ATOM     15  C   UNL     1      -0.330   2.139  -1.916  0.00  0.00    +0.090 C 
ATOM     16  S   UNL     1      -0.225   0.331  -1.807  0.00  0.00    -0.128 S 
ENDBRANCH   9  16
ENDBRANCH   8  14
ENDBRANCH   1   8
BRANCH   4  17
ATOM     17  C   UNL     1      -5.035  -4.687  -2.409  0.00  0.00    +0.109 C 
BRANCH  17  18
ATOM     18  N   UNL     1      -5.344  -5.672  -1.370  0.00  0.00    -0.194 NA
ATOM     19  H   UNL     1      -4.649  -6.263  -1.039  0.00  0.00    +0.148 HD
BRANCH  18  20
ATOM     20  S   UNL     1      -6.880  -5.779  -0.760  0.00  0.00    +0.032 S 
ATOM     21  O   UNL     1      -7.717  -5.890  -1.903  0.00  0.00    -0.158 OA
ATOM     22  O   UNL     1      -6.819  -6.827   0.198  0.00  0.00    -0.158 OA
BRANCH  20  23
ATOM     23  C   UNL     1      -7.163  -4.190   0.070  0.00  0.00    +0.148 C 
ATOM     24  C   UNL     1      -6.125  -4.001   1.177  0.00  0.00    +0.028 C 
ATOM     25  C   UNL     1      -6.364  -2.662   1.877  0.00  0.00    +0.002 C 
ATOM     26  C   UNL     1      -7.768  -2.647   2.486  0.00  0.00    +0.000 C 
ATOM     27  C   UNL     1      -8.806  -2.836   1.378  0.00  0.00    +0.002 C 
ATOM     28  C   UNL     1      -8.567  -4.176   0.678  0.00  0.00    +0.028 C 
ENDBRANCH  20  23
ENDBRANCH  18  20
ENDBRANCH  17  18
ENDBRANCH   4  17
TORSDOF 7
