REMARK  Name = ZINC06244279
REMARK  8 active torsions:
REMARK  status: ('A' for Active; 'I' for Inactive)
REMARK    1  A    between atoms: C_1  and  C_2
REMARK    2  A    between atoms: C_2  and  C_3
REMARK    3  A    between atoms: C_3  and  C_4
REMARK    4  A    between atoms: C_4  and  C_5
REMARK    5  A    between atoms: C_5  and  N_6
REMARK    6  A    between atoms: C_14  and  N_15
REMARK    7  A    between atoms: C_16  and  C_17
REMARK    8  A    between atoms: C_22  and  O_23
REMARK                            x       y       z     vdW  Elec       q    Type
REMARK                         _______ _______ _______ _____ _____    ______ ____
ROOT
ATOM      1  N   UNL     1      -0.603  -4.393  -3.709  0.00  0.00    -0.221 NA
ATOM      2  C   UNL     1      -1.444  -5.271  -4.195  0.00  0.00    +0.126 C 
ENDROOT
BRANCH   2   3
ATOM      3  C   UNL     1      -2.659  -4.822  -4.874  0.00  0.00    +0.047 A 
ATOM      4  C   UNL     1      -3.575  -5.762  -5.396  0.00  0.00    +0.036 A 
ATOM      5  C   UNL     1      -4.739  -5.320  -6.045  0.00  0.00    +0.137 A 
ATOM      6  C   UNL     1      -4.980  -3.956  -6.169  0.00  0.00    +0.065 A 
ATOM      7  C   UNL     1      -4.086  -3.037  -5.660  0.00  0.00    +0.063 A 
ATOM      8  C   UNL     1      -2.931  -3.453  -5.009  0.00  0.00    +0.140 A 
ATOM      9 BR   UNL     1      -4.439  -1.188  -5.846  0.00  0.00    -0.046 Br
ATOM     10  O   UNL     1      -5.424  -6.416  -6.437  0.00  0.00    -0.459 OA
ATOM     11  C   UNL     1      -4.775  -7.536  -6.086  0.00  0.00    +0.109 A 
ATOM     12  C   UNL     1      -3.635  -7.216  -5.444  0.00  0.00    +0.002 A 
ATOM     13  C   UNL     1      -2.645  -8.211  -4.898  0.00  0.00    +0.039 C 
ATOM     14  C   UNL     1      -3.326  -9.584  -4.829  0.00  0.00    +0.005 C 
ATOM     15  C   UNL     1      -4.003  -9.882  -6.170  0.00  0.00    +0.008 C 
ATOM     16  C   UNL     1      -5.213  -8.959  -6.349  0.00  0.00    +0.075 C 
BRANCH   8  17
ATOM     17  O   UNL     1      -2.065  -2.535  -4.509  0.00  0.00    -0.505 OA
ATOM     18  H   UNL     1      -1.381  -2.259  -5.134  0.00  0.00    +0.292 HD
ENDBRANCH   8  17
ENDBRANCH   2   3
BRANCH   1  27
ATOM     19  N   UNL     1       1.475  -3.986  -2.532  0.00  0.00    -0.310 N 
ATOM     20  C   UNL     1       2.452  -4.796  -1.984  0.00  0.00    +0.068 A 
ATOM     21  C   UNL     1       3.637  -4.551  -1.305  0.00  0.00    +0.028 A 
ATOM     22  C   UNL     1       4.412  -5.608  -0.876  0.00  0.00    +0.002 A 
ATOM     23  C   UNL     1       4.015  -6.915  -1.120  0.00  0.00    +0.002 A 
ATOM     24  C   UNL     1       2.852  -7.178  -1.788  0.00  0.00    +0.028 A 
ATOM     25  C   UNL     1       2.050  -6.121  -2.232  0.00  0.00    +0.066 A 
ATOM     26  N   UNL     1       0.874  -6.065  -2.903  0.00  0.00    -0.324 N 
ATOM     27  C   UNL     1       0.525  -4.810  -3.079  0.00  0.00    +0.209 A 
ATOM     28  H   UNL     1       0.365  -6.834  -3.204  0.00  0.00    +0.169 HD
BRANCH  19  29
ATOM     29  C   UNL     1       1.455  -2.521  -2.524  0.00  0.00    +0.125 C 
BRANCH  29  30
ATOM     30  C   UNL     1       0.739  -2.027  -1.265  0.00  0.00    +0.022 C 
BRANCH  30  31
ATOM     31  C   UNL     1       0.718  -0.497  -1.257  0.00  0.00    +0.001 C 
BRANCH  31  33
ATOM     32  C   UNL     1      -0.019   1.526   0.010  0.00  0.00    +0.004 C 
ATOM     33  C   UNL     1       0.002  -0.004   0.002  0.00  0.00    -0.003 C 
ENDBRANCH  31  33
ENDBRANCH  30  31
ENDBRANCH  29  30
ENDBRANCH  19  29
ENDBRANCH   1  27
TORSDOF 7
