REMARK  Name = ZINC12789584
REMARK  2 active torsions:
REMARK  status: ('A' for Active; 'I' for Inactive)
REMARK    1  A    between atoms: C_8  and  C_13
REMARK    2  A    between atoms: N_15  and  C_16
REMARK                            x       y       z     vdW  Elec       q    Type
REMARK                         _______ _______ _______ _____ _____    ______ ____
ROOT
ATOM      1  C   UNL     1       4.851   4.313   0.341  0.00  0.00    +0.254 C 
ATOM      2  O   UNL     1       5.889   3.830   0.752  0.00  0.00    -0.270 OA
ATOM      3  N   UNL     1       4.834   5.580  -0.118  0.00  0.00    -0.280 N 
ATOM      4  H   UNL     1       3.993   5.993  -0.370  0.00  0.00    +0.155 HD
ENDROOT
BRANCH   1  12
ATOM      5  C   UNL     1       1.170  -0.462   1.498  0.00  0.00    +0.001 A 
ATOM      6  C   UNL     1       0.031   0.063   0.900  0.00  0.00    +0.002 A 
ATOM      7  C   UNL     1       0.057   1.309   0.313  0.00  0.00    +0.026 A 
ATOM      8  C   UNL     1       1.234   2.054   0.317  0.00  0.00    +0.049 A 
ATOM      9  C   UNL     1       2.387   1.520   0.924  0.00  0.00    -0.001 A 
ATOM     10  C   UNL     1       2.335   0.248   1.515  0.00  0.00    +0.010 A 
ATOM     11  C   UNL     1       3.591   2.264   0.936  0.00  0.00    +0.028 A 
ATOM     12  C   UNL     1       3.614   3.515   0.346  0.00  0.00    +0.102 A 
ATOM     13  C   UNL     1       2.392   4.036  -0.276  0.00  0.00    +0.261 A 
ATOM     14  O   UNL     1       2.398   5.136  -0.799  0.00  0.00    -0.267 OA
ATOM     15  N   UNL     1       1.264   3.302  -0.270  0.00  0.00    -0.321 N 
ATOM     16  H   UNL     1       0.461   3.655  -0.683  0.00  0.00    +0.169 HD
ENDBRANCH   1  12
BRANCH   3  17
ATOM     17  C   UNL     1       6.030   6.300  -0.232  0.00  0.00    +0.056 A 
ATOM     18  C   UNL     1       7.239   5.625  -0.346  0.00  0.00    +0.074 A 
ATOM     19  C   UNL     1       8.416   6.343  -0.464  0.00  0.00    +0.164 A 
ATOM     20  C   UNL     1       8.391   7.730  -0.456  0.00  0.00    +0.163 A 
ATOM     21  C   UNL     1       7.187   8.404  -0.337  0.00  0.00    +0.071 A 
ATOM     22  C   UNL     1       6.007   7.689  -0.225  0.00  0.00    +0.066 A 
ATOM     23 CL   UNL     1       4.496   8.530  -0.076  0.00  0.00    -0.081 Cl
ATOM     24  O   UNL     1       9.560   8.427  -0.565  0.00  0.00    -0.488 OA
ATOM     25  C   UNL     1      10.222   8.342  -1.829  0.00  0.00    +0.232 C 
ATOM     26  C   UNL     1      11.088   7.094  -1.901  0.00  0.00    +0.082 C 
ATOM     27  C   UNL     1      10.268   5.816  -1.844  0.00  0.00    +0.232 C 
ATOM     28  O   UNL     1       9.610   5.691  -0.582  0.00  0.00    -0.488 OA
ENDBRANCH   3  17
TORSDOF 2
