REMARK  Name = ZINC47419645
REMARK  9 active torsions:
REMARK  status: ('A' for Active; 'I' for Inactive)
REMARK    1  A    between atoms: C_1  and  C_2
REMARK    2  A    between atoms: C_2  and  C_3
REMARK    3  A    between atoms: C_2  and  C_4
REMARK    4  A    between atoms: C_2  and  O_5
REMARK    5  A    between atoms: O_5  and  C_6
REMARK    6  A    between atoms: C_12  and  C_14
REMARK    7  A    between atoms: N_16  and  C_17
REMARK    8  A    between atoms: N_23  and  S_26
REMARK    9  A    between atoms: S_26  and  N_29
REMARK                            x       y       z     vdW  Elec       q    Type
REMARK                         _______ _______ _______ _____ _____    ______ ____
ROOT
ATOM      1  C   UNL     1       4.942  -0.685  -1.647  0.00  0.00    +0.238 C 
ATOM      2  O   UNL     1       4.543  -1.557  -0.903  0.00  0.00    -0.273 OA
ATOM      3  N   UNL     1       6.189  -0.196  -1.504  0.00  0.00    -0.284 N 
ATOM      4  H   UNL     1       6.531   0.453  -2.139  0.00  0.00    +0.155 HD
ENDROOT
BRANCH   3   5
ATOM      5  C   UNL     1       6.990  -0.623  -0.439  0.00  0.00    +0.035 A 
ATOM      6  C   UNL     1       6.912  -1.937   0.005  0.00  0.00    +0.024 A 
ATOM      7  C   UNL     1       7.705  -2.354   1.056  0.00  0.00    +0.007 A 
ATOM      8  C   UNL     1       8.575  -1.469   1.665  0.00  0.00    -0.023 A 
ATOM      9  C   UNL     1       8.663  -0.155   1.232  0.00  0.00    +0.057 A 
ATOM     10  C   UNL     1       7.865   0.263   0.166  0.00  0.00    +0.048 A 
ATOM     11  N   UNL     1       9.596   0.571   1.975  0.00  0.00    -0.193 N 
ATOM     12  C   UNL     1      10.203  -0.287   2.997  0.00  0.00    +0.137 C 
ATOM     13  C   UNL     1       9.539  -1.662   2.815  0.00  0.00    +0.058 C 
BRANCH  11  14
ATOM     14  S   UNL     1       9.964   2.167   1.736  0.00  0.00    +0.109 S 
ATOM     15  O   UNL     1      11.271   2.365   2.256  0.00  0.00    -0.138 OA
ATOM     16  O   UNL     1       9.628   2.465   0.388  0.00  0.00    -0.138 OA
BRANCH  14  17
ATOM     17  N   UNL     1       8.937   3.054   2.686  0.00  0.00    -0.190 NA
ATOM     18  H   UNL     1       8.280   2.604   3.241  0.00  0.00    +0.146 HD
ATOM     19  H   UNL     1       8.993   4.022   2.689  0.00  0.00    +0.146 HD
ENDBRANCH  14  17
ENDBRANCH  11  14
ENDBRANCH   3   5
BRANCH   1  26
ATOM     20  C   UNL     1       1.952  -0.076  -1.346  0.00  0.00    +0.404 C 
ATOM     21  O   UNL     1       2.487   0.632  -0.516  0.00  0.00    -0.226 OA
ATOM     22  N   UNL     1       2.642  -0.485  -2.429  0.00  0.00    -0.256 N 
ATOM     23  C   UNL     1       2.116  -1.337  -3.511  0.00  0.00    +0.112 C 
ATOM     24  C   UNL     1       3.003  -1.010  -4.739  0.00  0.00    +0.021 C 
ATOM     25  C   UNL     1       4.392  -0.816  -4.077  0.00  0.00    +0.033 C 
ATOM     26  C   UNL     1       4.041  -0.150  -2.730  0.00  0.00    +0.165 C 
BRANCH  20  27
ATOM     27  O   UNL     1       0.670  -0.453  -1.183  0.00  0.00    -0.445 OA
BRANCH  27  29
ATOM     28  C   UNL     1      -0.019   1.546  -0.013  0.00  0.00    +0.055 C 
ATOM     29  C   UNL     1      -0.001   0.017  -0.011  0.00  0.00    +0.107 C 
ATOM     30  C   UNL     1       0.736  -0.483   1.233  0.00  0.00    +0.055 C 
ATOM     31  C   UNL     1      -1.437  -0.510   0.000  0.00  0.00    +0.055 C 
ENDBRANCH  27  29
ENDBRANCH  20  27
ENDBRANCH   1  26
TORSDOF 6
