REMARK  Name = ZINC11591554
REMARK  5 active torsions:
REMARK  status: ('A' for Active; 'I' for Inactive)
REMARK    1  A    between atoms: N_13  and  C_17
REMARK    2  A    between atoms: C_17  and  C_18
REMARK    3  A    between atoms: N_20  and  C_21
REMARK    4  A    between atoms: C_21  and  C_22
REMARK    5  A    between atoms: N_24  and  C_25
REMARK                            x       y       z     vdW  Elec       q    Type
REMARK                         _______ _______ _______ _____ _____    ______ ____
ROOT
ATOM      1  C   UNL     1      -1.587   3.781   2.658  0.00  0.00    +0.213 C 
ENDROOT
BRANCH   1  14
ATOM      2  C   UNL     1      -0.705   8.532  -0.916  0.00  0.00    +0.001 A 
ATOM      3  C   UNL     1      -1.645   9.436  -1.375  0.00  0.00    +0.004 A 
ATOM      4  C   UNL     1      -2.774   9.696  -0.625  0.00  0.00    +0.046 A 
ATOM      5  C   UNL     1      -2.970   9.051   0.592  0.00  0.00    +0.126 A 
ATOM      6  C   UNL     1      -2.028   8.143   1.047  0.00  0.00    +0.027 A 
ATOM      7  C   UNL     1      -0.897   7.888   0.290  0.00  0.00    +0.010 A 
ATOM      8  C   UNL     1      -2.212   7.424   2.353  0.00  0.00    +0.144 C 
ATOM      9  C   UNL     1      -3.263   8.123   3.212  0.00  0.00    +0.081 C 
ATOM     10  C   UNL     1      -4.484   8.421   2.331  0.00  0.00    +0.232 C 
ATOM     11  O   UNL     1      -4.090   9.335   1.306  0.00  0.00    -0.492 OA
ATOM     12  C   UNL     1      -2.604   5.984   2.111  0.00  0.00    +0.252 C 
ATOM     13  O   UNL     1      -3.596   5.579   1.544  0.00  0.00    -0.272 OA
ATOM     14  N   UNL     1      -1.618   5.245   2.660  0.00  0.00    -0.215 N 
ATOM     15  C   UNL     1      -0.673   6.017   3.213  0.00  0.00    +0.310 C 
ATOM     16  O   UNL     1       0.313   5.581   3.773  0.00  0.00    -0.252 OA
ATOM     17  N   UNL     1      -0.937   7.330   3.075  0.00  0.00    -0.281 N 
ATOM     18  H   UNL     1      -0.394   8.069   3.392  0.00  0.00    +0.152 HD
ENDBRANCH   1  14
BRANCH   1  19
ATOM     19  C   UNL     1      -0.876   3.296   1.421  0.00  0.00    +0.231 C 
ATOM     20  O   UNL     1      -0.438   4.095   0.620  0.00  0.00    -0.274 OA
ATOM     21  N   UNL     1      -0.727   1.974   1.204  0.00  0.00    -0.305 N 
ATOM     22  H   UNL     1      -1.077   1.335   1.844  0.00  0.00    +0.149 HD
BRANCH  21  23
ATOM     23  C   UNL     1      -0.036   1.502   0.002  0.00  0.00    +0.200 C 
BRANCH  23  24
ATOM     24  C   UNL     1      -0.004  -0.005  -0.001  0.00  0.00    +0.234 C 
ATOM     25  O   UNL     1      -0.509  -0.624   0.911  0.00  0.00    -0.274 OA
ATOM     26  N   UNL     1       0.585  -0.664  -1.018  0.00  0.00    -0.282 N 
ATOM     27  H   UNL     1       0.932  -0.173  -1.779  0.00  0.00    +0.155 HD
BRANCH  26  28
ATOM     28  C   UNL     1       0.697  -2.061  -0.976  0.00  0.00    +0.072 A 
ATOM     29  C   UNL     1      -0.305  -2.821  -0.389  0.00  0.00    +0.029 A 
ATOM     30  C   UNL     1      -0.194  -4.198  -0.348  0.00  0.00    +0.043 A 
ATOM     31  C   UNL     1       0.916  -4.821  -0.891  0.00  0.00    +0.161 A 
ATOM     32  C   UNL     1       1.920  -4.066  -1.478  0.00  0.00    +0.195 A 
ATOM     33  C   UNL     1       1.810  -2.687  -1.526  0.00  0.00    +0.182 A 
ATOM     34  F   UNL     1       2.784  -1.950  -2.102  0.00  0.00    -0.200 F 
ATOM     35  F   UNL     1       3.002  -4.676  -2.008  0.00  0.00    -0.199 F 
ATOM     36  F   UNL     1       1.022  -6.168  -0.849  0.00  0.00    -0.202 F 
ENDBRANCH  26  28
ENDBRANCH  23  24
ENDBRANCH  21  23
ENDBRANCH   1  19
TORSDOF 5
