REMARK  Name = ZINC66130530
REMARK  10 active torsions:
REMARK  status: ('A' for Active; 'I' for Inactive)
REMARK    1  A    between atoms: C_1  and  C_2
REMARK    2  A    between atoms: C_2  and  C_3
REMARK    3  A    between atoms: C_3  and  C_5
REMARK    4  A    between atoms: C_3  and  N_6
REMARK    5  A    between atoms: C_7  and  C_18
REMARK    6  A    between atoms: C_21  and  N_24
REMARK    7  A    between atoms: N_24  and  C_25
REMARK    8  A    between atoms: N_24  and  C_27
REMARK    9  A    between atoms: C_25  and  C_26
REMARK   10  A    between atoms: C_27  and  C_28
REMARK                            x       y       z     vdW  Elec       q    Type
REMARK                         _______ _______ _______ _____ _____    ______ ____
ROOT
ATOM      1  N   UNL     1       0.129  -0.105  -2.138  0.00  0.00    -0.272 N 
ATOM      2  C   UNL     1       0.261   0.456  -3.483  0.00  0.00    +0.193 C 
ATOM      3  N   UNL     1      -0.769  -0.098  -4.369  0.00  0.00    -0.321 N 
ATOM      4  C   UNL     1      -2.070  -0.215  -3.893  0.00  0.00    +0.041 A 
ATOM      5  C   UNL     1      -3.164  -0.151  -4.739  0.00  0.00    +0.024 A 
ATOM      6  C   UNL     1      -4.438  -0.283  -4.221  0.00  0.00    +0.002 A 
ATOM      7  C   UNL     1      -4.629  -0.479  -2.862  0.00  0.00    +0.001 A 
ATOM      8  C   UNL     1      -3.550  -0.540  -2.005  0.00  0.00    +0.015 A 
ATOM      9  C   UNL     1      -2.260  -0.403  -2.513  0.00  0.00    +0.058 A 
ATOM     10  C   UNL     1      -1.076  -0.441  -1.637  0.00  0.00    +0.250 C 
ATOM     11  O   UNL     1      -1.187  -0.770  -0.472  0.00  0.00    -0.270 OA
ATOM     12  H   UNL     1      -0.546  -0.378  -5.271  0.00  0.00    +0.148 HD
ENDROOT
BRANCH   2  13
ATOM     13  C   UNL     1       0.104   1.953  -3.416  0.00  0.00    -0.009 A 
ATOM     14  C   UNL     1       0.061   2.590  -2.190  0.00  0.00    +0.009 A 
ATOM     15  C   UNL     1      -0.083   3.963  -2.129  0.00  0.00    +0.022 A 
ATOM     16  C   UNL     1      -0.183   4.700  -3.294  0.00  0.00    +0.013 A 
ATOM     17  C   UNL     1      -0.139   4.064  -4.521  0.00  0.00    +0.022 A 
ATOM     18  C   UNL     1       0.010   2.691  -4.582  0.00  0.00    +0.009 A 
BRANCH  16  19
ATOM     19  N   UNL     1      -0.330   6.089  -3.232  0.00  0.00    -0.394 NA
ATOM     20  H   UNL     1      -0.343   6.383  -2.267  0.00  0.00    +0.126 HD
BRANCH  19  21
ATOM     21  C   UNL     1       0.796   6.731  -3.925  0.00  0.00    +0.081 C 
ATOM     22  C   UNL     1       2.097   6.417  -3.183  0.00  0.00    +0.022 C 
ENDBRANCH  19  21
BRANCH  19  23
ATOM     23  C   UNL     1      -1.589   6.478  -3.880  0.00  0.00    +0.081 C 
ATOM     24  C   UNL     1      -2.768   5.920  -3.080  0.00  0.00    +0.022 C 
ENDBRANCH  19  23
ENDBRANCH  16  19
ENDBRANCH   2  13
BRANCH   1  25
ATOM     25  C   UNL     1       1.330  -0.311  -1.324  0.00  0.00    +0.075 C 
ATOM     26  C   UNL     1       2.377   0.745  -1.682  0.00  0.00    +0.028 C 
BRANCH  25  28
ATOM     27  C   UNL     1       0.930  -2.764  -1.062  0.00  0.00    +0.006 C 
ATOM     28  C   UNL     1       1.898  -1.706  -1.596  0.00  0.00    +0.019 C 
ENDBRANCH  25  28
ENDBRANCH   1  25
TORSDOF 6
