REMARK  Name = ZINC63624929
REMARK  5 active torsions:
REMARK  status: ('A' for Active; 'I' for Inactive)
REMARK    1  A    between atoms: C_1  and  C_2
REMARK    2  A    between atoms: C_5  and  C_33
REMARK    3  A    between atoms: C_6  and  S_8
REMARK    4  A    between atoms: S_8  and  N_11
REMARK    5  A    between atoms: C_24  and  C_26
REMARK                            x       y       z     vdW  Elec       q    Type
REMARK                         _______ _______ _______ _____ _____    ______ ____
ROOT
ATOM      1  N   UNL     1      -1.329  -3.900   2.602  0.00  0.00    -0.167 NA
ATOM      2  C   UNL     1      -2.578  -3.294   3.075  0.00  0.00    +0.114 C 
ATOM      3  C   UNL     1      -3.633  -3.353   1.954  0.00  0.00    +0.050 C 
ATOM      4  C   UNL     1      -3.575  -4.747   1.379  0.00  0.00    -0.035 C 
ATOM      5  C   UNL     1      -4.525  -5.649   1.168  0.00  0.00    -0.001 A 
ATOM      6  C   UNL     1      -5.988  -5.584   1.313  0.00  0.00    +0.010 A 
ATOM      7  C   UNL     1      -6.671  -6.723   1.024  0.00  0.00    +0.001 A 
ATOM      8  C   UNL     1      -6.052  -7.907   0.610  0.00  0.00    +0.002 A 
ATOM      9  C   UNL     1      -4.713  -8.055   0.442  0.00  0.00    +0.026 A 
ATOM     10  C   UNL     1      -3.890  -6.922   0.708  0.00  0.00    +0.043 A 
ATOM     11  N   UNL     1      -2.602  -6.777   0.609  0.00  0.00    -0.376 N 
ATOM     12  C   UNL     1      -2.268  -5.389   0.931  0.00  0.00    +0.129 C 
ATOM     13  C   UNL     1      -1.305  -5.287   2.113  0.00  0.00    +0.136 C 
ATOM     14  H   UNL     1      -1.970  -7.471   0.363  0.00  0.00    +0.160 HD
ENDROOT
BRANCH  13  15
ATOM     15  C   UNL     1      -1.748  -6.223   3.209  0.00  0.00    -0.026 A 
ATOM     16  C   UNL     1      -0.914  -7.244   3.624  0.00  0.00    +0.007 A 
ATOM     17  C   UNL     1      -1.320  -8.102   4.629  0.00  0.00    +0.020 A 
ATOM     18  C   UNL     1      -2.560  -7.938   5.219  0.00  0.00    +0.041 A 
ATOM     19  C   UNL     1      -3.394  -6.915   4.803  0.00  0.00    +0.020 A 
ATOM     20  C   UNL     1      -2.985  -6.055   3.802  0.00  0.00    +0.007 A 
ATOM     21 CL   UNL     1      -3.070  -9.015   6.481  0.00  0.00    -0.084 Cl
ENDBRANCH  13  15
BRANCH   1  22
ATOM     22  S   UNL     1       0.068  -3.011   2.612  0.00  0.00    +0.062 S 
ATOM     23  O   UNL     1       1.139  -3.936   2.492  0.00  0.00    -0.153 OA
ATOM     24  O   UNL     1      -0.036  -2.103   3.700  0.00  0.00    -0.153 OA
BRANCH  22  30
ATOM     25  C   UNL     1      -1.754  -1.881  -2.156  0.00  0.00    +0.044 C 
ATOM     26  C   UNL     1      -0.795  -1.565  -1.036  0.00  0.00    -0.049 A 
ATOM     27  C   UNL     1       0.091  -0.511  -1.162  0.00  0.00    +0.004 A 
ATOM     28  C   UNL     1       0.970  -0.221  -0.136  0.00  0.00    +0.005 A 
ATOM     29  C   UNL     1       0.963  -0.984   1.017  0.00  0.00    -0.024 A 
ATOM     30  C   UNL     1       0.076  -2.037   1.143  0.00  0.00    +0.109 A 
ATOM     31  C   UNL     1      -0.806  -2.325   0.118  0.00  0.00    +0.032 A 
ATOM     32  C   UNL     1       1.922  -0.669   2.135  0.00  0.00    +0.046 C 
ENDBRANCH  22  30
ENDBRANCH   1  22
TORSDOF 3
