REMARK  Name = ZINC04154649
REMARK  8 active torsions:
REMARK  status: ('A' for Active; 'I' for Inactive)
REMARK    1  A    between atoms: C_1  and  C_2
REMARK    2  A    between atoms: C_3  and  C_24
REMARK    3  A    between atoms: C_4  and  N_14
REMARK    4  A    between atoms: C_6  and  C_8
REMARK    5  A    between atoms: N_14  and  N_15
REMARK    6  A    between atoms: C_16  and  C_17
REMARK    7  A    between atoms: C_20  and  O_23
REMARK    8  A    between atoms: C_24  and  C_25
REMARK                            x       y       z     vdW  Elec       q    Type
REMARK                         _______ _______ _______ _____ _____    ______ ____
ROOT
ATOM      1  C   UNL     1       2.396   0.092   2.562  0.00  0.00    +0.066 C 
ATOM      2  C   UNL     1       1.880  -1.310   2.367  0.00  0.00    +0.047 A 
ATOM      3  C   UNL     1       1.369  -1.702   1.144  0.00  0.00    +0.019 A 
ATOM      4  C   UNL     1       0.906  -3.014   1.004  0.00  0.00    +0.146 A 
ATOM      5  N   UNL     1       0.968  -3.834   2.048  0.00  0.00    -0.211 NA
ATOM      6  C   UNL     1       1.461  -3.417   3.206  0.00  0.00    +0.162 A 
ATOM      7  N   UNL     1       1.907  -2.178   3.366  0.00  0.00    -0.232 NA
ENDROOT
BRANCH   6   8
ATOM      8  C   UNL     1       1.515  -4.358   4.350  0.00  0.00    +0.019 A 
ATOM      9  C   UNL     1       2.034  -3.942   5.575  0.00  0.00    +0.011 A 
ATOM     10  C   UNL     1       2.076  -4.821   6.638  0.00  0.00    +0.001 A 
ATOM     11  C   UNL     1       1.615  -6.116   6.487  0.00  0.00    +0.000 A 
ATOM     12  C   UNL     1       1.104  -6.537   5.272  0.00  0.00    +0.001 A 
ATOM     13  C   UNL     1       1.052  -5.665   4.204  0.00  0.00    +0.011 A 
ENDBRANCH   6   8
BRANCH   4  14
ATOM     14  N   UNL     1       0.391  -3.452  -0.205  0.00  0.00    -0.221 N 
ATOM     15  H   UNL     1       0.349  -2.848  -0.962  0.00  0.00    +0.176 HD
BRANCH  14  16
ATOM     16  N   UNL     1      -0.070  -4.769  -0.333  0.00  0.00    -0.189 NA
ATOM     17  C   UNL     1      -0.553  -5.180  -1.466  0.00  0.00    +0.138 C 
BRANCH  17  18
ATOM     18  C   UNL     1      -1.038  -6.566  -1.601  0.00  0.00    -0.005 A 
ATOM     19  C   UNL     1      -0.973  -7.441  -0.513  0.00  0.00    +0.013 A 
ATOM     20  C   UNL     1      -1.431  -8.734  -0.642  0.00  0.00    +0.046 A 
ATOM     21  C   UNL     1      -1.948  -9.171  -1.855  0.00  0.00    +0.117 A 
ATOM     22  C   UNL     1      -2.010  -8.307  -2.941  0.00  0.00    +0.046 A 
ATOM     23  C   UNL     1      -1.558  -7.011  -2.819  0.00  0.00    +0.013 A 
BRANCH  21  24
ATOM     24  O   UNL     1      -2.395 -10.448  -1.980  0.00  0.00    -0.507 OA
ATOM     25  H   UNL     1      -1.717 -11.075  -2.267  0.00  0.00    +0.292 HD
ENDBRANCH  21  24
ENDBRANCH  17  18
ENDBRANCH  14  16
ENDBRANCH   4  14
BRANCH   3  26
ATOM     26  C   UNL     1       1.317  -0.740  -0.015  0.00  0.00    +0.067 C 
BRANCH  26  27
ATOM     27  C   UNL     1       0.002  -0.004   0.002  0.00  0.00    -0.030 C 
ATOM     28  C   UNL     1      -0.016   1.306   0.009  0.00  0.00    +0.004 C 
ENDBRANCH  26  27
ENDBRANCH   3  26
TORSDOF 7
