REMARK  Name = ZINC20241360
REMARK  14 active torsions:
REMARK  status: ('A' for Active; 'I' for Inactive)
REMARK    1  A    between atoms: C_1  and  C_2
REMARK    2  A    between atoms: C_2  and  N_3
REMARK    3  A    between atoms: N_3  and  C_4
REMARK    4  A    between atoms: N_3  and  C_6
REMARK    5  A    between atoms: C_4  and  C_5
REMARK    6  A    between atoms: C_9  and  C_12
REMARK    7  A    between atoms: C_13  and  C_14
REMARK    8  A    between atoms: N_16  and  C_17
REMARK    9  A    between atoms: C_17  and  C_18
REMARK   10  A    between atoms: C_18  and  N_19
REMARK   11  A    between atoms: C_22  and  N_25
REMARK   12  A    between atoms: N_25  and  C_26
REMARK   13  A    between atoms: N_25  and  C_27
REMARK   14  A    between atoms: C_33  and  C_35
REMARK                            x       y       z     vdW  Elec       q    Type
REMARK                         _______ _______ _______ _____ _____    ______ ____
ROOT
ATOM      1  C   UNL     1      -1.098  -7.056   3.160  0.00  0.00    +0.237 C 
ATOM      2  O   UNL     1      -0.413  -7.711   2.397  0.00  0.00    -0.271 OA
ATOM      3  N   UNL     1      -1.842  -7.674   4.098  0.00  0.00    -0.311 N 
ATOM      4  H   UNL     1      -2.388  -7.151   4.706  0.00  0.00    +0.149 HD
ENDROOT
BRANCH   1   6
ATOM      5  C   UNL     1      -0.368  -4.977   2.120  0.00  0.00    +0.013 C 
ATOM      6  C   UNL     1      -1.113  -5.595   3.059  0.00  0.00    +0.068 C 
BRANCH   5  10
ATOM      7  C   UNL     1      -0.412  -0.745   1.827  0.00  0.00    +0.013 A 
ATOM      8  C   UNL     1       0.368  -1.487   0.958  0.00  0.00    +0.022 A 
ATOM      9  C   UNL     1       0.388  -2.863   1.047  0.00  0.00    +0.010 A 
ATOM     10  C   UNL     1      -0.383  -3.508   2.019  0.00  0.00    -0.025 A 
ATOM     11  C   UNL     1      -1.169  -2.751   2.894  0.00  0.00    +0.010 A 
ATOM     12  C   UNL     1      -1.174  -1.376   2.795  0.00  0.00    +0.022 A 
BRANCH   7  13
ATOM     13  N   UNL     1      -0.427   0.650   1.730  0.00  0.00    -0.394 NA
ATOM     14  H   UNL     1      -1.040   1.029   2.436  0.00  0.00    +0.126 HD
BRANCH  13  16
ATOM     15  C   UNL     1       1.378   0.890   3.368  0.00  0.00    +0.022 C 
ATOM     16  C   UNL     1       0.932   1.169   1.931  0.00  0.00    +0.081 C 
ENDBRANCH  13  16
BRANCH  13  17
ATOM     17  C   UNL     1      -0.910   1.043   0.400  0.00  0.00    +0.081 C 
ATOM     18  C   UNL     1      -2.373   0.622   0.243  0.00  0.00    +0.022 C 
ENDBRANCH  13  17
ENDBRANCH   7  13
ENDBRANCH   5  10
ENDBRANCH   1   6
BRANCH   3  19
ATOM     19  C   UNL     1      -1.827  -9.135   4.199  0.00  0.00    +0.120 C 
BRANCH  19  20
ATOM     20  C   UNL     1      -2.751  -9.578   5.336  0.00  0.00    +0.103 C 
BRANCH  20  21
ATOM     21  N   UNL     1      -2.736 -11.043   5.437  0.00  0.00    -0.301 NA
ATOM     22  C   UNL     1      -1.412 -11.529   5.846  0.00  0.00    +0.083 C 
ATOM     23  C   UNL     1      -1.391 -13.058   5.801  0.00  0.00    +0.000 C 
ATOM     24  C   UNL     1      -2.469 -13.606   6.740  0.00  0.00    -0.066 C 
ATOM     25  C   UNL     1      -3.832 -13.047   6.321  0.00  0.00    +0.000 C 
ATOM     26  C   UNL     1      -3.781 -11.518   6.352  0.00  0.00    +0.083 C 
BRANCH  24  27
ATOM     27  N   UNL     1      -2.494 -15.073   6.656  0.00  0.00    +0.382 N 
ATOM     28  C   UNL     1      -3.589 -15.592   7.485  0.00  0.00    -0.095 C 
ATOM     29  H   UNL     1      -2.636 -15.353   5.697  0.00  0.00    -0.081 HD
BRANCH  27  30
ATOM     30  C   UNL     1      -1.216 -15.612   7.139  0.00  0.00    -0.066 C 
ATOM     31  C   UNL     1      -1.038 -15.257   8.616  0.00  0.00    -0.015 C 
ATOM     32  C   UNL     1       0.293 -15.819   9.119  0.00  0.00    -0.002 C 
ATOM     33  C   UNL     1       0.299 -17.341   8.956  0.00  0.00    +0.000 C 
ATOM     34  C   UNL     1       0.121 -17.695   7.478  0.00  0.00    +0.002 C 
ATOM     35  C   UNL     1      -1.210 -17.134   6.975  0.00  0.00    -0.028 C 
ATOM     36  C   UNL     1      -1.388 -17.489   5.498  0.00  0.00    +0.006 C 
ENDBRANCH  27  30
ENDBRANCH  24  27
ENDBRANCH  20  21
ENDBRANCH  19  20
ENDBRANCH   3  19
TORSDOF 10
