REMARK  Name = ZINC39971988
REMARK  9 active torsions:
REMARK  status: ('A' for Active; 'I' for Inactive)
REMARK    1  A    between atoms: C_1  and  C_2
REMARK    2  A    between atoms: C_2  and  C_3
REMARK    3  A    between atoms: C_2  and  C_4
REMARK    4  A    between atoms: C_2  and  C_5
REMARK    5  A    between atoms: C_8  and  S_11
REMARK    6  A    between atoms: S_11  and  N_14
REMARK    7  A    between atoms: N_17  and  C_20
REMARK    8  A    between atoms: C_20  and  C_21
REMARK    9  A    between atoms: C_21  and  N_23
REMARK                            x       y       z     vdW  Elec       q    Type
REMARK                         _______ _______ _______ _____ _____    ______ ____
ROOT
ATOM      1  N   UNL     1       2.580  -0.816  -6.143  0.00  0.00    -0.174 NA
ATOM      2  C   UNL     1       1.415  -0.899  -7.038  0.00  0.00    +0.125 C 
ATOM      3  C   UNL     1       0.701   0.456  -7.033  0.00  0.00    +0.102 C 
ATOM      4  N   UNL     1       1.664   1.515  -7.364  0.00  0.00    -0.291 NA
ATOM      5  C   UNL     1       2.722   1.609  -6.349  0.00  0.00    +0.102 C 
ATOM      6  C   UNL     1       3.516   0.304  -6.321  0.00  0.00    +0.125 C 
ENDROOT
BRANCH   1   7
ATOM      7  S   UNL     1       2.826  -1.950  -4.962  0.00  0.00    +0.061 S 
ATOM      8  O   UNL     1       4.217  -1.937  -4.669  0.00  0.00    -0.153 OA
ATOM      9  O   UNL     1       2.148  -3.127  -5.380  0.00  0.00    -0.153 OA
BRANCH   7  13
ATOM     10  C   UNL     1       0.707  -0.490  -1.238  0.00  0.00    -0.042 A 
ATOM     11  C   UNL     1       0.036  -1.284  -2.148  0.00  0.00    +0.006 A 
ATOM     12  C   UNL     1       0.683  -1.730  -3.286  0.00  0.00    +0.029 A 
ATOM     13  C   UNL     1       2.001  -1.381  -3.513  0.00  0.00    +0.105 A 
ATOM     14  C   UNL     1       2.672  -0.586  -2.603  0.00  0.00    +0.029 A 
ATOM     15  C   UNL     1       2.024  -0.137  -1.467  0.00  0.00    +0.006 A 
BRANCH  10  17
ATOM     16  C   UNL     1      -0.019   1.526   0.010  0.00  0.00    +0.015 C 
ATOM     17  C   UNL     1       0.002  -0.004   0.002  0.00  0.00    -0.013 C 
ATOM     18  C   UNL     1       0.742  -0.511   1.242  0.00  0.00    +0.015 C 
ATOM     19  C   UNL     1      -1.433  -0.534   0.013  0.00  0.00    +0.015 C 
ENDBRANCH  10  17
ENDBRANCH   7  13
ENDBRANCH   1   7
BRANCH   4  20
ATOM     20  C   UNL     1       0.986   2.807  -7.539  0.00  0.00    +0.182 C 
BRANCH  20  21
ATOM     21  C   UNL     1       1.955   3.809  -8.112  0.00  0.00    +0.252 C 
ATOM     22  O   UNL     1       3.101   3.478  -8.351  0.00  0.00    -0.272 OA
BRANCH  21  23
ATOM     23  N   UNL     1       1.558   5.053  -8.355  0.00  0.00    -0.155 NA
ATOM     24  C   UNL     1       2.414   5.938  -8.861  0.00  0.00    +0.164 A 
ATOM     25  N   UNL     1       2.183   7.241  -9.164  0.00  0.00    -0.335 N 
ATOM     26  C   UNL     1       3.200   8.016  -9.686  0.00  0.00    +0.055 A 
ATOM     27  C   UNL     1       3.180   9.366 -10.065  0.00  0.00    +0.027 A 
ATOM     28  C   UNL     1       4.308   9.968 -10.571  0.00  0.00    +0.002 A 
ATOM     29  C   UNL     1       5.491   9.264 -10.722  0.00  0.00    +0.001 A 
ATOM     30  C   UNL     1       5.538   7.930 -10.355  0.00  0.00    +0.017 A 
ATOM     31  C   UNL     1       4.411   7.327  -9.849  0.00  0.00    +0.039 A 
ATOM     32  S   UNL     1       4.028   5.697  -9.264  0.00  0.00    -0.052 S 
ATOM     33  H   UNL     1       1.306   7.626  -9.014  0.00  0.00    +0.168 HD
ENDBRANCH  21  23
ENDBRANCH  20  21
ENDBRANCH   4  20
TORSDOF 6
