REMARK  Name = ZINC66663705
REMARK  9 active torsions:
REMARK  status: ('A' for Active; 'I' for Inactive)
REMARK    1  A    between atoms: C_1  and  C_2
REMARK    2  A    between atoms: C_2  and  C_3
REMARK    3  A    between atoms: C_3  and  C_4
REMARK    4  A    between atoms: C_4  and  C_5
REMARK    5  A    between atoms: C_5  and  C_7
REMARK    6  A    between atoms: C_5  and  N_26
REMARK    7  A    between atoms: N_9  and  C_10
REMARK    8  A    between atoms: N_14  and  C_15
REMARK    9  A    between atoms: C_15  and  C_16
REMARK                            x       y       z     vdW  Elec       q    Type
REMARK                         _______ _______ _______ _____ _____    ______ ____
ROOT
ATOM      1  C   UNL     1       1.369  -4.024  -2.595  0.00  0.00    +0.239 C 
ATOM      2  O   UNL     1       2.312  -4.702  -2.247  0.00  0.00    -0.273 OA
ATOM      3  N   UNL     1       0.243  -4.613  -3.045  0.00  0.00    -0.269 N 
ATOM      4  H   UNL     1      -0.511  -4.071  -3.323  0.00  0.00    +0.156 HD
ENDROOT
BRANCH   3   5
ATOM      5  C   UNL     1       0.163  -6.004  -3.110  0.00  0.00    +0.124 A 
ATOM      6  C   UNL     1       1.137  -6.884  -2.749  0.00  0.00    +0.065 A 
ATOM      7  C   UNL     1       0.651  -8.175  -2.970  0.00  0.00    +0.136 A 
ATOM      8  N   UNL     1      -0.565  -8.081  -3.445  0.00  0.00    -0.178 NA
ATOM      9  N   UNL     1      -0.899  -6.724  -3.538  0.00  0.00    -0.246 N 
BRANCH   9  10
ATOM     10  C   UNL     1      -2.172  -6.181  -4.018  0.00  0.00    +0.181 C 
BRANCH  10  11
ATOM     11  C   UNL     1      -2.096  -5.962  -5.507  0.00  0.00    -0.018 A 
ATOM     12  C   UNL     1      -1.755  -4.741  -6.003  0.00  0.00    +0.006 A 
ATOM     13  C   UNL     1      -1.680  -4.520  -7.377  0.00  0.00    +0.001 A 
ATOM     14  C   UNL     1      -1.944  -5.519  -8.263  0.00  0.00    +0.008 A 
ATOM     15  C   UNL     1      -2.299  -6.793  -7.788  0.00  0.00    -0.018 A 
ATOM     16  C   UNL     1      -2.370  -7.020  -6.391  0.00  0.00    -0.013 A 
ATOM     17  C   UNL     1      -2.719  -8.296  -5.917  0.00  0.00    +0.009 A 
ATOM     18  C   UNL     1      -2.978  -9.296  -6.803  0.00  0.00    +0.001 A 
ATOM     19  C   UNL     1      -2.902  -9.075  -8.177  0.00  0.00    +0.001 A 
ATOM     20  C   UNL     1      -2.580  -7.849  -8.673  0.00  0.00    +0.008 A 
ENDBRANCH  10  11
ENDBRANCH   9  10
ENDBRANCH   3   5
BRANCH   1  21
ATOM     21  C   UNL     1       1.455  -2.521  -2.524  0.00  0.00    +0.161 C 
BRANCH  21  22
ATOM     22  N   UNL     1       2.862  -2.114  -2.477  0.00  0.00    -0.288 N 
ATOM     23  C   UNL     1       3.651  -2.534  -1.468  0.00  0.00    +0.298 C 
ATOM     24  O   UNL     1       3.195  -3.249  -0.597  0.00  0.00    -0.253 OA
ATOM     25  N   UNL     1       4.945  -2.160  -1.424  0.00  0.00    -0.313 N 
ATOM     26  H   UNL     1       3.225  -1.543  -3.171  0.00  0.00    +0.151 HD
ATOM     27  H   UNL     1       5.309  -1.589  -2.119  0.00  0.00    +0.146 HD
ATOM     28  H   UNL     1       5.513  -2.462  -0.698  0.00  0.00    +0.146 HD
ENDBRANCH  21  22
BRANCH  21  29
ATOM     29  C   UNL     1       0.739  -2.027  -1.265  0.00  0.00    +0.032 C 
BRANCH  29  30
ATOM     30  C   UNL     1       0.718  -0.497  -1.257  0.00  0.00    +0.002 C 
BRANCH  30  32
ATOM     31  C   UNL     1      -0.019   1.526   0.010  0.00  0.00    +0.004 C 
ATOM     32  C   UNL     1       0.002  -0.004   0.002  0.00  0.00    -0.003 C 
ENDBRANCH  30  32
ENDBRANCH  29  30
ENDBRANCH  21  29
ENDBRANCH   1  21
TORSDOF 8
