REMARK  Name = ZINC36588622
REMARK  16 active torsions:
REMARK  status: ('A' for Active; 'I' for Inactive)
REMARK    1  A    between atoms: C_1  and  C_2
REMARK    2  A    between atoms: C_2  and  C_3
REMARK    3  A    between atoms: C_3  and  C_4
REMARK    4  A    between atoms: C_4  and  N_5
REMARK    5  A    between atoms: C_6  and  C_8
REMARK    6  A    between atoms: C_8  and  C_10
REMARK    7  A    between atoms: C_8  and  N_17
REMARK    8  A    between atoms: C_13  and  O_16
REMARK    9  A    between atoms: N_17  and  C_34
REMARK   10  A    between atoms: C_18  and  C_20
REMARK   11  A    between atoms: C_20  and  C_21
REMARK   12  A    between atoms: C_20  and  C_27
REMARK   13  A    between atoms: C_20  and  O_33
REMARK   14  A    between atoms: C_34  and  C_35
REMARK   15  A    between atoms: C_34  and  C_36
REMARK   16  A    between atoms: C_34  and  C_37
REMARK                            x       y       z     vdW  Elec       q    Type
REMARK                         _______ _______ _______ _____ _____    ______ ____
ROOT
ATOM      1  N   UNL     1       1.516  -5.851   3.723  0.00  0.00    -0.278 N 
ATOM      2  C   UNL     1       1.060  -4.755   4.361  0.00  0.00    +0.258 C 
ATOM      3  O   UNL     1       0.697  -3.789   3.724  0.00  0.00    -0.272 OA
ENDROOT
BRANCH   1   4
ATOM      4  C   UNL     1       2.582  -6.657   4.322  0.00  0.00    +0.030 C 
ATOM      5  C   UNL     1       3.789  -5.766   4.622  0.00  0.00    +0.031 C 
ATOM      6  C   UNL     1       2.076  -7.285   5.622  0.00  0.00    +0.031 C 
ATOM      7  C   UNL     1       2.993  -7.763   3.348  0.00  0.00    +0.031 C 
ENDBRANCH   1   4
BRANCH   1   8
ATOM      8  C   UNL     1       0.946  -6.235   2.429  0.00  0.00    +0.193 C 
BRANCH   8   9
ATOM      9  C   UNL     1      -0.558  -6.175   2.505  0.00  0.00    -0.018 A 
ATOM     10  C   UNL     1      -1.171  -5.588   3.596  0.00  0.00    +0.009 A 
ATOM     11  C   UNL     1      -2.550  -5.533   3.668  0.00  0.00    +0.046 A 
ATOM     12  C   UNL     1      -3.319  -6.067   2.645  0.00  0.00    +0.117 A 
ATOM     13  C   UNL     1      -2.701  -6.655   1.551  0.00  0.00    +0.046 A 
ATOM     14  C   UNL     1      -1.322  -6.703   1.481  0.00  0.00    +0.009 A 
BRANCH  12  15
ATOM     15  O   UNL     1      -4.675  -6.014   2.714  0.00  0.00    -0.507 OA
ATOM     16  H   UNL     1      -5.058  -5.219   2.320  0.00  0.00    +0.292 HD
ENDBRANCH  12  15
ENDBRANCH   8   9
BRANCH   8  18
ATOM     17  N   UNL     1       1.107  -5.497   0.073  0.00  0.00    -0.313 N 
ATOM     18  C   UNL     1       1.433  -5.286   1.364  0.00  0.00    +0.238 C 
ATOM     19  O   UNL     1       2.118  -4.332   1.668  0.00  0.00    -0.273 OA
ATOM     20  H   UNL     1       0.560  -6.260  -0.170  0.00  0.00    +0.149 HD
BRANCH  17  21
ATOM     21  C   UNL     1       1.581  -4.575  -0.962  0.00  0.00    +0.104 C 
BRANCH  21  22
ATOM     22  C   UNL     1       1.074  -5.039  -2.329  0.00  0.00    +0.018 C 
BRANCH  22  24
ATOM     23  C   UNL     1       1.062  -4.541  -4.777  0.00  0.00    +0.004 C 
ATOM     24  C   UNL     1       1.569  -4.076  -3.410  0.00  0.00    -0.002 C 
ENDBRANCH  22  24
ENDBRANCH  21  22
ENDBRANCH  17  21
ENDBRANCH   8  18
ENDBRANCH   1   8
BRANCH   2  25
ATOM     25  C   UNL     1       1.000  -4.731   5.867  0.00  0.00    +0.192 C 
BRANCH  25  26
ATOM     26  C   UNL     1       2.376  -4.462   6.420  0.00  0.00    -0.003 A 
ATOM     27  C   UNL     1       3.164  -3.473   5.862  0.00  0.00    +0.007 A 
ATOM     28  C   UNL     1       4.426  -3.226   6.369  0.00  0.00    +0.000 A 
ATOM     29  C   UNL     1       4.899  -3.968   7.435  0.00  0.00    +0.000 A 
ATOM     30  C   UNL     1       4.111  -4.956   7.994  0.00  0.00    +0.000 A 
ATOM     31  C   UNL     1       2.847  -5.200   7.490  0.00  0.00    +0.007 A 
ENDBRANCH  25  26
BRANCH  25  32
ATOM     32  C   UNL     1       0.057  -3.644   6.315  0.00  0.00    -0.003 A 
ATOM     33  C   UNL     1       0.099  -2.401   5.712  0.00  0.00    +0.007 A 
ATOM     34  C   UNL     1      -0.766  -1.404   6.122  0.00  0.00    +0.000 A 
ATOM     35  C   UNL     1      -1.673  -1.650   7.136  0.00  0.00    +0.000 A 
ATOM     36  C   UNL     1      -1.716  -2.893   7.739  0.00  0.00    +0.000 A 
ATOM     37  C   UNL     1      -0.854  -3.892   7.325  0.00  0.00    +0.007 A 
ENDBRANCH  25  32
BRANCH  25  38
ATOM     38  O   UNL     1       0.533  -5.994   6.346  0.00  0.00    -0.371 OA
ATOM     39  H   UNL     1      -0.321  -6.262   5.979  0.00  0.00    +0.212 HD
ENDBRANCH  25  38
ENDBRANCH   2  25
TORSDOF 12
