REMARK  Name = ZINC66930963
REMARK  4 active torsions:
REMARK  status: ('A' for Active; 'I' for Inactive)
REMARK    1  A    between atoms: C_10  and  C_11
REMARK    2  A    between atoms: C_10  and  O_26
REMARK    3  A    between atoms: C_11  and  N_12
REMARK    4  A    between atoms: C_13  and  C_15
REMARK                            x       y       z     vdW  Elec       q    Type
REMARK                         _______ _______ _______ _____ _____    ______ ____
ROOT
ATOM      1  N   UNL     1       5.979  -0.599  -0.997  0.00  0.00    -0.308 N 
ATOM      2  C   UNL     1       6.997  -0.065  -1.700  0.00  0.00    +0.251 C 
ATOM      3  O   UNL     1       6.830   0.966  -2.327  0.00  0.00    -0.270 OA
ATOM      4  H   UNL     1       6.112  -1.420  -0.498  0.00  0.00    +0.149 HD
ENDROOT
BRANCH   2   5
ATOM      5  C   UNL     1       8.264  -0.702  -1.709  0.00  0.00    +0.078 A 
ATOM      6  C   UNL     1       9.423  -0.316  -2.355  0.00  0.00    +0.049 A 
ATOM      7  C   UNL     1      10.562  -1.095  -2.228  0.00  0.00    +0.082 A 
ATOM      8  C   UNL     1      10.454  -2.243  -1.436  0.00  0.00    +0.128 A 
ATOM      9  S   UNL     1       8.766  -2.203  -0.884  0.00  0.00    -0.063 S 
ATOM     10  N   UNL     1      11.620  -2.873  -1.417  0.00  0.00    -0.214 NA
ATOM     11  C   UNL     1      12.480  -2.210  -2.143  0.00  0.00    +0.179 A 
ATOM     12  N   UNL     1      11.908  -1.092  -2.684  0.00  0.00    -0.293 N 
ATOM     13  C   UNL     1      12.708  -0.299  -3.476  0.00  0.00    +0.101 A 
ATOM     14  C   UNL     1      13.982  -0.621  -3.696  0.00  0.00    +0.067 A 
ATOM     15  S   UNL     1      14.147  -2.133  -2.759  0.00  0.00    -0.058 S 
ENDBRANCH   2   5
BRANCH   1  16
ATOM     16  C   UNL     1       4.671   0.060  -0.987  0.00  0.00    +0.144 C 
BRANCH  16  26
ATOM     17  C   UNL     1      -0.053   1.307  -0.078  0.00  0.00    +0.000 A 
ATOM     18  C   UNL     1       1.126   2.029  -0.072  0.00  0.00    +0.000 A 
ATOM     19  C   UNL     1       2.335   1.366  -0.059  0.00  0.00    +0.007 A 
ATOM     20  C   UNL     1       2.379  -0.023  -0.054  0.00  0.00    -0.011 A 
ATOM     21  C   UNL     1       1.205  -0.742  -0.064  0.00  0.00    -0.041 A 
ATOM     22  C   UNL     1      -0.012  -0.072  -0.073  0.00  0.00    +0.004 A 
ATOM     23  C   UNL     1       1.177  -2.248  -0.075  0.00  0.00    +0.035 C 
ATOM     24  C   UNL     1       2.525  -2.814   0.365  0.00  0.00    +0.008 C 
ATOM     25  C   UNL     1       3.626  -2.143  -0.465  0.00  0.00    +0.041 C 
ATOM     26  C   UNL     1       3.733  -0.682  -0.032  0.00  0.00    +0.107 C 
BRANCH  26  27
ATOM     27  O   UNL     1       4.266  -0.621   1.292  0.00  0.00    -0.382 OA
ATOM     28  H   UNL     1       4.379   0.278   1.630  0.00  0.00    +0.211 HD
ENDBRANCH  26  27
ENDBRANCH  16  26
ENDBRANCH   1  16
TORSDOF 4
