REMARK  Name = ZINC39303664
REMARK  12 active torsions:
REMARK  status: ('A' for Active; 'I' for Inactive)
REMARK    1  A    between atoms: C_1  and  C_2
REMARK    2  A    between atoms: C_2  and  C_3
REMARK    3  A    between atoms: C_2  and  C_4
REMARK    4  A    between atoms: C_7  and  O_35
REMARK    5  A    between atoms: C_8  and  C_10
REMARK    6  A    between atoms: C_10  and  N_11
REMARK    7  A    between atoms: C_16  and  C_18
REMARK    8  A    between atoms: N_20  and  C_21
REMARK    9  A    between atoms: C_21  and  C_22
REMARK   10  A    between atoms: C_22  and  C_23
REMARK   11  A    between atoms: C_23  and  N_24
REMARK   12  A    between atoms: O_35  and  C_36
REMARK                            x       y       z     vdW  Elec       q    Type
REMARK                         _______ _______ _______ _____ _____    ______ ____
ROOT
ATOM      1  N   UNL     1       0.354  -3.760   4.473  0.00  0.00    +0.390 N 
ATOM      2  C   UNL     1       1.747  -3.985   4.876  0.00  0.00    -0.077 C 
ATOM      3  C   UNL     1       2.332  -5.150   4.075  0.00  0.00    -0.019 C 
ATOM      4  C   UNL     1       1.511  -6.413   4.348  0.00  0.00    -0.003 C 
ATOM      5  C   UNL     1       0.046  -6.144   3.994  0.00  0.00    -0.006 C 
ATOM      6  C   UNL     1      -0.455  -4.942   4.798  0.00  0.00    +0.020 C 
ATOM      7  H   UNL     1       0.316  -3.591   3.479  0.00  0.00    -0.080 HD
ENDROOT
BRANCH   6   8
ATOM      8  C   UNL     1      -1.897  -4.673   4.454  0.00  0.00    +0.200 C 
ATOM      9  O   UNL     1      -2.173  -3.897   3.563  0.00  0.00    -0.278 OA
ATOM     10  N   UNL     1      -2.880  -5.294   5.135  0.00  0.00    -0.317 N 
ATOM     11  H   UNL     1      -2.659  -5.914   5.847  0.00  0.00    +0.149 HD
BRANCH  10  12
ATOM     12  C   UNL     1      -4.282  -5.033   4.800  0.00  0.00    +0.106 C 
BRANCH  12  13
ATOM     13  C   UNL     1      -5.188  -5.858   5.716  0.00  0.00    +0.040 C 
BRANCH  13  14
ATOM     14  C   UNL     1      -6.652  -5.585   5.366  0.00  0.00    +0.128 C 
BRANCH  14  15
ATOM     15  N   UNL     1      -7.519  -6.376   6.243  0.00  0.00    -0.292 N 
ATOM     16  C   UNL     1      -7.977  -7.666   5.989  0.00  0.00    +0.070 A 
ATOM     17  C   UNL     1      -7.793  -8.551   4.937  0.00  0.00    +0.028 A 
ATOM     18  C   UNL     1      -8.394  -9.794   4.972  0.00  0.00    +0.002 A 
ATOM     19  C   UNL     1      -9.179 -10.161   6.052  0.00  0.00    +0.002 A 
ATOM     20  C   UNL     1      -9.368  -9.286   7.104  0.00  0.00    +0.028 A 
ATOM     21  C   UNL     1      -8.768  -8.036   7.078  0.00  0.00    +0.067 A 
ATOM     22  N   UNL     1      -8.767  -6.958   7.961  0.00  0.00    -0.306 N 
ATOM     23  H   UNL     1      -9.232  -6.920   8.811  0.00  0.00    +0.170 HD
ATOM     24  C   UNL     1      -8.004  -5.981   7.435  0.00  0.00    +0.328 A 
ATOM     25  O   UNL     1      -7.789  -4.903   7.957  0.00  0.00    -0.247 OA
ENDBRANCH  14  15
ENDBRANCH  13  14
ENDBRANCH  12  13
ENDBRANCH  10  12
ENDBRANCH   6   8
BRANCH   1  26
ATOM     26  C   UNL     1      -0.179  -2.593   5.188  0.00  0.00    -0.038 C 
BRANCH  26  31
ATOM     27  C   UNL     1       0.713   0.570   3.329  0.00  0.00    -0.044 A 
ATOM     28  C   UNL     1       1.907   0.921   3.932  0.00  0.00    +0.007 A 
ATOM     29  C   UNL     1       2.429   0.136   4.942  0.00  0.00    +0.046 A 
ATOM     30  C   UNL     1       1.754  -1.004   5.351  0.00  0.00    +0.121 A 
ATOM     31  C   UNL     1       0.556  -1.354   4.746  0.00  0.00    -0.022 A 
ATOM     32  C   UNL     1       0.036  -0.563   3.740  0.00  0.00    +0.009 A 
BRANCH  27  34
ATOM     33  C   UNL     1      -0.102   2.841   2.758  0.00  0.00    +0.012 C 
ATOM     34  C   UNL     1       0.146   1.428   2.228  0.00  0.00    +0.013 C 
ATOM     35  C   UNL     1       1.138   1.487   1.065  0.00  0.00    +0.012 C 
ENDBRANCH  27  34
BRANCH  30  36
ATOM     36  O   UNL     1       2.266  -1.778   6.344  0.00  0.00    -0.495 OA
ATOM     37  C   UNL     1       3.504  -1.358   6.922  0.00  0.00    +0.277 C 
ENDBRANCH  30  36
ENDBRANCH  26  31
ENDBRANCH   1  26
TORSDOF 9
