REMARK  Name = ZINC37986026
REMARK  2 active torsions:
REMARK  status: ('A' for Active; 'I' for Inactive)
REMARK    1  A    between atoms: C_8  and  C_11
REMARK    2  A    between atoms: C_11  and  N_12
REMARK                            x       y       z     vdW  Elec       q    Type
REMARK                         _______ _______ _______ _____ _____    ______ ____
ROOT
ATOM      1  C   UNL     1       3.813  -3.240   0.254  0.00  0.00    +0.147 C 
ENDROOT
BRANCH   1   2
ATOM      2  N   UNL     1       5.218  -3.192  -0.157  0.00  0.00    -0.324 N 
ATOM      3  C   UNL     1       6.126  -4.110   0.361  0.00  0.00    +0.137 A 
ATOM      4  C   UNL     1       7.461  -4.055  -0.029  0.00  0.00    +0.082 A 
ATOM      5  C   UNL     1       8.353  -4.974   0.494  0.00  0.00    +0.045 A 
ATOM      6  C   UNL     1       7.879  -5.920   1.394  0.00  0.00    +0.061 A 
ATOM      7  C   UNL     1       6.541  -5.916   1.737  0.00  0.00    +0.133 A 
ATOM      8  N   UNL     1       5.714  -5.023   1.226  0.00  0.00    -0.238 NA
ATOM      9 CL   UNL     1       8.956  -7.096   2.080  0.00  0.00    -0.082 Cl
ATOM     10 CL   UNL     1       7.999  -2.851  -1.159  0.00  0.00    -0.080 Cl
ATOM     11  H   UNL     1       5.515  -2.521  -0.791  0.00  0.00    +0.148 HD
ENDBRANCH   1   2
BRANCH   1  19
ATOM     12  C   UNL     1      -0.017   1.379   0.010  0.00  0.00    +0.000 A 
ATOM     13  C   UNL     1       1.174   2.082   0.002  0.00  0.00    +0.004 A 
ATOM     14  C   UNL     1       2.379   1.411  -0.009  0.00  0.00    +0.046 A 
ATOM     15  C   UNL     1       2.407   0.019  -0.013  0.00  0.00    +0.124 A 
ATOM     16  C   UNL     1       1.204  -0.676  -0.013  0.00  0.00    -0.002 A 
ATOM     17  C   UNL     1       0.002  -0.004   0.002  0.00  0.00    +0.007 A 
ATOM     18  C   UNL     1       1.545  -2.154  -0.043  0.00  0.00    +0.085 C 
ATOM     19  C   UNL     1       3.035  -2.130  -0.457  0.00  0.00    +0.195 C 
ATOM     20  O   UNL     1       3.469  -0.834  -0.012  0.00  0.00    -0.487 OA
ENDBRANCH   1  19
TORSDOF 2
