REMARK  Name = ZINC20756886
REMARK  5 active torsions:
REMARK  status: ('A' for Active; 'I' for Inactive)
REMARK    1  A    between atoms: C_3  and  N_31
REMARK    2  A    between atoms: C_6  and  C_7
REMARK    3  A    between atoms: C_18  and  O_23
REMARK    4  A    between atoms: O_23  and  C_24
REMARK    5  A    between atoms: C_24  and  C_25
REMARK                            x       y       z     vdW  Elec       q    Type
REMARK                         _______ _______ _______ _____ _____    ______ ____
ROOT
ATOM      1  C   UNL     1       3.628   0.885   0.309  0.00  0.00    +0.105 C 
ATOM      2  C   UNL     1       2.175   0.665   0.690  0.00  0.00    +0.029 C 
ATOM      3  C   UNL     1       1.447  -0.508   0.020  0.00  0.00    +0.033 C 
ATOM      4  C   UNL     1       0.002  -0.004   0.002  0.00  0.00    -0.030 C 
ATOM      5  C   UNL     1      -0.016   1.323   0.009  0.00  0.00    -0.023 C 
ATOM      6  C   UNL     1       1.385   1.817  -0.001  0.00  0.00    +0.049 C 
ATOM      7  C   UNL     1       1.772   3.088   0.649  0.00  0.00    -0.016 A 
ATOM      8  C   UNL     1       0.886   4.130   0.819  0.00  0.00    +0.051 A 
ATOM      9  C   UNL     1       1.307   5.316   1.401  0.00  0.00    +0.121 A 
ATOM     10  C   UNL     1       2.624   5.455   1.813  0.00  0.00    +0.047 A 
ATOM     11  C   UNL     1       3.512   4.411   1.652  0.00  0.00    +0.027 A 
ATOM     12  C   UNL     1       3.097   3.217   1.077  0.00  0.00    +0.032 A 
ATOM     13  N   UNL     1       4.016   2.165   0.941  0.00  0.00    -0.336 N 
ATOM     14  H   UNL     1       5.041   2.305   1.315  0.00  0.00    +0.147 HD
ENDROOT
BRANCH   1  20
ATOM     15  C   UNL     1       4.879  -0.236   2.164  0.00  0.00    +0.008 A 
ATOM     16  C   UNL     1       5.657  -1.269   2.653  0.00  0.00    +0.033 A 
ATOM     17  C   UNL     1       6.047  -2.297   1.815  0.00  0.00    +0.126 A 
ATOM     18  C   UNL     1       5.654  -2.295   0.489  0.00  0.00    +0.033 A 
ATOM     19  C   UNL     1       4.871  -1.266   0.002  0.00  0.00    +0.008 A 
ATOM     20  C   UNL     1       4.481  -0.237   0.840  0.00  0.00    -0.027 A 
BRANCH  17  21
ATOM     21  N   UNL     1       6.884  -3.401   2.337  0.00  0.00    +0.056 N 
ATOM     22  O   UNL     1       7.227  -4.306   1.598  0.00  0.00    -0.126 OA
ATOM     23  O   UNL     1       7.231  -3.402   3.504  0.00  0.00    -0.126 OA
ENDBRANCH  17  21
ENDBRANCH   1  20
BRANCH   9  24
ATOM     24  O   UNL     1       0.429   6.342   1.568  0.00  0.00    -0.489 OA
BRANCH  24  25
ATOM     25  C   UNL     1       0.933   7.534   2.174  0.00  0.00    +0.260 C 
BRANCH  25  26
ATOM     26  C   UNL     1      -0.191   8.568   2.277  0.00  0.00    +0.156 C 
ATOM     27  C   UNL     1       0.310   9.812   3.034  0.00  0.00    +0.037 C 
ATOM     28  C   UNL     1       0.108  10.974   2.031  0.00  0.00    +0.031 C 
ATOM     29  C   UNL     1      -0.953  10.388   1.065  0.00  0.00    +0.160 C 
ATOM     30  O   UNL     1      -0.585   8.994   0.962  0.00  0.00    -0.373 OA
ENDBRANCH  25  26
ENDBRANCH  24  25
ENDBRANCH   9  24
TORSDOF 5
