REMARK  Name = ZINC00535010
REMARK  8 active torsions:
REMARK  status: ('A' for Active; 'I' for Inactive)
REMARK    1  A    between atoms: C_1  and  C_2
REMARK    2  A    between atoms: C_2  and  C_3
REMARK    3  A    between atoms: C_3  and  C_5
REMARK    4  A    between atoms: C_3  and  N_6
REMARK    5  A    between atoms: C_14  and  S_16
REMARK    6  A    between atoms: S_16  and  C_17
REMARK    7  A    between atoms: C_20  and  C_22
REMARK    8  A    between atoms: C_20  and  C_23
REMARK                            x       y       z     vdW  Elec       q    Type
REMARK                         _______ _______ _______ _____ _____    ______ ____
ROOT
ATOM      1  N   UNL     1       3.135  -2.957  -0.784  0.00  0.00    -0.326 N 
ATOM      2  C   UNL     1       1.823  -3.247  -0.457  0.00  0.00    +0.132 A 
ATOM      3  C   UNL     1       0.810  -2.244  -0.431  0.00  0.00    +0.051 A 
ATOM      4  C   UNL     1       0.967  -0.831  -0.726  0.00  0.00    -0.020 A 
ATOM      5  C   UNL     1      -0.144  -0.062  -0.636  0.00  0.00    +0.021 A 
ATOM      6  S   UNL     1      -1.442  -1.172  -0.161  0.00  0.00    -0.071 S 
ATOM      7  C   UNL     1      -0.499  -2.662  -0.082  0.00  0.00    +0.115 A 
ATOM      8  N   UNL     1      -0.809  -3.909   0.212  0.00  0.00    -0.215 NA
ATOM      9  C   UNL     1       0.184  -4.801   0.171  0.00  0.00    +0.191 A 
ATOM     10  N   UNL     1       1.430  -4.480  -0.147  0.00  0.00    -0.206 NA
ATOM     11  C   UNL     1      -0.225   1.410  -0.890  0.00  0.00    +0.203 C 
ATOM     12  O   UNL     1       1.115   1.927  -0.934  0.00  0.00    -0.368 OA
ATOM     13  C   UNL     1       1.991   1.167  -1.771  0.00  0.00    +0.068 C 
ATOM     14  C   UNL     1       2.294  -0.187  -1.122  0.00  0.00    +0.071 C 
ATOM     15  C   UNL     1       3.297   1.938  -1.970  0.00  0.00    +0.041 C 
ATOM     16  C   UNL     1       1.323   0.941  -3.128  0.00  0.00    +0.041 C 
ATOM     17  H   UNL     1       3.406  -2.037  -0.926  0.00  0.00    +0.148 HD
ENDROOT
BRANCH   1  18
ATOM     18  C   UNL     1       4.114  -4.039  -0.915  0.00  0.00    +0.068 C 
ATOM     19  C   UNL     1       4.686  -4.379   0.462  0.00  0.00    +0.028 C 
BRANCH  18  21
ATOM     20  C   UNL     1       4.694  -3.372  -3.252  0.00  0.00    +0.005 C 
ATOM     21  C   UNL     1       5.246  -3.592  -1.842  0.00  0.00    +0.018 C 
ENDBRANCH  18  21
ENDBRANCH   1  18
BRANCH   9  22
ATOM     22  S   UNL     1      -0.179  -6.481   0.557  0.00  0.00    -0.089 S 
ATOM     23  C   UNL     1      -1.951  -6.349   0.901  0.00  0.00    +0.093 C 
ENDBRANCH   9  22
TORSDOF 3
