REMARK  Name = ZINC48524512
REMARK  5 active torsions:
REMARK  status: ('A' for Active; 'I' for Inactive)
REMARK    1  A    between atoms: C_1  and  O_2
REMARK    2  A    between atoms: O_2  and  C_3
REMARK    3  A    between atoms: C_10  and  N_12
REMARK    4  A    between atoms: C_13  and  C_14
REMARK    5  A    between atoms: C_19  and  O_20
REMARK                            x       y       z     vdW  Elec       q    Type
REMARK                         _______ _______ _______ _____ _____    ______ ____
ROOT
ATOM      1  C   UNL     1      -1.200  -0.637   0.010  0.00  0.00    +0.146 A 
ATOM      2  C   UNL     1      -2.360   0.102   0.019  0.00  0.00    +0.048 A 
ATOM      3  C   UNL     1      -3.606  -0.507   0.028  0.00  0.00    +0.005 A 
ATOM      4  C   UNL     1      -3.688  -1.887   0.026  0.00  0.00    +0.017 A 
ATOM      5  C   UNL     1      -2.537  -2.637   0.017  0.00  0.00    +0.045 A 
ATOM      6  C   UNL     1      -1.248  -2.056   0.003  0.00  0.00    +0.122 A 
ATOM      7  N   UNL     1      -0.216  -2.923  -0.011  0.00  0.00    -0.217 NA
ATOM      8  C   UNL     1      -0.390  -4.229  -0.016  0.00  0.00    +0.194 A 
ATOM      9  S   UNL     1      -2.171  -4.375   0.012  0.00  0.00    -0.048 S 
ENDROOT
BRANCH   1  11
ATOM     10  C   UNL     1      -0.017   1.425   0.010  0.00  0.00    +0.277 C 
ATOM     11  O   UNL     1       0.002  -0.004   0.002  0.00  0.00    -0.493 OA
ENDBRANCH   1  11
BRANCH   8  12
ATOM     12  N   UNL     1       0.546  -5.214  -0.030  0.00  0.00    -0.229 NA
ATOM     13  C   UNL     1       0.176  -6.468  -0.033  0.00  0.00    +0.125 C 
BRANCH  13  14
ATOM     14  C   UNL     1       1.188  -7.532  -0.048  0.00  0.00    +0.036 A 
ATOM     15  C   UNL     1       0.796  -8.876  -0.057  0.00  0.00    +0.028 A 
ATOM     16  C   UNL     1       1.752  -9.869  -0.071  0.00  0.00    +0.019 A 
ATOM     17  C   UNL     1       3.100  -9.543  -0.076  0.00  0.00    +0.019 A 
ATOM     18  C   UNL     1       3.500  -8.221  -0.068  0.00  0.00    +0.047 A 
ATOM     19  C   UNL     1       2.554  -7.208  -0.059  0.00  0.00    +0.125 A 
ATOM     20 BR   UNL     1       1.223 -11.684  -0.083  0.00  0.00    -0.050 Br
BRANCH  19  21
ATOM     21  O   UNL     1       2.946  -5.909  -0.057  0.00  0.00    -0.506 OA
ATOM     22  H   UNL     1       3.069  -5.537   0.828  0.00  0.00    +0.292 HD
ENDBRANCH  19  21
ENDBRANCH  13  14
ENDBRANCH   8  12
TORSDOF 4
