REMARK  Name = ZINC62606590
REMARK  6 active torsions:
REMARK  status: ('A' for Active; 'I' for Inactive)
REMARK    1  A    between atoms: C_1  and  C_2
REMARK    2  A    between atoms: C_4  and  C_26
REMARK    3  A    between atoms: C_5  and  S_9
REMARK    4  A    between atoms: C_6  and  C_8
REMARK    5  A    between atoms: S_9  and  N_12
REMARK    6  A    between atoms: C_18  and  C_20
REMARK                            x       y       z     vdW  Elec       q    Type
REMARK                         _______ _______ _______ _____ _____    ______ ____
ROOT
ATOM      1  N   UNL     1       0.576  -4.801   0.689  0.00  0.00    -0.159 NA
ATOM      2  C   UNL     1       1.431  -4.848  -0.508  0.00  0.00    +0.129 C 
ATOM      3  C   UNL     1       1.700  -3.412  -0.960  0.00  0.00    +0.121 C 
ATOM      4  N   UNL     1       2.080  -2.577   0.172  0.00  0.00    -0.312 N 
ATOM      5  C   UNL     1       1.794  -2.852   1.445  0.00  0.00    +0.236 C 
ATOM      6  O   UNL     1       2.095  -2.039   2.294  0.00  0.00    -0.274 OA
ATOM      7  C   UNL     1       1.112  -4.117   1.875  0.00  0.00    +0.195 C 
ATOM      8  H   UNL     1       2.577  -1.765  -0.014  0.00  0.00    +0.149 HD
ENDROOT
BRANCH   7   9
ATOM      9  C   UNL     1      -0.015  -3.786   2.820  0.00  0.00    -0.020 A 
ATOM     10  C   UNL     1      -1.016  -2.919   2.425  0.00  0.00    +0.006 A 
ATOM     11  C   UNL     1      -2.049  -2.616   3.292  0.00  0.00    +0.000 A 
ATOM     12  C   UNL     1      -2.081  -3.180   4.553  0.00  0.00    +0.000 A 
ATOM     13  C   UNL     1      -1.081  -4.048   4.948  0.00  0.00    +0.000 A 
ATOM     14  C   UNL     1      -0.050  -4.355   4.079  0.00  0.00    +0.006 A 
ENDBRANCH   7   9
BRANCH   1  15
ATOM     15  S   UNL     1      -0.932  -5.486   0.698  0.00  0.00    +0.062 S 
ATOM     16  O   UNL     1      -1.589  -5.035  -0.479  0.00  0.00    -0.153 OA
ATOM     17  O   UNL     1      -1.467  -5.274   1.997  0.00  0.00    -0.153 OA
BRANCH  15  22
ATOM     18  C   UNL     1      -0.189 -11.442   0.087  0.00  0.00    +0.044 C 
ATOM     19  C   UNL     1      -0.375  -9.954   0.240  0.00  0.00    -0.050 A 
ATOM     20  C   UNL     1      -0.646  -9.175  -0.869  0.00  0.00    +0.008 A 
ATOM     21  C   UNL     1      -0.817  -7.810  -0.729  0.00  0.00    -0.024 A 
ATOM     22  C   UNL     1      -0.716  -7.225   0.520  0.00  0.00    +0.111 A 
ATOM     23  C   UNL     1      -0.446  -8.005   1.629  0.00  0.00    -0.024 A 
ATOM     24  C   UNL     1      -0.279  -9.370   1.489  0.00  0.00    +0.008 A 
ATOM     25  C   UNL     1      -0.335  -7.368   2.990  0.00  0.00    +0.046 C 
ATOM     26  C   UNL     1      -1.112  -6.960  -1.937  0.00  0.00    +0.046 C 
ENDBRANCH  15  22
ENDBRANCH   1  15
TORSDOF 3
