REMARK  Name = ZINC38965825
REMARK  7 active torsions:
REMARK  status: ('A' for Active; 'I' for Inactive)
REMARK    1  A    between atoms: C_1  and  O_2
REMARK    2  A    between atoms: O_2  and  C_3
REMARK    3  A    between atoms: C_8  and  C_9
REMARK    4  A    between atoms: C_9  and  N_10
REMARK    5  A    between atoms: N_10  and  C_11
REMARK    6  A    between atoms: N_14  and  S_15
REMARK    7  A    between atoms: S_15  and  C_18
REMARK                            x       y       z     vdW  Elec       q    Type
REMARK                         _______ _______ _______ _____ _____    ______ ____
ROOT
ATOM      1  C   UNL     1       1.818  -3.674   1.369  0.00  0.00    +0.220 C 
ATOM      2  C   UNL     1       1.714  -4.678   2.494  0.00  0.00    +0.188 C 
ATOM      3  N   UNL     1       0.741  -5.541   2.520  0.00  0.00    -0.110 NA
ATOM      4  N   UNL     1       2.639  -4.665   3.467  0.00  0.00    -0.226 NA
ATOM      5  C   UNL     1       3.633  -3.802   3.463  0.00  0.00    +0.089 A 
ATOM      6  C   UNL     1       4.593  -3.817   4.506  0.00  0.00    +0.030 A 
ATOM      7  C   UNL     1       5.614  -2.933   4.508  0.00  0.00    +0.002 A 
ATOM      8  C   UNL     1       5.785  -1.968   3.502  0.00  0.00    +0.002 A 
ATOM      9  C   UNL     1       4.928  -1.866   2.462  0.00  0.00    +0.027 A 
ATOM     10  C   UNL     1       3.789  -2.792   2.386  0.00  0.00    +0.063 A 
ATOM     11  N   UNL     1       2.942  -2.724   1.399  0.00  0.00    -0.362 N 
ATOM     12  H   UNL     1       3.050  -2.062   0.698  0.00  0.00    +0.162 HD
ENDROOT
BRANCH   3  13
ATOM     13  S   UNL     1       0.638  -6.635   3.759  0.00  0.00    +0.100 S 
ATOM     14  O   UNL     1       1.764  -7.494   3.637  0.00  0.00    -0.146 OA
ATOM     15  O   UNL     1       0.373  -5.889   4.939  0.00  0.00    -0.146 OA
BRANCH  13  16
ATOM     16  C   UNL     1      -0.787  -7.628   3.460  0.00  0.00    +0.113 A 
ATOM     17  C   UNL     1      -2.015  -7.243   3.964  0.00  0.00    +0.030 A 
ATOM     18  C   UNL     1      -3.133  -8.021   3.730  0.00  0.00    +0.022 A 
ATOM     19  C   UNL     1      -3.023  -9.185   2.991  0.00  0.00    +0.041 A 
ATOM     20  C   UNL     1      -1.793  -9.570   2.487  0.00  0.00    +0.022 A 
ATOM     21  C   UNL     1      -0.677  -8.788   2.717  0.00  0.00    +0.030 A 
ATOM     22 CL   UNL     1      -4.427 -10.163   2.697  0.00  0.00    -0.084 Cl
ENDBRANCH  13  16
ENDBRANCH   3  13
BRANCH   1  23
ATOM     23  N   UNL     1       0.573  -2.894   1.346  0.00  0.00    -0.286 NA
ATOM     24  H   UNL     1       0.718  -1.970   1.722  0.00  0.00    +0.125 HD
BRANCH  23  25
ATOM     25  C   UNL     1       0.018  -2.829  -0.013  0.00  0.00    +0.122 C 
BRANCH  25  31
ATOM     26  C   UNL     1      -1.200  -0.637   0.010  0.00  0.00    +0.124 A 
ATOM     27  C   UNL     1      -2.375   0.101   0.019  0.00  0.00    +0.046 A 
ATOM     28  C   UNL     1      -3.596  -0.545   0.027  0.00  0.00    +0.004 A 
ATOM     29  C   UNL     1      -3.648  -1.927   0.026  0.00  0.00    +0.001 A 
ATOM     30  C   UNL     1      -2.479  -2.665   0.017  0.00  0.00    +0.008 A 
ATOM     31  C   UNL     1      -1.255  -2.023   0.003  0.00  0.00    +0.008 A 
BRANCH  26  33
ATOM     32  C   UNL     1      -0.017   1.425   0.010  0.00  0.00    +0.277 C 
ATOM     33  O   UNL     1       0.002  -0.004   0.002  0.00  0.00    -0.495 OA
ENDBRANCH  26  33
ENDBRANCH  25  31
ENDBRANCH  23  25
ENDBRANCH   1  23
TORSDOF 6
