REMARK  Name = ZINC36013932
REMARK  15 active torsions:
REMARK  status: ('A' for Active; 'I' for Inactive)
REMARK    1  A    between atoms: C_1  and  C_2
REMARK    2  A    between atoms: C_2  and  C_3
REMARK    3  A    between atoms: C_3  and  N_4
REMARK    4  A    between atoms: N_10  and  C_13
REMARK    5  A    between atoms: C_13  and  C_14
REMARK    6  A    between atoms: C_15  and  C_33
REMARK    7  A    between atoms: C_16  and  C_24
REMARK    8  A    between atoms: N_21  and  C_22
REMARK    9  A    between atoms: C_22  and  C_23
REMARK   10  A    between atoms: C_27  and  C_30
REMARK   11  A    between atoms: C_30  and  C_31
REMARK   12  A    between atoms: C_30  and  C_32
REMARK   13  A    between atoms: C_33  and  O_35
REMARK   14  A    between atoms: O_35  and  C_36
REMARK   15  A    between atoms: C_36  and  C_37
REMARK                            x       y       z     vdW  Elec       q    Type
REMARK                         _______ _______ _______ _____ _____    ______ ____
ROOT
ATOM      1  C   UNL     1      -3.566  -8.554  -2.135  0.00  0.00    +0.041 C 
ATOM      2  C   UNL     1      -4.487  -8.726  -3.107  0.00  0.00    +0.080 C 
ATOM      3  C   UNL     1      -5.596  -9.728  -2.859  0.00  0.00    +0.144 C 
ATOM      4  N   UNL     1      -5.579 -10.437  -1.568  0.00  0.00    -0.288 N 
ATOM      5  C   UNL     1      -4.590 -10.156  -0.696  0.00  0.00    +0.307 C 
ATOM      6  O   UNL     1      -4.567 -10.735   0.373  0.00  0.00    -0.252 OA
ATOM      7  N   UNL     1      -3.630  -9.264  -0.969  0.00  0.00    -0.258 N 
ATOM      8  H   UNL     1      -6.262 -11.090  -1.350  0.00  0.00    +0.151 HD
ENDROOT
BRANCH   3   9
ATOM      9  C   UNL     1      -5.544 -10.761  -3.955  0.00  0.00    -0.022 A 
ATOM     10  C   UNL     1      -4.626 -11.792  -3.890  0.00  0.00    +0.006 A 
ATOM     11  C   UNL     1      -4.578 -12.739  -4.896  0.00  0.00    +0.004 A 
ATOM     12  C   UNL     1      -5.448 -12.655  -5.966  0.00  0.00    -0.045 A 
ATOM     13  C   UNL     1      -6.367 -11.624  -6.031  0.00  0.00    +0.004 A 
ATOM     14  C   UNL     1      -6.418 -10.680  -5.023  0.00  0.00    +0.006 A 
BRANCH  12  15
ATOM     15  C   UNL     1      -5.395 -13.687  -7.063  0.00  0.00    +0.013 C 
ATOM     16  C   UNL     1      -6.745 -14.401  -7.158  0.00  0.00    +0.012 C 
ATOM     17  C   UNL     1      -5.087 -13.000  -8.395  0.00  0.00    +0.012 C 
ENDBRANCH  12  15
ENDBRANCH   3   9
BRANCH   7  18
ATOM     18  C   UNL     1      -2.594  -9.031   0.040  0.00  0.00    +0.111 C 
ATOM     19  C   UNL     1      -3.042  -7.910   0.980  0.00  0.00    +0.025 C 
ENDBRANCH   7  18
BRANCH   2  20
ATOM     20  C   UNL     1      -4.419  -7.996  -4.317  0.00  0.00    +0.339 C 
ATOM     21  O   UNL     1      -5.184  -7.070  -4.512  0.00  0.00    -0.245 OA
BRANCH  20  22
ATOM     22  O   UNL     1      -3.505  -8.326  -5.253  0.00  0.00    -0.462 OA
BRANCH  22  23
ATOM     23  C   UNL     1      -3.492  -7.545  -6.450  0.00  0.00    +0.229 C 
ATOM     24  C   UNL     1      -2.398  -8.064  -7.386  0.00  0.00    +0.048 C 
ENDBRANCH  22  23
ENDBRANCH  20  22
ENDBRANCH   2  20
BRANCH   1  25
ATOM     25  C   UNL     1      -2.446  -7.567  -2.341  0.00  0.00    +0.136 C 
BRANCH  25  32
ATOM     26  N   UNL     1      -1.755  -1.745  -0.529  0.00  0.00    -0.299 N 
ATOM     27  C   UNL     1      -2.895  -2.462  -0.557  0.00  0.00    +0.302 C 
ATOM     28  O   UNL     1      -3.969  -1.895  -0.620  0.00  0.00    -0.253 OA
ATOM     29  N   UNL     1      -2.845  -3.809  -0.517  0.00  0.00    -0.283 N 
ATOM     30  C   UNL     1      -1.568  -4.511  -0.326  0.00  0.00    +0.124 C 
ATOM     31  C   UNL     1      -1.427  -5.572  -1.423  0.00  0.00    +0.104 C 
ATOM     32  N   UNL     1      -2.616  -6.434  -1.421  0.00  0.00    -0.294 NA
ATOM     33  C   UNL     1      -3.828  -5.671  -1.746  0.00  0.00    +0.104 C 
ATOM     34  C   UNL     1      -4.068  -4.614  -0.656  0.00  0.00    +0.124 C 
ATOM     35  H   UNL     1      -0.903  -2.192  -0.406  0.00  0.00    +0.150 HD
BRANCH  26  36
ATOM     36  C   UNL     1      -1.802  -0.289  -0.685  0.00  0.00    +0.105 C 
BRANCH  36  38
ATOM     37  C   UNL     1      -0.431   1.798  -0.779  0.00  0.00    +0.005 C 
ATOM     38  C   UNL     1      -0.382   0.277  -0.616  0.00  0.00    +0.015 C 
ENDBRANCH  36  38
ENDBRANCH  26  36
ENDBRANCH  25  32
ENDBRANCH   1  25
TORSDOF 10
