REMARK  Name = ZINC36121292
REMARK  9 active torsions:
REMARK  status: ('A' for Active; 'I' for Inactive)
REMARK    1  A    between atoms: C_4  and  C_7
REMARK    2  A    between atoms: N_9  and  C_10
REMARK    3  A    between atoms: N_9  and  C_17
REMARK    4  A    between atoms: C_10  and  C_11
REMARK    5  A    between atoms: C_11  and  N_12
REMARK    6  A    between atoms: C_17  and  C_18
REMARK    7  A    between atoms: C_28  and  C_30
REMARK    8  A    between atoms: C_30  and  O_31
REMARK    9  A    between atoms: O_31  and  C_32
REMARK                            x       y       z     vdW  Elec       q    Type
REMARK                         _______ _______ _______ _____ _____    ______ ____
ROOT
ATOM      1  C   UNL     1       5.314  -2.742   1.532  0.00  0.00    +0.234 C 
ATOM      2  O   UNL     1       4.552  -2.238   2.330  0.00  0.00    -0.274 OA
ATOM      3  N   UNL     1       6.450  -3.327   1.962  0.00  0.00    -0.289 N 
ATOM      4  C   UNL     1       7.384  -3.936   1.004  0.00  0.00    +0.114 C 
ATOM      5  C   UNL     1       7.431  -5.449   1.270  0.00  0.00    +0.061 C 
ATOM      6  C   UNL     1       7.492  -5.673   2.746  0.00  0.00    -0.004 A 
ATOM      7  C   UNL     1       7.205  -4.788   3.739  0.00  0.00    -0.014 A 
ATOM      8  C   UNL     1       7.335  -5.253   5.047  0.00  0.00    +0.013 A 
ATOM      9  C   UNL     1       7.734  -6.524   5.278  0.00  0.00    +0.046 A 
ATOM     10  S   UNL     1       7.952  -7.148   3.618  0.00  0.00    -0.101 S 
ATOM     11  C   UNL     1       6.774  -3.360   3.395  0.00  0.00    +0.144 C 
ENDROOT
BRANCH   1  12
ATOM     12  C   UNL     1       4.991  -2.715   0.061  0.00  0.00    +0.203 C 
BRANCH  12  15
ATOM     13  C   UNL     1       3.695  -0.711  -0.430  0.00  0.00    +0.247 C 
ATOM     14  O   UNL     1       2.634  -0.128  -0.540  0.00  0.00    -0.270 OA
ATOM     15  N   UNL     1       3.714  -2.028  -0.146  0.00  0.00    -0.290 N 
BRANCH  13  19
ATOM     16  C   UNL     1       7.344   1.403  -0.942  0.00  0.00    +0.000 A 
ATOM     17  C   UNL     1       7.159   0.610   0.176  0.00  0.00    +0.001 A 
ATOM     18  C   UNL     1       5.976  -0.079   0.349  0.00  0.00    +0.013 A 
ATOM     19  C   UNL     1       4.965   0.026  -0.608  0.00  0.00    +0.037 A 
ATOM     20  C   UNL     1       5.158   0.828  -1.734  0.00  0.00    +0.013 A 
ATOM     21  C   UNL     1       6.346   1.512  -1.894  0.00  0.00    +0.001 A 
ENDBRANCH  13  19
BRANCH  15  22
ATOM     22  C   UNL     1       2.457  -2.773  -0.045  0.00  0.00    +0.090 C 
BRANCH  22  23
ATOM     23  C   UNL     1       2.018  -3.225  -1.439  0.00  0.00    -0.060 C 
BRANCH  23  24
ATOM     24  N   UNL     1       0.757  -3.973  -1.337  0.00  0.00    +0.381 N 
ATOM     25  C   UNL     1      -0.348  -3.061  -0.946  0.00  0.00    -0.079 C 
ATOM     26  C   UNL     1      -1.615  -3.815  -1.423  0.00  0.00    -0.020 C 
ATOM     27  C   UNL     1      -1.155  -4.457  -2.752  0.00  0.00    -0.020 C 
ATOM     28  C   UNL     1       0.381  -4.519  -2.659  0.00  0.00    -0.079 C 
ATOM     29  H   UNL     1       0.849  -4.719  -0.665  0.00  0.00    -0.082 HD
ENDBRANCH  23  24
ENDBRANCH  22  23
ENDBRANCH  15  22
ENDBRANCH  12  15
ENDBRANCH   1  12
BRANCH  11  30
ATOM     30  C   UNL     1       7.916  -2.385   3.690  0.00  0.00    +0.256 C 
BRANCH  30  31
ATOM     31  O   UNL     1       9.102  -2.826   3.027  0.00  0.00    -0.490 OA
BRANCH  31  32
ATOM     32  C   UNL     1      10.218  -2.065   3.187  0.00  0.00    +0.121 A 
ATOM     33  C   UNL     1      10.172  -0.922   3.970  0.00  0.00    +0.048 A 
ATOM     34  C   UNL     1      11.306  -0.150   4.132  0.00  0.00    +0.042 A 
ATOM     35  C   UNL     1      12.488  -0.517   3.512  0.00  0.00    +0.124 A 
ATOM     36  C   UNL     1      12.536  -1.658   2.729  0.00  0.00    +0.042 A 
ATOM     37  C   UNL     1      11.404  -2.435   2.571  0.00  0.00    +0.048 A 
ATOM     38  F   UNL     1      13.597   0.239   3.670  0.00  0.00    -0.205 F 
ENDBRANCH  31  32
ENDBRANCH  30  31
ENDBRANCH  11  30
TORSDOF 9
