REMARK  Name = ZINC20528246
REMARK  8 active torsions:
REMARK  status: ('A' for Active; 'I' for Inactive)
REMARK    1  A    between atoms: C_5  and  C_7
REMARK    2  A    between atoms: N_8  and  N_9
REMARK    3  A    between atoms: C_13  and  S_16
REMARK    4  A    between atoms: N_14  and  N_15
REMARK    5  A    between atoms: S_16  and  C_17
REMARK    6  A    between atoms: C_17  and  C_18
REMARK    7  A    between atoms: N_20  and  C_21
REMARK    8  A    between atoms: C_22  and  C_30
REMARK                            x       y       z     vdW  Elec       q    Type
REMARK                         _______ _______ _______ _____ _____    ______ ____
ROOT
ATOM      1  N   UNL     1      -4.412  13.129  -7.407  0.00  0.00    -0.204 N 
ATOM      2  C   UNL     1      -4.027  12.228  -6.425  0.00  0.00    +0.254 A 
ATOM      3  N   UNL     1      -3.832  12.505  -5.159  0.00  0.00    -0.109 NA
ATOM      4  N   UNL     1      -3.460  11.321  -4.509  0.00  0.00    -0.119 NA
ATOM      5  C   UNL     1      -3.431  10.360  -5.402  0.00  0.00    +0.210 A 
ATOM      6  N   UNL     1      -3.784  10.895  -6.608  0.00  0.00    -0.211 N 
ATOM      7  H   UNL     1      -4.546  12.788  -8.444  0.00  0.00    +0.177 HD
ENDROOT
BRANCH   6   8
ATOM      8  N   UNL     1      -3.877  10.216  -7.790  0.00  0.00    -0.294 N 
ATOM      9  H   UNL     1      -3.658   9.139  -7.825  0.00  0.00    +0.163 HD
ATOM     10  H   UNL     1      -4.171  10.748  -8.707  0.00  0.00    +0.163 HD
ENDBRANCH   6   8
BRANCH   1  12
ATOM     11  C   UNL     1      -4.988  15.317  -7.998  0.00  0.00    +0.139 C 
ATOM     12  N   UNL     1      -4.628  14.473  -7.079  0.00  0.00    -0.187 NA
BRANCH  11  17
ATOM     13  C   UNL     1      -5.813  18.965  -8.307  0.00  0.00    +0.001 A 
ATOM     14  C   UNL     1      -5.642  19.391  -7.002  0.00  0.00    +0.001 A 
ATOM     15  C   UNL     1      -5.260  18.496  -6.019  0.00  0.00    +0.020 A 
ATOM     16  C   UNL     1      -5.045  17.169  -6.335  0.00  0.00    +0.050 A 
ATOM     17  C   UNL     1      -5.215  16.732  -7.652  0.00  0.00    +0.013 A 
ATOM     18  C   UNL     1      -5.597  17.643  -8.639  0.00  0.00    +0.011 A 
ATOM     19 CL   UNL     1      -4.564  16.047  -5.101  0.00  0.00    -0.083 Cl
ENDBRANCH  11  17
ENDBRANCH   1  12
BRANCH   5  20
ATOM     20  S   UNL     1      -3.017   8.675  -5.097  0.00  0.00    -0.075 S 
BRANCH  20  21
ATOM     21  C   UNL     1      -2.653   8.627  -3.320  0.00  0.00    +0.173 C 
BRANCH  21  22
ATOM     22  C   UNL     1      -2.279   7.222  -2.922  0.00  0.00    +0.228 C 
ATOM     23  O   UNL     1      -2.260   6.341  -3.755  0.00  0.00    -0.275 OA
ATOM     24  N   UNL     1      -1.965   6.946  -1.641  0.00  0.00    -0.278 N 
ATOM     25  H   UNL     1      -1.982   7.746  -0.886  0.00  0.00    +0.155 HD
BRANCH  24  26
ATOM     26  C   UNL     1      -1.621   5.653  -1.274  0.00  0.00    +0.090 A 
ATOM     27  C   UNL     1      -1.271   5.177  -0.019  0.00  0.00    +0.084 A 
ATOM     28  C   UNL     1      -0.951   3.765   0.100  0.00  0.00    -0.018 A 
ATOM     29  C   UNL     1      -1.032   3.059  -1.049  0.00  0.00    -0.004 A 
ATOM     30  S   UNL     1      -1.524   4.240  -2.273  0.00  0.00    -0.077 S 
ATOM     31  C   UNL     1      -0.761   1.597  -1.232  0.00  0.00    +0.043 C 
ATOM     32  C   UNL     1      -0.013   1.086   0.008  0.00  0.00    +0.005 C 
ATOM     33  C   UNL     1      -0.735   1.583   1.264  0.00  0.00    +0.005 C 
ATOM     34  C   UNL     1      -0.551   3.094   1.407  0.00  0.00    +0.037 C 
BRANCH  27  35
ATOM     35  C   UNL     1      -1.226   6.046   1.118  0.00  0.00    +0.102 C 
ATOM     36  N   UNL     1      -1.191   6.736   2.020  0.00  0.00    -0.191 NA
ENDBRANCH  27  35
ENDBRANCH  24  26
ENDBRANCH  21  22
ENDBRANCH  20  21
ENDBRANCH   5  20
TORSDOF 8
