REMARK  Name = ZINC21466130
REMARK  4 active torsions:
REMARK  status: ('A' for Active; 'I' for Inactive)
REMARK    1  A    between atoms: C_13  and  N_17
REMARK    2  A    between atoms: C_18  and  C_20
REMARK    3  A    between atoms: C_20  and  S_21
REMARK    4  A    between atoms: S_21  and  C_22
REMARK                            x       y       z     vdW  Elec       q    Type
REMARK                         _______ _______ _______ _____ _____    ______ ____
ROOT
ATOM      1  N   UNL     1       2.434   5.475   0.007  0.00  0.00    -0.284 N 
ATOM      2  C   UNL     1       3.595   6.154   0.101  0.00  0.00    +0.228 C 
ATOM      3  O   UNL     1       4.650   5.556   0.088  0.00  0.00    -0.275 OA
ATOM      4  H   UNL     1       1.483   6.021  -0.072  0.00  0.00    +0.155 HD
ENDROOT
BRANCH   1  17
ATOM      5  C   UNL     1      -2.877   1.912  -3.072  0.00  0.00    +0.001 A 
ATOM      6  C   UNL     1      -2.892   3.295  -3.081  0.00  0.00    +0.001 A 
ATOM      7  C   UNL     1      -1.876   4.012  -2.474  0.00  0.00    +0.012 A 
ATOM      8  C   UNL     1      -0.820   3.339  -1.866  0.00  0.00    +0.033 A 
ATOM      9  C   UNL     1      -0.801   1.933  -1.862  0.00  0.00    +0.033 A 
ATOM     10  C   UNL     1      -1.838   1.227  -2.466  0.00  0.00    +0.012 A 
ATOM     11  C   UNL     1       0.313   1.210  -1.213  0.00  0.00    +0.195 C 
ATOM     12  O   UNL     1       0.327  -0.005  -1.204  0.00  0.00    -0.287 OA
ATOM     13  C   UNL     1       1.412   1.968  -0.580  0.00  0.00    +0.035 A 
ATOM     14  C   UNL     1       2.467   1.297   0.028  0.00  0.00    +0.012 A 
ATOM     15  C   UNL     1       3.496   2.011   0.621  0.00  0.00    +0.003 A 
ATOM     16  C   UNL     1       3.487   3.390   0.615  0.00  0.00    +0.024 A 
ATOM     17  C   UNL     1       2.440   4.085   0.012  0.00  0.00    +0.045 A 
ATOM     18  C   UNL     1       1.394   3.376  -0.590  0.00  0.00    +0.054 A 
ATOM     19  C   UNL     1       0.280   4.096  -1.232  0.00  0.00    +0.196 C 
ATOM     20  O   UNL     1       0.266   5.311  -1.241  0.00  0.00    -0.287 OA
ENDBRANCH   1  17
BRANCH   2  21
ATOM     21  C   UNL     1       3.582   7.656   0.223  0.00  0.00    +0.173 C 
BRANCH  21  22
ATOM     22  S   UNL     1       5.286   8.269   0.329  0.00  0.00    -0.076 S 
BRANCH  22  23
ATOM     23  C   UNL     1       5.103  10.016   0.465  0.00  0.00    +0.197 A 
ATOM     24  N   UNL     1       3.968  10.665   0.473  0.00  0.00    -0.121 NA
ATOM     25  N   UNL     1       4.250  12.032   0.599  0.00  0.00    -0.121 NA
ATOM     26  C   UNL     1       5.542  12.161   0.653  0.00  0.00    +0.202 A 
ATOM     27  N   UNL     1       6.139  10.931   0.573  0.00  0.00    -0.264 N 
ATOM     28  C   UNL     1       7.540  10.873   0.616  0.00  0.00    +0.065 A 
ATOM     29  C   UNL     1       8.331   9.714   0.549  0.00  0.00    +0.027 A 
ATOM     30  C   UNL     1       9.703   9.795   0.601  0.00  0.00    +0.002 A 
ATOM     31  C   UNL     1      10.347  11.014   0.721  0.00  0.00    +0.001 A 
ATOM     32  C   UNL     1       9.591  12.172   0.790  0.00  0.00    +0.017 A 
ATOM     33  C   UNL     1       8.219  12.090   0.737  0.00  0.00    +0.040 A 
ATOM     34  S   UNL     1       6.909  13.289   0.790  0.00  0.00    -0.048 S 
ENDBRANCH  22  23
ENDBRANCH  21  22
ENDBRANCH   2  21
TORSDOF 4
