REMARK  Name = ZINC43031111
REMARK  9 active torsions:
REMARK  status: ('A' for Active; 'I' for Inactive)
REMARK    1  A    between atoms: C_1  and  C_2
REMARK    2  A    between atoms: C_2  and  C_3
REMARK    3  A    between atoms: C_3  and  C_5
REMARK    4  A    between atoms: C_3  and  N_23
REMARK    5  A    between atoms: C_5  and  C_7
REMARK    6  A    between atoms: C_5  and  O_15
REMARK    7  A    between atoms: C_11  and  O_13
REMARK    8  A    between atoms: O_13  and  C_14
REMARK    9  A    between atoms: O_15  and  C_16
REMARK                            x       y       z     vdW  Elec       q    Type
REMARK                         _______ _______ _______ _____ _____    ______ ____
ROOT
ATOM      1  C   UNL     1       0.861  -2.049  -1.208  0.00  0.00    +0.189 C 
ENDROOT
BRANCH   1   2
ATOM      2  C   UNL     1       1.789  -2.568  -0.140  0.00  0.00    -0.006 A 
ATOM      3  C   UNL     1       1.310  -2.806   1.136  0.00  0.00    +0.007 A 
ATOM      4  C   UNL     1       2.158  -3.283   2.118  0.00  0.00    +0.004 A 
ATOM      5  C   UNL     1       3.487  -3.523   1.827  0.00  0.00    +0.045 A 
ATOM      6  C   UNL     1       3.970  -3.285   0.548  0.00  0.00    +0.120 A 
ATOM      7  C   UNL     1       3.115  -2.812  -0.437  0.00  0.00    +0.052 A 
BRANCH   6   8
ATOM      8  O   UNL     1       5.277  -3.521   0.260  0.00  0.00    -0.495 OA
ATOM      9  C   UNL     1       6.098  -4.012   1.321  0.00  0.00    +0.277 C 
ENDBRANCH   6   8
ENDBRANCH   1   2
BRANCH   1  10
ATOM     10  C   UNL     1       0.783  -0.523  -1.117  0.00  0.00    -0.029 C 
BRANCH  10  11
ATOM     11  N   UNL     1      -0.025  -0.007  -2.231  0.00  0.00    +0.383 N 
ATOM     12  H   UNL     1      -0.955  -0.395  -2.179  0.00  0.00    -0.089 HD
ATOM     13  H   UNL     1      -0.076   0.999  -2.171  0.00  0.00    -0.089 HD
ATOM     14  H   UNL     1       0.402  -0.271  -3.106  0.00  0.00    -0.089 HD
ENDBRANCH  10  11
BRANCH  10  16
ATOM     15  C   UNL     1       0.171   1.399   0.356  0.00  0.00    +0.002 C 
ATOM     16  C   UNL     1       0.136  -0.123   0.210  0.00  0.00    -0.016 C 
ENDBRANCH  10  16
ENDBRANCH   1  10
BRANCH   1  17
ATOM     17  O   UNL     1      -0.442  -2.604  -1.018  0.00  0.00    -0.485 OA
BRANCH  17  18
ATOM     18  C   UNL     1      -1.191  -2.813  -2.133  0.00  0.00    +0.134 A 
ATOM     19  C   UNL     1      -0.656  -2.561  -3.388  0.00  0.00    +0.047 A 
ATOM     20  C   UNL     1      -1.420  -2.775  -4.519  0.00  0.00    +0.004 A 
ATOM     21  C   UNL     1      -2.717  -3.238  -4.401  0.00  0.00    +0.001 A 
ATOM     22  C   UNL     1      -3.254  -3.489  -3.152  0.00  0.00    +0.018 A 
ATOM     23  C   UNL     1      -2.492  -3.284  -2.018  0.00  0.00    +0.055 A 
ATOM     24  I   UNL     1      -3.302  -3.674  -0.126  0.00  0.00    -0.040 I 
ENDBRANCH  17  18
ENDBRANCH   1  17
TORSDOF 7
