REMARK  Name = ZINC15998952
REMARK  1 active torsions:
REMARK  status: ('A' for Active; 'I' for Inactive)
REMARK    1  A    between atoms: C_6  and  N_11
REMARK                            x       y       z     vdW  Elec       q    Type
REMARK                         _______ _______ _______ _____ _____    ______ ____
ROOT
ATOM      1  N   UNL     1       4.915  -2.655  -0.058  0.00  0.00    -0.210 N 
ATOM      2  C   UNL     1       6.088  -2.020  -0.158  0.00  0.00    +0.232 C 
ATOM      3  O   UNL     1       6.229  -0.819  -0.247  0.00  0.00    -0.274 OA
ATOM      4  C   UNL     1       7.211  -3.033  -0.143  0.00  0.00    +0.107 C 
ATOM      5  C   UNL     1       7.896  -3.058  -1.522  0.00  0.00    +0.071 C 
ATOM      6  C   UNL     1       7.684  -1.703  -2.221  0.00  0.00    +0.021 C 
ATOM      7  C   UNL     1       6.391  -1.861  -3.045  0.00  0.00    +0.017 C 
ATOM      8  C   UNL     1       5.903  -3.295  -2.757  0.00  0.00    +0.086 C 
ATOM      9  N   UNL     1       7.128  -4.059  -2.323  0.00  0.00    -0.281 NA
ATOM     10  C   UNL     1       6.771  -5.109  -1.354  0.00  0.00    +0.138 C 
ATOM     11  C   UNL     1       6.467  -4.390  -0.017  0.00  0.00    +0.123 C 
ATOM     12  C   UNL     1       5.010  -3.986   0.033  0.00  0.00    +0.233 C 
ATOM     13  O   UNL     1       4.075  -4.750   0.136  0.00  0.00    -0.274 OA
ATOM     14  C   UNL     1       5.592  -5.913  -1.825  0.00  0.00    +0.005 A 
ATOM     15  C   UNL     1       4.293  -5.589  -2.150  0.00  0.00    +0.023 A 
ATOM     16  C   UNL     1       3.415  -6.577  -2.562  0.00  0.00    +0.018 A 
ATOM     17  C   UNL     1       3.846  -7.889  -2.646  0.00  0.00    +0.017 A 
ATOM     18  C   UNL     1       5.146  -8.217  -2.322  0.00  0.00    +0.025 A 
ATOM     19  C   UNL     1       6.036  -7.229  -1.906  0.00  0.00    +0.039 A 
ATOM     20  N   UNL     1       7.379  -7.309  -1.529  0.00  0.00    -0.283 N 
ATOM     21  C   UNL     1       7.884  -6.108  -1.190  0.00  0.00    +0.243 C 
ATOM     22  O   UNL     1       9.017  -5.876  -0.824  0.00  0.00    -0.273 OA
ATOM     23 BR   UNL     1       1.632  -6.134  -3.008  0.00  0.00    -0.050 Br
ATOM     24  H   UNL     1       7.888  -8.135  -1.513  0.00  0.00    +0.155 HD
ENDROOT
BRANCH   1  30
ATOM     25  C   UNL     1      -0.828  -0.098  -1.005  0.00  0.00    +0.001 A 
ATOM     26  C   UNL     1      -0.505  -0.909  -2.091  0.00  0.00    +0.001 A 
ATOM     27  C   UNL     1       0.679  -1.579  -2.138  0.00  0.00    +0.008 A 
ATOM     28  C   UNL     1       1.592  -1.452  -1.077  0.00  0.00    -0.016 A 
ATOM     29  C   UNL     1       2.823  -2.127  -1.091  0.00  0.00    +0.032 A 
ATOM     30  C   UNL     1       3.687  -1.980  -0.043  0.00  0.00    +0.044 A 
ATOM     31  C   UNL     1       3.360  -1.165   1.047  0.00  0.00    +0.024 A 
ATOM     32  C   UNL     1       2.176  -0.499   1.090  0.00  0.00    +0.010 A 
ATOM     33  C   UNL     1       1.264  -0.627   0.028  0.00  0.00    -0.018 A 
ATOM     34  C   UNL     1       0.032   0.049   0.040  0.00  0.00    +0.008 A 
ENDBRANCH   1  30
TORSDOF 1
