REMARK  Name = ZINC22920724
REMARK  8 active torsions:
REMARK  status: ('A' for Active; 'I' for Inactive)
REMARK    1  A    between atoms: C_1  and  C_2
REMARK    2  A    between atoms: C_9  and  N_13
REMARK    3  A    between atoms: C_10  and  C_11
REMARK    4  A    between atoms: C_14  and  C_16
REMARK    5  A    between atoms: C_16  and  N_17
REMARK    6  A    between atoms: N_20  and  C_23
REMARK    7  A    between atoms: C_23  and  C_24
REMARK    8  A    between atoms: C_23  and  C_30
REMARK                            x       y       z     vdW  Elec       q    Type
REMARK                         _______ _______ _______ _____ _____    ______ ____
ROOT
ATOM      1  N   UNL     1       4.651   5.432  -0.461  0.00  0.00    +0.387 N 
ATOM      2  C   UNL     1       5.242   4.863   0.758  0.00  0.00    -0.063 C 
ATOM      3  C   UNL     1       6.731   5.210   0.810  0.00  0.00    +0.067 C 
ATOM      4  N   UNL     1       6.894   6.670   0.781  0.00  0.00    -0.295 NA
ATOM      5  C   UNL     1       6.303   7.238  -0.439  0.00  0.00    +0.067 C 
ATOM      6  C   UNL     1       4.813   6.892  -0.490  0.00  0.00    -0.063 C 
ATOM      7  H   UNL     1       5.188   5.013  -1.325  0.00  0.00    -0.081 HD
ENDROOT
BRANCH   1   8
ATOM      8  C   UNL     1       3.236   5.056  -0.586  0.00  0.00    +0.019 C 
BRANCH   8  10
ATOM      9  N   UNL     1       1.917   2.994  -0.941  0.00  0.00    -0.281 N 
ATOM     10  C   UNL     1       3.128   3.568  -0.799  0.00  0.00    +0.201 C 
ATOM     11  O   UNL     1       4.131   2.888  -0.843  0.00  0.00    -0.278 OA
ATOM     12  H   UNL     1       1.008   3.612  -0.901  0.00  0.00    +0.155 HD
BRANCH   9  20
ATOM     13  C   UNL     1       1.787  -4.739  -2.122  0.00  0.00    +0.008 C 
ATOM     14  C   UNL     1       1.442  -3.252  -2.220  0.00  0.00    -0.009 C 
ATOM     15  C   UNL     1       0.183  -2.962  -1.397  0.00  0.00    +0.008 C 
ATOM     16  C   UNL     1      -0.314  -1.545  -1.686  0.00  0.00    +0.037 C 
ATOM     17  C   UNL     1       0.843  -0.572  -1.493  0.00  0.00    -0.018 A 
ATOM     18  C   UNL     1       2.123  -1.004  -1.489  0.00  0.00    -0.004 A 
ATOM     19  S   UNL     1       3.093   0.455  -1.235  0.00  0.00    -0.077 S 
ATOM     20  C   UNL     1       1.817   1.624  -1.137  0.00  0.00    +0.090 A 
ATOM     21  C   UNL     1       0.673   0.858  -1.302  0.00  0.00    +0.084 A 
ATOM     22  C   UNL     1       2.601  -2.413  -1.662  0.00  0.00    +0.046 C 
BRANCH  21  23
ATOM     23  C   UNL     1      -0.628   1.456  -1.290  0.00  0.00    +0.102 C 
ATOM     24  N   UNL     1      -1.660   1.930  -1.281  0.00  0.00    -0.191 NA
ENDBRANCH  21  23
ENDBRANCH   9  20
ENDBRANCH   8  10
ENDBRANCH   1   8
BRANCH   4  25
ATOM     25  C   UNL     1       8.308   7.045   0.906  0.00  0.00    +0.117 C 
BRANCH  25  26
ATOM     26  C   UNL     1       8.432   8.547   0.899  0.00  0.00    -0.026 A 
ATOM     27  C   UNL     1       7.557   9.316   1.642  0.00  0.00    +0.005 A 
ATOM     28  C   UNL     1       7.673  10.694   1.639  0.00  0.00    +0.000 A 
ATOM     29  C   UNL     1       8.659  11.302   0.885  0.00  0.00    +0.000 A 
ATOM     30  C   UNL     1       9.531  10.533   0.138  0.00  0.00    +0.000 A 
ATOM     31  C   UNL     1       9.418   9.156   0.145  0.00  0.00    +0.005 A 
ENDBRANCH  25  26
BRANCH  25  32
ATOM     32  C   UNL     1       8.860   6.502   2.198  0.00  0.00    -0.026 A 
ATOM     33  C   UNL     1       8.129   6.619   3.366  0.00  0.00    +0.005 A 
ATOM     34  C   UNL     1       8.633   6.116   4.551  0.00  0.00    +0.000 A 
ATOM     35  C   UNL     1       9.873   5.505   4.570  0.00  0.00    +0.000 A 
ATOM     36  C   UNL     1      10.607   5.393   3.404  0.00  0.00    +0.000 A 
ATOM     37  C   UNL     1      10.100   5.891   2.218  0.00  0.00    +0.005 A 
ENDBRANCH  25  32
ENDBRANCH   4  25
TORSDOF 7
