REMARK  Name = ZINC59845357
REMARK  8 active torsions:
REMARK  status: ('A' for Active; 'I' for Inactive)
REMARK    1  A    between atoms: C_1  and  C_2
REMARK    2  A    between atoms: C_2  and  C_3
REMARK    3  A    between atoms: C_3  and  C_4
REMARK    4  A    between atoms: C_4  and  C_5
REMARK    5  A    between atoms: C_5  and  S_6
REMARK    6  A    between atoms: S_6  and  C_7
REMARK    7  A    between atoms: C_10  and  C_13
REMARK    8  A    between atoms: N_11  and  N_12
REMARK                            x       y       z     vdW  Elec       q    Type
REMARK                         _______ _______ _______ _____ _____    ______ ____
ROOT
ATOM      1  C   UNL     1      -4.527  -4.856   0.019  0.00  0.00    +0.209 A 
ATOM      2  N   UNL     1      -5.551  -4.032   0.028  0.00  0.00    -0.121 NA
ATOM      3  N   UNL     1      -6.651  -4.696   0.037  0.00  0.00    -0.127 NA
ATOM      4  C   UNL     1      -6.398  -5.984   0.034  0.00  0.00    +0.182 A 
ATOM      5  N   UNL     1      -5.030  -6.126   0.017  0.00  0.00    -0.224 N 
ENDROOT
BRANCH   4   6
ATOM      6  C   UNL     1      -7.395  -7.075   0.042  0.00  0.00    +0.021 A 
ATOM      7  C   UNL     1      -7.006  -8.378   0.357  0.00  0.00    +0.013 A 
ATOM      8  C   UNL     1      -7.941  -9.392   0.363  0.00  0.00    +0.016 A 
ATOM      9  C   UNL     1      -9.263  -9.120   0.057  0.00  0.00    +0.018 A 
ATOM     10  C   UNL     1      -9.656  -7.830  -0.257  0.00  0.00    +0.016 A 
ATOM     11  C   UNL     1      -8.731  -6.806  -0.260  0.00  0.00    +0.013 A 
ATOM     12 BR   UNL     1     -10.539 -10.516   0.066  0.00  0.00    -0.050 Br
ENDBRANCH   4   6
BRANCH   5  13
ATOM     13  N   UNL     1      -4.322  -7.294   0.004  0.00  0.00    -0.295 N 
ATOM     14  H   UNL     1      -4.125  -7.609   0.942  0.00  0.00    +0.163 HD
ATOM     15  H   UNL     1      -4.808  -8.005  -0.522  0.00  0.00    +0.163 HD
ENDBRANCH   5  13
BRANCH   1  16
ATOM     16  S   UNL     1      -2.823  -4.407   0.005  0.00  0.00    -0.084 S 
BRANCH  16  17
ATOM     17  C   UNL     1      -2.848  -2.593   0.015  0.00  0.00    +0.077 C 
BRANCH  17  18
ATOM     18  C   UNL     1      -1.413  -2.063   0.004  0.00  0.00    +0.011 C 
BRANCH  18  19
ATOM     19  C   UNL     1      -1.433  -0.534   0.013  0.00  0.00    +0.001 C 
BRANCH  19  21
ATOM     20  C   UNL     1      -0.019   1.526   0.010  0.00  0.00    +0.004 C 
ATOM     21  C   UNL     1       0.002  -0.004   0.002  0.00  0.00    -0.003 C 
ENDBRANCH  19  21
ENDBRANCH  18  19
ENDBRANCH  17  18
ENDBRANCH  16  17
ENDBRANCH   1  16
TORSDOF 7
