REMARK  Name = ZINC14034382
REMARK  6 active torsions:
REMARK  status: ('A' for Active; 'I' for Inactive)
REMARK    1  A    between atoms: C_1  and  C_2
REMARK    2  A    between atoms: C_2  and  C_3
REMARK    3  A    between atoms: C_2  and  C_4
REMARK    4  A    between atoms: C_2  and  C_5
REMARK    5  A    between atoms: C_14  and  C_16
REMARK    6  A    between atoms: C_16  and  C_17
REMARK                            x       y       z     vdW  Elec       q    Type
REMARK                         _______ _______ _______ _____ _____    ______ ____
ROOT
ATOM      1  C   UNL     1       1.350   2.172  -0.213  0.00  0.00    +0.055 A 
ATOM      2  C   UNL     1       0.233   1.423   0.019  0.00  0.00    +0.094 A 
ATOM      3  C   UNL     1      -1.018   2.046   0.059  0.00  0.00    +0.255 A 
ATOM      4  O   UNL     1      -2.022   1.384   0.261  0.00  0.00    -0.268 OA
ATOM      5  N   UNL     1      -1.117   3.401  -0.124  0.00  0.00    -0.283 N 
ATOM      6  C   UNL     1       0.045   4.075  -0.350  0.00  0.00    +0.172 A 
ATOM      7  N   UNL     1       1.220   3.483  -0.391  0.00  0.00    -0.227 NA
ATOM      8  S   UNL     1      -0.386   5.789  -0.555  0.00  0.00    -0.086 S 
ATOM      9  C   UNL     1      -2.200   5.667  -0.338  0.00  0.00    +0.103 C 
ATOM     10  C   UNL     1      -2.367   4.159  -0.099  0.00  0.00    +0.112 C 
ENDROOT
BRANCH   1  12
ATOM     11  C   UNL     1       2.566   0.018  -0.029  0.00  0.00    +0.017 C 
ATOM     12  C   UNL     1       2.709   1.523  -0.266  0.00  0.00    +0.005 C 
ATOM     13  C   UNL     1       3.336   1.766  -1.640  0.00  0.00    +0.017 C 
ATOM     14  C   UNL     1       3.605   2.126   0.818  0.00  0.00    +0.017 C 
ENDBRANCH   1  12
BRANCH  10  15
ATOM     15  C   UNL     1      -3.296   3.599  -1.178  0.00  0.00    +0.122 C 
BRANCH  15  16
ATOM     16  C   UNL     1      -4.644   4.264  -1.074  0.00  0.00    +0.222 C 
ATOM     17  O   UNL     1      -4.879   5.019  -0.155  0.00  0.00    -0.275 OA
ATOM     18  N   UNL     1      -5.589   4.020  -2.004  0.00  0.00    -0.271 N 
ATOM     19  C   UNL     1      -5.349   3.042  -3.074  0.00  0.00    +0.114 C 
ATOM     20  C   UNL     1      -5.831   3.662  -4.392  0.00  0.00    +0.024 C 
ATOM     21  C   UNL     1      -7.338   3.900  -4.304  0.00  0.00    +0.038 C 
ATOM     22  C   UNL     1      -7.679   4.662  -3.050  0.00  0.00    -0.026 A 
ATOM     23  C   UNL     1      -6.819   4.691  -1.962  0.00  0.00    +0.039 A 
ATOM     24  C   UNL     1      -7.165   5.404  -0.822  0.00  0.00    +0.024 A 
ATOM     25  C   UNL     1      -8.369   6.077  -0.765  0.00  0.00    +0.002 A 
ATOM     26  C   UNL     1      -9.227   6.046  -1.848  0.00  0.00    +0.000 A 
ATOM     27  C   UNL     1      -8.884   5.341  -2.986  0.00  0.00    +0.005 A 
ENDBRANCH  15  16
ENDBRANCH  10  15
TORSDOF 3
