REMARK  Name = ZINC39328013
REMARK  14 active torsions:
REMARK  status: ('A' for Active; 'I' for Inactive)
REMARK    1  A    between atoms: C_1  and  C_2
REMARK    2  A    between atoms: C_2  and  C_3
REMARK    3  A    between atoms: C_2  and  C_4
REMARK    4  A    between atoms: C_7  and  C_10
REMARK    5  A    between atoms: C_12  and  C_37
REMARK    6  A    between atoms: C_13  and  N_36
REMARK    7  A    between atoms: C_15  and  C_21
REMARK    8  A    between atoms: C_16  and  C_17
REMARK    9  A    between atoms: C_17  and  O_19
REMARK   10  A    between atoms: O_19  and  C_20
REMARK   11  A    between atoms: C_21  and  S_22
REMARK   12  A    between atoms: S_22  and  C_23
REMARK   13  A    between atoms: C_24  and  C_34
REMARK   14  A    between atoms: N_31  and  C_33
REMARK                            x       y       z     vdW  Elec       q    Type
REMARK                         _______ _______ _______ _____ _____    ______ ____
ROOT
ATOM      1  C   UNL     1       2.700  -1.886  -4.773  0.00  0.00    +0.105 C 
ATOM      2  C   UNL     1       4.112  -1.377  -4.868  0.00  0.00    +0.098 C 
ATOM      3  C   UNL     1       5.160  -2.171  -4.537  0.00  0.00    +0.198 C 
ATOM      4  O   UNL     1       4.977  -3.435  -4.115  0.00  0.00    -0.444 OA
ATOM      5  C   UNL     1       3.814  -4.060  -4.358  0.00  0.00    +0.128 C 
ATOM      6  C   UNL     1       2.703  -3.387  -4.673  0.00  0.00    +0.088 C 
ENDROOT
BRANCH   1  10
ATOM      7  C   UNL     1       0.829  -0.241  -1.303  0.00  0.00    -0.045 A 
ATOM      8  C   UNL     1       0.302   0.009  -2.556  0.00  0.00    +0.004 A 
ATOM      9  C   UNL     1       0.907  -0.523  -3.679  0.00  0.00    +0.005 A 
ATOM     10  C   UNL     1       2.040  -1.305  -3.549  0.00  0.00    -0.034 A 
ATOM     11  C   UNL     1       2.567  -1.554  -2.295  0.00  0.00    +0.005 A 
ATOM     12  C   UNL     1       1.964  -1.018  -1.173  0.00  0.00    +0.004 A 
BRANCH   7  14
ATOM     13  C   UNL     1       0.154   1.866  -0.182  0.00  0.00    +0.012 C 
ATOM     14  C   UNL     1       0.168   0.340  -0.079  0.00  0.00    +0.013 C 
ATOM     15  C   UNL     1      -1.268  -0.178   0.020  0.00  0.00    +0.012 C 
ENDBRANCH   7  14
ENDBRANCH   1  10
BRANCH   3  16
ATOM     16  N   UNL     1       6.436  -1.674  -4.636  0.00  0.00    -0.328 N 
ATOM     17  H   UNL     1       6.580  -0.764  -4.940  0.00  0.00    +0.145 HD
ATOM     18  H   UNL     1       7.193  -2.233  -4.402  0.00  0.00    +0.145 HD
ENDBRANCH   3  16
BRANCH   6  19
ATOM     19  C   UNL     1       1.505  -4.102  -4.918  0.00  0.00    +0.339 C 
ATOM     20  O   UNL     1       1.147  -4.316  -6.061  0.00  0.00    -0.245 OA
BRANCH  19  21
ATOM     21  O   UNL     1       0.762  -4.548  -3.884  0.00  0.00    -0.465 OA
ATOM     22  C   UNL     1      -0.434  -5.262  -4.205  0.00  0.00    +0.280 C 
ENDBRANCH  19  21
ENDBRANCH   6  19
BRANCH   2  23
ATOM     23  C   UNL     1       4.353  -0.037  -5.314  0.00  0.00    +0.101 C 
ATOM     24  N   UNL     1       4.544   1.025  -5.668  0.00  0.00    -0.191 NA
ENDBRANCH   2  23
BRANCH   5  25
ATOM     25  C   UNL     1       3.760  -5.564  -4.273  0.00  0.00    +0.150 C 
BRANCH  25  26
ATOM     26  S   UNL     1       4.548  -6.281  -5.742  0.00  0.00    -0.097 S 
BRANCH  26  27
ATOM     27  C   UNL     1       4.406  -8.020  -5.495  0.00  0.00    +0.115 A 
ATOM     28  C   UNL     1       4.925  -8.908  -6.455  0.00  0.00    +0.084 A 
ATOM     29  C   UNL     1       4.794 -10.282  -6.232  0.00  0.00    +0.028 A 
ATOM     30  C   UNL     1       4.160 -10.713  -5.074  0.00  0.00    -0.011 A 
ATOM     31  C   UNL     1       3.679  -9.782  -4.176  0.00  0.00    +0.048 A 
ATOM     32  N   UNL     1       3.817  -8.485  -4.408  0.00  0.00    -0.244 NA
ATOM     33  C   UNL     1       2.996 -10.206  -2.899  0.00  0.00    +0.071 C 
ATOM     34  C   UNL     1       2.564 -11.668  -2.998  0.00  0.00    +0.090 C 
ATOM     35  N   UNL     1       3.718 -12.469  -3.437  0.00  0.00    -0.301 NA
ATOM     36  C   UNL     1       4.018 -12.194  -4.845  0.00  0.00    +0.121 C 
ATOM     37  C   UNL     1       3.478 -13.902  -3.220  0.00  0.00    +0.105 C 
BRANCH  28  38
ATOM     38  C   UNL     1       5.573  -8.416  -7.633  0.00  0.00    +0.102 C 
ATOM     39  N   UNL     1       6.087  -8.027  -8.568  0.00  0.00    -0.191 NA
ENDBRANCH  28  38
ENDBRANCH  26  27
ENDBRANCH  25  26
ENDBRANCH   5  25
TORSDOF 10
