REMARK  Name = ZINC41156633
REMARK  8 active torsions:
REMARK  status: ('A' for Active; 'I' for Inactive)
REMARK    1  A    between atoms: C_1  and  C_2
REMARK    2  A    between atoms: C_8  and  C_10
REMARK    3  A    between atoms: N_15  and  C_17
REMARK    4  A    between atoms: C_18  and  C_26
REMARK    5  A    between atoms: C_20  and  C_22
REMARK    6  A    between atoms: C_22  and  C_23
REMARK    7  A    between atoms: C_22  and  C_24
REMARK    8  A    between atoms: C_22  and  C_25
REMARK                            x       y       z     vdW  Elec       q    Type
REMARK                         _______ _______ _______ _____ _____    ______ ____
ROOT
ATOM      1  C   UNL     1      -0.363  -4.126   2.958  0.00  0.00    +0.092 C 
ATOM      2  C   UNL     1       0.950  -4.595   2.328  0.00  0.00    +0.016 C 
ATOM      3  C   UNL     1       1.931  -5.000   3.430  0.00  0.00    +0.020 C 
ATOM      4  C   UNL     1       1.339  -6.162   4.234  0.00  0.00    +0.108 C 
ATOM      5  N   UNL     1       0.010  -5.769   4.723  0.00  0.00    -0.298 N 
ATOM      6  C   UNL     1      -0.982  -5.277   3.757  0.00  0.00    +0.120 C 
ENDROOT
BRANCH   1  14
ATOM      7  C   UNL     1      -2.477   1.597   1.286  0.00  0.00    +0.007 C 
ATOM      8  C   UNL     1      -1.758   0.285   0.965  0.00  0.00    -0.011 C 
ATOM      9  C   UNL     1      -2.786  -0.771   0.552  0.00  0.00    +0.022 C 
ATOM     10  C   UNL     1      -2.060  -2.073   0.198  0.00  0.00    +0.108 C 
ATOM     11  N   UNL     1      -1.213  -2.466   1.333  0.00  0.00    -0.301 N 
ATOM     12  C   UNL     1      -0.253  -1.492   1.869  0.00  0.00    +0.108 C 
ATOM     13  C   UNL     1      -0.999  -0.196   2.204  0.00  0.00    +0.022 C 
ATOM     14  C   UNL     1      -1.317  -3.696   1.873  0.00  0.00    +0.220 C 
ATOM     15  O   UNL     1      -2.177  -4.458   1.486  0.00  0.00    -0.275 OA
ENDBRANCH   1  14
BRANCH   5  16
ATOM     16  C   UNL     1      -0.300  -5.861   6.064  0.00  0.00    +0.227 A 
ATOM     17  C   UNL     1      -0.894  -6.935   6.705  0.00  0.00    +0.201 A 
ATOM     18  N   UNL     1      -1.012  -6.592   8.019  0.00  0.00    -0.200 NA
ATOM     19  C   UNL     1      -0.529  -5.398   8.181  0.00  0.00    +0.204 A 
ATOM     20  O   UNL     1      -0.081  -4.926   7.007  0.00  0.00    -0.424 OA
BRANCH  19  21
ATOM     21  C   UNL     1      -0.473  -4.656   9.492  0.00  0.00    +0.039 C 
ATOM     22  C   UNL     1       0.364  -5.454  10.494  0.00  0.00    +0.020 C 
ATOM     23  C   UNL     1       0.164  -3.283   9.274  0.00  0.00    +0.020 C 
ATOM     24  C   UNL     1      -1.891  -4.480  10.039  0.00  0.00    +0.020 C 
ENDBRANCH  19  21
BRANCH  17  25
ATOM     25  C   UNL     1      -1.306  -8.167   6.103  0.00  0.00    +0.124 C 
ATOM     26  N   UNL     1      -1.633  -9.145   5.626  0.00  0.00    -0.189 NA
ENDBRANCH  17  25
ENDBRANCH   5  16
TORSDOF 4
