REMARK  Name = ZINC22531096
REMARK  14 active torsions:
REMARK  status: ('A' for Active; 'I' for Inactive)
REMARK    1  A    between atoms: C_1  and  C_2
REMARK    2  A    between atoms: C_2  and  N_3
REMARK    3  A    between atoms: N_3  and  C_4
REMARK    4  A    between atoms: N_3  and  S_6
REMARK    5  A    between atoms: C_4  and  C_5
REMARK    6  A    between atoms: S_6  and  C_9
REMARK    7  A    between atoms: C_12  and  S_15
REMARK    8  A    between atoms: S_15  and  N_18
REMARK    9  A    between atoms: N_22  and  C_25
REMARK   10  A    between atoms: C_25  and  C_26
REMARK   11  A    between atoms: N_28  and  C_29
REMARK   12  A    between atoms: C_29  and  C_30
REMARK   13  A    between atoms: C_29  and  C_31
REMARK   14  A    between atoms: C_29  and  C_32
REMARK                            x       y       z     vdW  Elec       q    Type
REMARK                         _______ _______ _______ _____ _____    ______ ____
ROOT
ATOM      1  S   UNL     1      -1.950  -3.332  -0.732  0.00  0.00    +0.061 S 
ATOM      2  O   UNL     1      -2.241  -3.393  -2.121  0.00  0.00    -0.153 OA
ATOM      3  O   UNL     1      -1.939  -4.487   0.096  0.00  0.00    -0.153 OA
ENDROOT
BRANCH   1   4
ATOM      4  N   UNL     1      -0.454  -2.636  -0.592  0.00  0.00    -0.178 NA
ATOM      5  C   UNL     1       0.325  -2.903   0.597  0.00  0.00    +0.107 C 
ATOM      6  C   UNL     1       0.020  -1.826   1.669  0.00  0.00    -0.001 C 
ATOM      7  C   UNL     1       0.575  -0.527   1.242  0.00  0.00    -0.077 C 
ATOM      8  N   UNL     1       0.002  -0.004   0.002  0.00  0.00    +0.386 N 
ATOM      9  C   UNL     1       0.725  -0.507  -1.147  0.00  0.00    -0.061 C 
ATOM     10  C   UNL     1       0.027  -1.768  -1.688  0.00  0.00    +0.091 C 
ATOM     11  H   UNL     1      -1.034  -0.364  -0.078  0.00  0.00    -0.081 HD
BRANCH   8  12
ATOM     12  C   UNL     1      -0.018   1.465   0.010  0.00  0.00    +0.019 C 
BRANCH  12  13
ATOM     13  C   UNL     1       1.396   1.986  -0.001  0.00  0.00    +0.197 C 
ATOM     14  O   UNL     1       2.328   1.211  -0.014  0.00  0.00    -0.278 OA
ATOM     15  N   UNL     1       1.624   3.315   0.004  0.00  0.00    -0.312 N 
ATOM     16  H   UNL     1       0.778   4.018   0.016  0.00  0.00    +0.149 HD
BRANCH  15  17
ATOM     17  C   UNL     1       2.999   3.822  -0.006  0.00  0.00    +0.026 C 
ATOM     18  C   UNL     1       3.715   3.328  -1.265  0.00  0.00    +0.031 C 
ATOM     19  C   UNL     1       2.978   5.352   0.002  0.00  0.00    +0.031 C 
ATOM     20  C   UNL     1       3.739   3.315   1.234  0.00  0.00    +0.031 C 
ENDBRANCH  15  17
ENDBRANCH  12  13
ENDBRANCH   8  12
ENDBRANCH   1   4
BRANCH   1  24
ATOM     21  C   UNL     1      -4.937  -0.461   1.091  0.00  0.00    +0.106 A 
ATOM     22  C   UNL     1      -4.626  -0.373  -0.253  0.00  0.00    +0.030 A 
ATOM     23  C   UNL     1      -3.714  -1.250  -0.810  0.00  0.00    +0.030 A 
ATOM     24  C   UNL     1      -3.112  -2.214  -0.022  0.00  0.00    +0.106 A 
ATOM     25  C   UNL     1      -3.428  -2.305   1.321  0.00  0.00    +0.030 A 
ATOM     26  C   UNL     1      -4.337  -1.425   1.878  0.00  0.00    +0.030 A 
BRANCH  21  27
ATOM     27  S   UNL     1      -6.099   0.658   1.801  0.00  0.00    +0.061 S 
ATOM     28  O   UNL     1      -5.808   0.718   3.190  0.00  0.00    -0.153 OA
ATOM     29  O   UNL     1      -6.109   1.813   0.973  0.00  0.00    -0.153 OA
BRANCH  27  30
ATOM     30  N   UNL     1      -7.596  -0.037   1.661  0.00  0.00    -0.177 NA
BRANCH  30  32
ATOM     31  C   UNL     1      -8.978  -0.080   3.678  0.00  0.00    +0.022 C 
ATOM     32  C   UNL     1      -8.105  -0.902   2.728  0.00  0.00    +0.106 C 
ENDBRANCH  30  32
BRANCH  30  33
ATOM     33  C   UNL     1      -8.411   0.213   0.469  0.00  0.00    +0.106 C 
ATOM     34  C   UNL     1      -8.196  -0.914  -0.542  0.00  0.00    +0.022 C 
ENDBRANCH  30  33
ENDBRANCH  27  30
ENDBRANCH  21  27
ENDBRANCH   1  24
TORSDOF 9
