REMARK  Name = ZINC66782587
REMARK  5 active torsions:
REMARK  status: ('A' for Active; 'I' for Inactive)
REMARK    1  A    between atoms: C_3  and  N_11
REMARK    2  A    between atoms: C_5  and  S_7
REMARK    3  A    between atoms: S_7  and  C_8
REMARK    4  A    between atoms: C_12  and  C_14
REMARK    5  A    between atoms: C_17  and  N_24
REMARK                            x       y       z     vdW  Elec       q    Type
REMARK                         _______ _______ _______ _____ _____    ______ ____
ROOT
ATOM      1  N   UNL     1       3.583   2.134  -0.022  0.00  0.00    -0.280 N 
ATOM      2  C   UNL     1       3.561   3.478  -0.117  0.00  0.00    +0.269 C 
ATOM      3  O   UNL     1       2.499   4.072  -0.103  0.00  0.00    -0.268 OA
ATOM      4  H   UNL     1       4.430   1.666   0.035  0.00  0.00    +0.155 HD
ENDROOT
BRANCH   2   5
ATOM      5  C   UNL     1       4.823   4.229  -0.237  0.00  0.00    +0.155 A 
ATOM      6  C   UNL     1       4.974   5.686  -0.343  0.00  0.00    +0.034 A 
ATOM      7  C   UNL     1       4.108   6.776  -0.368  0.00  0.00    +0.045 A 
ATOM      8  C   UNL     1       4.619   8.039  -0.481  0.00  0.00    +0.127 A 
ATOM      9  C   UNL     1       5.990   8.241  -0.570  0.00  0.00    +0.035 A 
ATOM     10  C   UNL     1       6.857   7.184  -0.548  0.00  0.00    +0.030 A 
ATOM     11  C   UNL     1       6.365   5.888  -0.433  0.00  0.00    +0.067 A 
ATOM     12  N   UNL     1       6.933   4.642  -0.381  0.00  0.00    -0.276 N 
ATOM     13  H   UNL     1       7.888   4.473  -0.422  0.00  0.00    +0.189 HD
ATOM     14  N   UNL     1       6.040   3.728  -0.265  0.00  0.00    -0.168 NA
BRANCH   8  15
ATOM     15  N   UNL     1       3.703   9.201  -0.508  0.00  0.00    +0.056 N 
ATOM     16  O   UNL     1       2.508   9.032  -0.431  0.00  0.00    -0.126 OA
ATOM     17  O   UNL     1       4.149  10.321  -0.608  0.00  0.00    -0.126 OA
ENDBRANCH   8  15
ENDBRANCH   2   5
BRANCH   1  20
ATOM     18  C   UNL     1       1.129  -0.545  -0.597  0.00  0.00    +0.003 A 
ATOM     19  C   UNL     1       2.313   0.168  -0.614  0.00  0.00    +0.023 A 
ATOM     20  C   UNL     1       2.384   1.415  -0.005  0.00  0.00    +0.035 A 
ATOM     21  C   UNL     1       1.264   1.945   0.619  0.00  0.00    +0.038 A 
ATOM     22  C   UNL     1       0.076   1.228   0.634  0.00  0.00    +0.015 A 
ATOM     23  C   UNL     1       0.012  -0.020   0.023  0.00  0.00    +0.015 A 
BRANCH  22  24
ATOM     24  S   UNL     1      -1.349   1.897   1.426  0.00  0.00    -0.056 S 
BRANCH  24  25
ATOM     25  C   UNL     1      -2.621   0.626   1.187  0.00  0.00    +0.404 C 
ATOM     26  F   UNL     1      -2.826   0.422  -0.182  0.00  0.00    -0.197 F 
ATOM     27  F   UNL     1      -2.202  -0.571   1.778  0.00  0.00    -0.197 F 
ENDBRANCH  24  25
ENDBRANCH  22  24
ENDBRANCH   1  20
TORSDOF 5
