REMARK  Name = ZINC16505489
REMARK  10 active torsions:
REMARK  status: ('A' for Active; 'I' for Inactive)
REMARK    1  A    between atoms: C_1  and  C_2
REMARK    2  A    between atoms: C_2  and  C_3
REMARK    3  A    between atoms: C_3  and  C_5
REMARK    4  A    between atoms: C_3  and  N_6
REMARK    5  A    between atoms: N_6  and  C_7
REMARK    6  A    between atoms: C_7  and  C_8
REMARK    7  A    between atoms: C_18  and  C_20
REMARK    8  A    between atoms: C_27  and  C_29
REMARK    9  A    between atoms: C_30  and  C_31
REMARK   10  A    between atoms: C_34  and  N_37
REMARK                            x       y       z     vdW  Elec       q    Type
REMARK                         _______ _______ _______ _____ _____    ______ ____
ROOT
ATOM      1  C   UNL     1      -2.000   1.392   0.469  0.00  0.00    +0.204 C 
ENDROOT
BRANCH   1   2
ATOM      2  C   UNL     1      -2.494   1.055   1.852  0.00  0.00    +0.234 C 
ATOM      3  O   UNL     1      -1.850   1.388   2.824  0.00  0.00    -0.274 OA
ATOM      4  N   UNL     1      -3.652   0.385   2.009  0.00  0.00    -0.289 N 
ATOM      5  C   UNL     1      -4.445  -0.019   0.838  0.00  0.00    +0.114 C 
ATOM      6  C   UNL     1      -4.468  -1.559   0.784  0.00  0.00    +0.062 C 
ATOM      7  C   UNL     1      -4.698  -2.082   2.165  0.00  0.00    -0.003 A 
ATOM      8  C   UNL     1      -4.568  -1.416   3.344  0.00  0.00    -0.012 A 
ATOM      9  C   UNL     1      -4.838  -2.140   4.504  0.00  0.00    +0.013 A 
ATOM     10  C   UNL     1      -5.212  -3.437   4.421  0.00  0.00    +0.046 A 
ATOM     11  S   UNL     1      -5.200  -3.711   2.656  0.00  0.00    -0.101 S 
ATOM     12  C   UNL     1      -4.144   0.051   3.352  0.00  0.00    +0.137 C 
BRANCH  12  13
ATOM     13  C   UNL     1      -5.326   0.922   3.694  0.00  0.00    -0.022 A 
ATOM     14  C   UNL     1      -6.493   0.821   2.961  0.00  0.00    +0.008 A 
ATOM     15  C   UNL     1      -7.579   1.616   3.276  0.00  0.00    +0.038 A 
ATOM     16  C   UNL     1      -7.493   2.522   4.320  0.00  0.00    +0.123 A 
ATOM     17  C   UNL     1      -6.322   2.626   5.051  0.00  0.00    +0.038 A 
ATOM     18  C   UNL     1      -5.239   1.826   4.737  0.00  0.00    +0.008 A 
ATOM     19  F   UNL     1      -8.552   3.303   4.627  0.00  0.00    -0.205 F 
ENDBRANCH  12  13
ENDBRANCH   1   2
BRANCH   1  20
ATOM     20  N   UNL     1      -0.730   2.116   0.567  0.00  0.00    -0.286 N 
ATOM     21  C   UNL     1       0.434   1.438   0.574  0.00  0.00    +0.240 C 
ATOM     22  O   UNL     1       1.483   2.031   0.749  0.00  0.00    -0.271 OA
BRANCH  20  23
ATOM     23  C   UNL     1      -0.727   3.579   0.657  0.00  0.00    +0.074 C 
ATOM     24  C   UNL     1      -1.415   4.011   1.954  0.00  0.00    +0.028 C 
BRANCH  23  26
ATOM     25  C   UNL     1      -0.720   3.838  -1.827  0.00  0.00    +0.005 C 
ATOM     26  C   UNL     1      -1.478   4.166  -0.539  0.00  0.00    +0.019 C 
ENDBRANCH  23  26
ENDBRANCH  20  23
BRANCH  21  27
ATOM     27  C   UNL     1       0.438  -0.013   0.376  0.00  0.00    +0.068 C 
ATOM     28  C   UNL     1       1.607  -0.677   0.276  0.00  0.00    +0.013 C 
BRANCH  28  29
ATOM     29  C   UNL     1       1.610  -2.135   0.077  0.00  0.00    -0.025 A 
ATOM     30  C   UNL     1       0.403  -2.837  -0.002  0.00  0.00    +0.010 A 
ATOM     31  C   UNL     1       0.414  -4.202  -0.193  0.00  0.00    +0.033 A 
ATOM     32  C   UNL     1       1.616  -4.880  -0.296  0.00  0.00    +0.126 A 
ATOM     33  C   UNL     1       2.815  -4.194  -0.213  0.00  0.00    +0.033 A 
ATOM     34  C   UNL     1       2.821  -2.828  -0.027  0.00  0.00    +0.010 A 
BRANCH  32  35
ATOM     35  N   UNL     1       1.619  -6.347  -0.495  0.00  0.00    +0.056 N 
ATOM     36  O   UNL     1       2.676  -6.947  -0.586  0.00  0.00    -0.126 OA
ATOM     37  O   UNL     1       0.566  -6.954  -0.569  0.00  0.00    -0.126 OA
ENDBRANCH  32  35
ENDBRANCH  28  29
ENDBRANCH  21  27
ENDBRANCH   1  20
TORSDOF 8
