REMARK  Name = ZINC09410170
REMARK  6 active torsions:
REMARK  status: ('A' for Active; 'I' for Inactive)
REMARK    1  A    between atoms: C_4  and  C_7
REMARK    2  A    between atoms: C_12  and  C_13
REMARK    3  A    between atoms: C_16  and  O_20
REMARK    4  A    between atoms: C_18  and  O_19
REMARK    5  A    between atoms: O_20  and  C_21
REMARK    6  A    between atoms: C_21  and  C_22
REMARK                            x       y       z     vdW  Elec       q    Type
REMARK                         _______ _______ _______ _____ _____    ______ ____
ROOT
ATOM      1  C   UNL     1      -5.757  -2.696  -0.282  0.00  0.00    +0.043 A 
ATOM      2  C   UNL     1      -6.132  -1.352  -0.228  0.00  0.00    +0.017 A 
ATOM      3  C   UNL     1      -5.180  -0.366  -0.365  0.00  0.00    +0.046 A 
ATOM      4  C   UNL     1      -3.847  -0.704  -0.570  0.00  0.00    +0.124 A 
ATOM      5  C   UNL     1      -3.465  -2.036  -0.625  0.00  0.00    +0.091 A 
ATOM      6  C   UNL     1      -4.413  -3.035  -0.482  0.00  0.00    +0.129 A 
ENDROOT
BRANCH   1  12
ATOM      7  C   UNL     1      -7.679  -3.732   0.953  0.00  0.00    +0.026 A 
ATOM      8  C   UNL     1      -8.622  -4.756   1.047  0.00  0.00    +0.125 A 
ATOM      9  N   UNL     1      -8.630  -5.711   0.133  0.00  0.00    -0.222 NA
ATOM     10  C   UNL     1      -7.761  -5.707  -0.869  0.00  0.00    +0.213 A 
ATOM     11  N   UNL     1      -6.851  -4.756  -1.005  0.00  0.00    -0.214 NA
ATOM     12  C   UNL     1      -6.776  -3.757  -0.128  0.00  0.00    +0.087 A 
ATOM     13  N   UNL     1      -7.808  -6.729  -1.801  0.00  0.00    -0.327 N 
ATOM     14  H   UNL     1      -7.179  -6.740  -2.540  0.00  0.00    +0.145 HD
ATOM     15  H   UNL     1      -8.469  -7.433  -1.716  0.00  0.00    +0.145 HD
BRANCH   7  19
ATOM     16  C   UNL     1      -7.545  -0.616   3.841  0.00  0.00    +0.000 A 
ATOM     17  C   UNL     1      -8.717  -0.864   3.149  0.00  0.00    +0.001 A 
ATOM     18  C   UNL     1      -8.767  -1.874   2.210  0.00  0.00    +0.008 A 
ATOM     19  C   UNL     1      -7.633  -2.645   1.959  0.00  0.00    -0.014 A 
ATOM     20  C   UNL     1      -6.456  -2.394   2.664  0.00  0.00    +0.008 A 
ATOM     21  C   UNL     1      -6.417  -1.378   3.596  0.00  0.00    +0.001 A 
ENDBRANCH   7  19
ENDBRANCH   1  12
BRANCH   6  22
ATOM     22  O   UNL     1      -4.041  -4.340  -0.537  0.00  0.00    -0.506 OA
ATOM     23  H   UNL     1      -3.803  -4.717   0.321  0.00  0.00    +0.292 HD
ENDBRANCH   6  22
BRANCH   4  24
ATOM     24  O   UNL     1      -2.915   0.274  -0.710  0.00  0.00    -0.487 OA
BRANCH  24  25
ATOM     25  C   UNL     1      -3.376   1.624  -0.642  0.00  0.00    +0.266 C 
BRANCH  25  26
ATOM     26  C   UNL     1      -2.210   2.563  -0.817  0.00  0.00    +0.008 A 
ATOM     27  C   UNL     1      -0.938   2.056  -1.006  0.00  0.00    +0.011 A 
ATOM     28  C   UNL     1       0.132   2.915  -1.173  0.00  0.00    +0.039 A 
ATOM     29  C   UNL     1      -0.070   4.285  -1.145  0.00  0.00    +0.125 A 
ATOM     30  C   UNL     1      -1.343   4.793  -0.950  0.00  0.00    +0.058 A 
ATOM     31  C   UNL     1      -2.412   3.931  -0.783  0.00  0.00    +0.050 A 
ATOM     32 CL   UNL     1      -4.009   4.566  -0.538  0.00  0.00    -0.083 Cl
ATOM     33  F   UNL     1       0.975   5.126  -1.307  0.00  0.00    -0.205 F 
ENDBRANCH  25  26
ENDBRANCH  24  25
ENDBRANCH   4  24
TORSDOF 6
