REMARK  Name = ZINC24920210
REMARK  6 active torsions:
REMARK  status: ('A' for Active; 'I' for Inactive)
REMARK    1  A    between atoms: C_1  and  C_2
REMARK    2  A    between atoms: C_7  and  N_12
REMARK    3  A    between atoms: C_9  and  C_11
REMARK    4  A    between atoms: C_13  and  C_15
REMARK    5  A    between atoms: C_18  and  S_20
REMARK    6  A    between atoms: S_20  and  N_23
REMARK                            x       y       z     vdW  Elec       q    Type
REMARK                         _______ _______ _______ _____ _____    ______ ____
ROOT
ATOM      1  C   UNL     1      -0.018   1.462   0.010  0.00  0.00    +0.192 A 
ATOM      2  C   UNL     1       1.076   2.280   0.004  0.00  0.00    +0.057 A 
ATOM      3  C   UNL     1       0.595   3.598   0.015  0.00  0.00    +0.072 A 
ATOM      4  C   UNL     1      -0.755   3.529   0.027  0.00  0.00    +0.259 A 
ATOM      5  O   UNL     1      -1.120   2.240   0.019  0.00  0.00    -0.432 OA
ENDROOT
BRANCH   1   7
ATOM      6  N   UNL     1      -1.156  -0.694   0.009  0.00  0.00    -0.306 N 
ATOM      7  C   UNL     1       0.002  -0.004   0.002  0.00  0.00    +0.280 C 
ATOM      8  O   UNL     1       1.064  -0.598  -0.011  0.00  0.00    -0.267 OA
ATOM      9  H   UNL     1      -2.116  -0.157   0.021  0.00  0.00    +0.149 HD
BRANCH   6  15
ATOM     10  C   UNL     1      -1.213  -4.718   1.425  0.00  0.00    +0.008 C 
ATOM     11  C   UNL     1      -2.410  -4.220   0.612  0.00  0.00    -0.009 C 
ATOM     12  C   UNL     1      -2.291  -4.720  -0.829  0.00  0.00    +0.003 C 
ATOM     13  C   UNL     1      -0.996  -4.189  -1.448  0.00  0.00    +0.002 C 
ATOM     14  C   UNL     1      -1.017  -2.659  -1.440  0.00  0.00    +0.022 C 
ATOM     15  C   UNL     1      -1.136  -2.159   0.001  0.00  0.00    +0.076 C 
ATOM     16  C   UNL     1      -2.430  -2.690   0.621  0.00  0.00    +0.009 C 
ATOM     17  C   UNL     1      -2.549  -2.189   2.061  0.00  0.00    +0.009 C 
ENDBRANCH   6  15
ENDBRANCH   1   7
BRANCH   4  18
ATOM     18  S   UNL     1      -1.853   4.907   0.044  0.00  0.00    +0.094 S 
ATOM     19  O   UNL     1      -3.075   4.445   0.604  0.00  0.00    -0.150 OA
ATOM     20  O   UNL     1      -1.127   5.998   0.593  0.00  0.00    -0.150 OA
BRANCH  18  21
ATOM     21  N   UNL     1      -2.173   5.297  -1.534  0.00  0.00    -0.174 NA
ATOM     22  C   UNL     1      -1.408   6.249  -2.353  0.00  0.00    +0.109 C 
ATOM     23  C   UNL     1      -2.084   6.307  -3.739  0.00  0.00    +0.018 C 
ATOM     24  C   UNL     1      -3.527   5.822  -3.440  0.00  0.00    +0.018 C 
ATOM     25  C   UNL     1      -3.275   4.753  -2.347  0.00  0.00    +0.109 C 
ENDBRANCH  18  21
ENDBRANCH   4  18
TORSDOF 4
