REMARK  Name = ZINC36765607
REMARK  4 active torsions:
REMARK  status: ('A' for Active; 'I' for Inactive)
REMARK    1  A    between atoms: C_4  and  C_7
REMARK    2  A    between atoms: C_7  and  C_9
REMARK    3  A    between atoms: C_11  and  C_14
REMARK    4  A    between atoms: C_14  and  C_15
REMARK                            x       y       z     vdW  Elec       q    Type
REMARK                         _______ _______ _______ _____ _____    ______ ____
ROOT
ATOM      1  C   UNL     1       3.843  -1.470  -1.331  0.00  0.00    +0.250 A 
ATOM      2  N   UNL     1       4.605  -1.143  -2.337  0.00  0.00    -0.194 NA
ATOM      3  C   UNL     1       4.478  -2.040  -3.320  0.00  0.00    +0.176 A 
ATOM      4  N   UNL     1       3.628  -2.955  -2.950  0.00  0.00    -0.061 NA
ATOM      5  O   UNL     1       3.202  -2.603  -1.642  0.00  0.00    -0.336 OA
ENDROOT
BRANCH   1   6
ATOM      6  C   UNL     1       3.711  -0.707  -0.038  0.00  0.00    +0.199 C 
ATOM      7 CL   UNL     1       3.774  -1.858   1.349  0.00  0.00    -0.107 Cl
BRANCH   6  11
ATOM      8  C   UNL     1      -0.017   1.378   0.010  0.00  0.00    +0.000 A 
ATOM      9  C   UNL     1       1.171   2.086   0.002  0.00  0.00    +0.000 A 
ATOM     10  C   UNL     1       2.377   1.411  -0.013  0.00  0.00    +0.005 A 
ATOM     11  C   UNL     1       2.396   0.029  -0.020  0.00  0.00    -0.021 A 
ATOM     12  C   UNL     1       1.208  -0.679  -0.012  0.00  0.00    +0.005 A 
ATOM     13  C   UNL     1       0.002  -0.004   0.002  0.00  0.00    +0.000 A 
ENDBRANCH   6  11
ENDBRANCH   1   6
BRANCH   3  14
ATOM     14  C   UNL     1       5.200  -2.000  -4.642  0.00  0.00    +0.114 C 
BRANCH  14  15
ATOM     15  C   UNL     1       6.504  -2.748  -4.526  0.00  0.00    -0.039 A 
ATOM     16  C   UNL     1       7.650  -2.081  -4.136  0.00  0.00    +0.004 A 
ATOM     17  C   UNL     1       8.846  -2.766  -4.029  0.00  0.00    +0.001 A 
ATOM     18  C   UNL     1       8.896  -4.118  -4.312  0.00  0.00    +0.015 A 
ATOM     19  C   UNL     1       7.749  -4.785  -4.702  0.00  0.00    +0.018 A 
ATOM     20  C   UNL     1       6.551  -4.100  -4.804  0.00  0.00    +0.019 A 
ATOM     21 BR   UNL     1       7.816  -6.635  -5.090  0.00  0.00    -0.050 Br
ENDBRANCH  14  15
ENDBRANCH   3  14
TORSDOF 4
