REMARK  Name = ZINC19637075
REMARK  13 active torsions:
REMARK  status: ('A' for Active; 'I' for Inactive)
REMARK    1  A    between atoms: C_1  and  C_2
REMARK    2  A    between atoms: C_2  and  C_3
REMARK    3  A    between atoms: C_3  and  C_5
REMARK    4  A    between atoms: C_3  and  C_6
REMARK    5  A    between atoms: C_9  and  O_12
REMARK    6  A    between atoms: O_12  and  C_13
REMARK    7  A    between atoms: C_13  and  C_14
REMARK    8  A    between atoms: N_16  and  C_17
REMARK    9  A    between atoms: C_18  and  C_31
REMARK   10  A    between atoms: C_23  and  C_27
REMARK   11  A    between atoms: C_27  and  C_28
REMARK   12  A    between atoms: C_27  and  C_29
REMARK   13  A    between atoms: C_27  and  C_30
REMARK                            x       y       z     vdW  Elec       q    Type
REMARK                         _______ _______ _______ _____ _____    ______ ____
ROOT
ATOM      1  C   UNL     1      -2.330 -10.359   2.446  0.00  0.00    +0.084 A 
ATOM      2  C   UNL     1      -2.829 -11.288   3.346  0.00  0.00    +0.068 A 
ATOM      3  C   UNL     1      -2.573 -12.690   3.065  0.00  0.00    -0.023 A 
ATOM      4  C   UNL     1      -1.865 -12.906   1.936  0.00  0.00    -0.004 A 
ATOM      5  S   UNL     1      -1.565 -11.292   1.278  0.00  0.00    -0.077 S 
ATOM      6  C   UNL     1      -1.442 -14.230   1.379  0.00  0.00    +0.046 C 
ATOM      7  C   UNL     1      -1.607 -15.290   2.478  0.00  0.00    -0.000 C 
ATOM      8  C   UNL     1      -2.991 -15.133   3.114  0.00  0.00    +0.009 C 
ATOM      9  C   UNL     1      -3.044 -13.844   3.937  0.00  0.00    +0.037 C 
ENDROOT
BRANCH   2  10
ATOM     10  C   UNL     1      -3.584 -10.872   4.533  0.00  0.00    +0.244 C 
ATOM     11  O   UNL     1      -4.793 -10.753   4.474  0.00  0.00    -0.270 OA
ATOM     12  N   UNL     1      -2.938 -10.622   5.689  0.00  0.00    -0.325 N 
ATOM     13  H   UNL     1      -1.974 -10.717   5.736  0.00  0.00    +0.145 HD
ATOM     14  H   UNL     1      -3.437 -10.347   6.474  0.00  0.00    +0.145 HD
ENDBRANCH   2  10
BRANCH   1  17
ATOM     15  C   UNL     1      -1.895  -8.222   1.524  0.00  0.00    +0.255 C 
ATOM     16  O   UNL     1      -1.304  -8.750   0.605  0.00  0.00    -0.272 OA
ATOM     17  N   UNL     1      -2.442  -8.978   2.496  0.00  0.00    -0.277 N 
ATOM     18  H   UNL     1      -2.914  -8.556   3.231  0.00  0.00    +0.155 HD
BRANCH  15  19
ATOM     19  C   UNL     1      -2.017  -6.721   1.577  0.00  0.00    +0.324 C 
BRANCH  19  20
ATOM     20  O   UNL     1      -1.361  -6.149   0.444  0.00  0.00    -0.483 OA
BRANCH  20  24
ATOM     21  C   UNL     1      -1.414  -2.036   0.129  0.00  0.00    -0.044 A 
ATOM     22  C   UNL     1      -0.779  -2.794  -0.838  0.00  0.00    +0.007 A 
ATOM     23  C   UNL     1      -0.760  -4.172  -0.735  0.00  0.00    +0.046 A 
ATOM     24  C   UNL     1      -1.378  -4.794   0.340  0.00  0.00    +0.121 A 
ATOM     25  C   UNL     1      -2.013  -4.031   1.309  0.00  0.00    +0.046 A 
ATOM     26  C   UNL     1      -2.025  -2.654   1.204  0.00  0.00    +0.007 A 
BRANCH  21  27
ATOM     27  C   UNL     1      -1.433  -0.534   0.013  0.00  0.00    +0.016 C 
ATOM     28  C   UNL     1      -2.135  -0.131  -1.286  0.00  0.00    +0.012 C 
BRANCH  27  30
ATOM     29  C   UNL     1      -0.019   1.526   0.010  0.00  0.00    +0.004 C 
ATOM     30  C   UNL     1       0.002  -0.004   0.002  0.00  0.00    +0.004 C 
ENDBRANCH  27  30
ENDBRANCH  21  27
ENDBRANCH  20  24
ENDBRANCH  19  20
ENDBRANCH  15  19
ENDBRANCH   1  17
BRANCH   7  31
ATOM     31  C   UNL     1      -1.476 -16.687   1.867  0.00  0.00    -0.035 C 
ATOM     32  C   UNL     1      -0.097 -16.834   1.222  0.00  0.00    +0.011 C 
ATOM     33  C   UNL     1      -1.641 -17.741   2.964  0.00  0.00    +0.011 C 
ATOM     34  C   UNL     1      -2.560 -16.882   0.805  0.00  0.00    +0.011 C 
ENDBRANCH   7  31
TORSDOF 8
