REMARK  Name = ZINC59590028
REMARK  6 active torsions:
REMARK  status: ('A' for Active; 'I' for Inactive)
REMARK    1  A    between atoms: C_2  and  C_3
REMARK    2  A    between atoms: C_3  and  O_4
REMARK    3  A    between atoms: O_4  and  C_5
REMARK    4  A    between atoms: C_10  and  C_11
REMARK    5  A    between atoms: C_17  and  S_24
REMARK    6  A    between atoms: S_24  and  N_27
REMARK                            x       y       z     vdW  Elec       q    Type
REMARK                         _______ _______ _______ _____ _____    ______ ____
ROOT
ATOM      1  C   UNL     1       3.965   2.961  -0.020  0.00  0.00    +0.194 C 
ATOM      2  N   UNL     1       3.680   1.772  -0.820  0.00  0.00    -0.322 N 
ATOM      3  C   UNL     1       3.528   1.799  -2.204  0.00  0.00    +0.057 A 
ATOM      4  C   UNL     1       2.827   0.766  -2.823  0.00  0.00    +0.047 A 
ATOM      5  C   UNL     1       2.674   0.755  -4.195  0.00  0.00    +0.069 A 
ATOM      6  C   UNL     1       3.216   1.769  -4.965  0.00  0.00    +0.125 A 
ATOM      7  C   UNL     1       3.907   2.800  -4.357  0.00  0.00    +0.060 A 
ATOM      8  C   UNL     1       4.055   2.818  -2.985  0.00  0.00    +0.128 A 
ATOM      9  S   UNL     1       4.906   4.160  -2.210  0.00  0.00    +0.062 S 
ATOM     10  O   UNL     1       6.200   4.223  -2.792  0.00  0.00    -0.153 OA
ATOM     11  O   UNL     1       4.013   5.266  -2.198  0.00  0.00    -0.153 OA
ATOM     12  N   UNL     1       5.108   3.677  -0.623  0.00  0.00    -0.166 NA
ATOM     13 CL   UNL     1       1.798  -0.536  -4.956  0.00  0.00    -0.081 Cl
ATOM     14  H   UNL     1       3.592   0.921  -0.364  0.00  0.00    +0.148 HD
ATOM     15  H   UNL     1       5.923   3.854  -0.128  0.00  0.00    +0.150 HD
ENDROOT
BRANCH   1  21
ATOM     16  C   UNL     1       1.482   3.312   0.006  0.00  0.00    +0.128 A 
ATOM     17  C   UNL     1       0.372   4.143   0.027  0.00  0.00    +0.046 A 
ATOM     18  C   UNL     1       0.537   5.514   0.033  0.00  0.00    +0.004 A 
ATOM     19  C   UNL     1       1.808   6.059   0.018  0.00  0.00    +0.001 A 
ATOM     20  C   UNL     1       2.916   5.233  -0.003  0.00  0.00    +0.010 A 
ATOM     21  C   UNL     1       2.756   3.861  -0.004  0.00  0.00    +0.030 A 
BRANCH  16  22
ATOM     22  O   UNL     1       1.323   1.962   0.000  0.00  0.00    -0.479 OA
BRANCH  22  23
ATOM     23  C   UNL     1      -0.018   1.468   0.010  0.00  0.00    +0.317 C 
BRANCH  23  25
ATOM     24  C   UNL     1       0.018  -1.178  -0.004  0.00  0.00    +0.007 C 
ATOM     25  C   UNL     1       0.002  -0.004   0.002  0.00  0.00    -0.065 C 
ENDBRANCH  23  25
ENDBRANCH  22  23
ENDBRANCH  16  22
ENDBRANCH   1  21
BRANCH   6  26
ATOM     26  S   UNL     1       3.026   1.745  -6.717  0.00  0.00    +0.057 S 
ATOM     27  O   UNL     1       1.649   1.506  -6.973  0.00  0.00    -0.153 OA
ATOM     28  O   UNL     1       3.707   2.889  -7.214  0.00  0.00    -0.153 OA
BRANCH  26  29
ATOM     29  N   UNL     1       3.849   0.423  -7.280  0.00  0.00    -0.203 NA
ATOM     30  H   UNL     1       4.313  -0.160  -6.660  0.00  0.00    +0.144 HD
ATOM     31  H   UNL     1       3.866   0.231  -8.231  0.00  0.00    +0.144 HD
ENDBRANCH  26  29
ENDBRANCH   6  26
TORSDOF 6
