REMARK  Name = ZINC37637254
REMARK  4 active torsions:
REMARK  status: ('A' for Active; 'I' for Inactive)
REMARK    1  A    between atoms: C_4  and  C_7
REMARK    2  A    between atoms: C_7  and  C_8
REMARK    3  A    between atoms: N_10  and  C_21
REMARK    4  A    between atoms: C_13  and  C_15
REMARK                            x       y       z     vdW  Elec       q    Type
REMARK                         _______ _______ _______ _____ _____    ______ ____
ROOT
ATOM      1  C   UNL     1       4.455  -0.654   1.410  0.00  0.00    +0.056 C 
ATOM      2  N   UNL     1       3.784  -0.314   2.439  0.00  0.00    -0.182 NA
ATOM      3  N   UNL     1       4.106  -1.052   3.575  0.00  0.00    -0.180 N 
ATOM      4  C   UNL     1       5.084  -1.977   3.290  0.00  0.00    +0.107 C 
ATOM      5  N   UNL     1       5.625  -2.830   4.098  0.00  0.00    -0.388 N 
ATOM      6  C   UNL     1       5.382  -1.780   1.816  0.00  0.00    +0.128 C 
ATOM      7  H   UNL     1       5.362  -2.847   5.032  0.00  0.00    +0.157 HD
ATOM      8  H   UNL     1       6.294  -3.451   3.771  0.00  0.00    +0.157 HD
ENDROOT
BRANCH   6   9
ATOM      9  C   UNL     1       5.069  -3.031   1.037  0.00  0.00    -0.032 A 
ATOM     10  C   UNL     1       3.813  -3.602   1.122  0.00  0.00    +0.005 A 
ATOM     11  C   UNL     1       3.526  -4.750   0.408  0.00  0.00    +0.000 A 
ATOM     12  C   UNL     1       4.494  -5.327  -0.393  0.00  0.00    +0.000 A 
ATOM     13  C   UNL     1       5.750  -4.755  -0.479  0.00  0.00    +0.000 A 
ATOM     14  C   UNL     1       6.036  -3.605   0.233  0.00  0.00    +0.005 A 
ENDBRANCH   6   9
BRANCH   3  15
ATOM     15  C   UNL     1       3.517  -0.877   4.832  0.00  0.00    +0.058 A 
ATOM     16  C   UNL     1       4.312  -0.781   5.967  0.00  0.00    +0.025 A 
ATOM     17  C   UNL     1       3.727  -0.609   7.206  0.00  0.00    +0.002 A 
ATOM     18  C   UNL     1       2.351  -0.530   7.318  0.00  0.00    +0.000 A 
ATOM     19  C   UNL     1       1.556  -0.625   6.190  0.00  0.00    +0.002 A 
ATOM     20  C   UNL     1       2.135  -0.792   4.947  0.00  0.00    +0.025 A 
ENDBRANCH   3  15
BRANCH   1  21
ATOM     21  C   UNL     1       4.340  -0.049   0.035  0.00  0.00    +0.088 C 
BRANCH  21  25
ATOM     22  C   UNL     1       1.400   3.050   0.081  0.00  0.00    +0.000 A 
ATOM     23  C   UNL     1       2.722   3.347   0.355  0.00  0.00    +0.000 A 
ATOM     24  C   UNL     1       3.674   2.344   0.341  0.00  0.00    +0.004 A 
ATOM     25  C   UNL     1       3.303   1.044   0.052  0.00  0.00    -0.042 A 
ATOM     26  C   UNL     1       1.981   0.747  -0.222  0.00  0.00    +0.004 A 
ATOM     27  C   UNL     1       1.030   1.750  -0.208  0.00  0.00    +0.000 A 
ENDBRANCH  21  25
ENDBRANCH   1  21
TORSDOF 4
