REMARK  Name = ZINC12035606
REMARK  8 active torsions:
REMARK  status: ('A' for Active; 'I' for Inactive)
REMARK    1  A    between atoms: N_8  and  C_21
REMARK    2  A    between atoms: C_11  and  C_12
REMARK    3  A    between atoms: C_12  and  N_65
REMARK    4  A    between atoms: C_13  and  C_14
REMARK    5  A    between atoms: C_13  and  N_65
REMARK    6  A    between atoms: C_14  and  C_15
REMARK    7  A    between atoms: C_21  and  C_22
REMARK    8  A    between atoms: C_22  and  N_68
REMARK                            x       y       z     vdW  Elec       q    Type
REMARK                         _______ _______ _______ _____ _____    ______ ____
ROOT
ATOM      1  C   UNL     1       0.286   7.528  -6.234  0.00  0.00    +0.017 A 
ATOM      2  C   UNL     1      -0.105   8.235  -7.452  0.00  0.00    +0.003 A 
ATOM      3  C   UNL     1      -0.184   9.633  -7.482  0.00  0.00    +0.059 A 
ATOM      4  C   UNL     1      -0.555  10.272  -8.645  0.00  0.00    +0.167 A 
ATOM      5  C   UNL     1      -0.853   9.528  -9.794  0.00  0.00    +0.168 A 
ATOM      6  C   UNL     1      -0.779   8.148  -9.773  0.00  0.00    +0.076 A 
ATOM      7  C   UNL     1      -0.405   7.489  -8.608  0.00  0.00    +0.056 A 
ATOM      8  N   UNL     1      -0.324   6.112  -8.570  0.00  0.00    -0.310 N 
ATOM      9  C   UNL     1       0.043   5.472  -7.446  0.00  0.00    +0.253 A 
ATOM     10  O   UNL     1       0.110   4.254  -7.450  0.00  0.00    -0.267 OA
ATOM     11  C   UNL     1       0.347   6.172  -6.261  0.00  0.00    +0.001 A 
ATOM     12  O   UNL     1      -1.188  10.394 -10.794  0.00  0.00    -0.453 OA
ATOM     13  C   UNL     1      -0.696  11.679 -10.373  0.00  0.00    +0.466 C 
ATOM     14  O   UNL     1      -0.705  11.598  -8.936  0.00  0.00    -0.453 OA
ENDROOT
BRANCH  11  15
ATOM     15  C   UNL     1       0.748   5.414  -5.022  0.00  0.00    -0.041 C 
BRANCH  15  16
ATOM     16  N   UNL     1      -0.467   4.997  -4.297  0.00  0.00    +0.382 N 
ATOM     17  H   UNL     1      -1.036   4.396  -4.905  0.00  0.00    -0.085 HD
ATOM     18  H   UNL     1      -1.008   5.830  -4.036  0.00  0.00    -0.085 HD
BRANCH  16  19
ATOM     19  C   UNL     1      -0.104   4.251  -3.077  0.00  0.00    -0.078 C 
BRANCH  19  20
ATOM     20  C   UNL     1      -1.382   3.833  -2.347  0.00  0.00    +0.011 C 
BRANCH  20  21
ATOM     21  C   UNL     1      -1.020   3.070  -1.099  0.00  0.00    -0.075 C 
ATOM     22  C   UNL     1      -0.952   3.725   0.015  0.00  0.00    -0.028 C 
ATOM     23  C   UNL     1      -0.595   3.106   1.335  0.00  0.00    +0.027 C 
ATOM     24  C   UNL     1      -0.739   1.585   1.264  0.00  0.00    +0.004 C 
ATOM     25  C   UNL     1      -0.013   1.086   0.008  0.00  0.00    +0.005 C 
ATOM     26  C   UNL     1      -0.761   1.597  -1.225  0.00  0.00    +0.030 C 
ENDBRANCH  20  21
ENDBRANCH  19  20
ENDBRANCH  16  19
ENDBRANCH  15  16
ENDBRANCH  11  15
BRANCH   8  27
ATOM     27  C   UNL     1      -0.636   5.336  -9.773  0.00  0.00    +0.107 C 
BRANCH  27  28
ATOM     28  C   UNL     1       0.638   5.137 -10.596  0.00  0.00    -0.057 C 
BRANCH  28  34
ATOM     29  C   UNL     1      -0.090   2.994 -11.456  0.00  0.00    -0.079 C 
ATOM     30  C   UNL     1      -0.546   2.261 -12.719  0.00  0.00    -0.019 C 
ATOM     31  C   UNL     1       0.607   2.224 -13.726  0.00  0.00    -0.004 C 
ATOM     32  C   UNL     1       1.053   3.656 -14.033  0.00  0.00    -0.019 C 
ATOM     33  C   UNL     1       1.462   4.348 -12.731  0.00  0.00    -0.079 C 
ATOM     34  N   UNL     1       0.302   4.373 -11.816  0.00  0.00    +0.381 N 
ATOM     35  H   UNL     1      -0.486   4.831 -12.289  0.00  0.00    -0.082 HD
ENDBRANCH  28  34
ENDBRANCH  27  28
ENDBRANCH   8  27
TORSDOF 8
