REMARK  Name = ZINC10029616
REMARK  10 active torsions:
REMARK  status: ('A' for Active; 'I' for Inactive)
REMARK    1  A    between atoms: C_1  and  C_2
REMARK    2  A    between atoms: N_4  and  C_5
REMARK    3  A    between atoms: C_8  and  S_11
REMARK    4  A    between atoms: S_11  and  N_14
REMARK    5  A    between atoms: C_17  and  N_20
REMARK    6  A    between atoms: C_21  and  C_23
REMARK    7  A    between atoms: C_24  and  C_25
REMARK    8  A    between atoms: C_28  and  O_31
REMARK    9  A    between atoms: O_31  and  C_32
REMARK   10  A    between atoms: C_32  and  C_33
REMARK                            x       y       z     vdW  Elec       q    Type
REMARK                         _______ _______ _______ _____ _____    ______ ____
ROOT
ATOM      1  N   UNL     1      -5.734   3.587   2.024  0.00  0.00    -0.176 NA
ATOM      2  C   UNL     1      -6.365   2.554   2.857  0.00  0.00    +0.111 C 
ATOM      3  C   UNL     1      -7.586   3.153   3.553  0.00  0.00    +0.039 C 
ATOM      4  C   UNL     1      -7.168   4.410   4.319  0.00  0.00    +0.076 C 
ATOM      5  C   UNL     1      -6.611   5.445   3.340  0.00  0.00    +0.039 C 
ATOM      6  C   UNL     1      -5.374   4.870   2.643  0.00  0.00    +0.111 C 
ENDROOT
BRANCH   4   7
ATOM      7  N   UNL     1      -8.331   4.969   5.012  0.00  0.00    -0.309 N 
ATOM      8  C   UNL     1      -8.682   4.500   6.226  0.00  0.00    +0.237 C 
ATOM      9  O   UNL     1      -8.033   3.612   6.747  0.00  0.00    -0.271 OA
ATOM     10  H   UNL     1      -8.849   5.677   4.597  0.00  0.00    +0.149 HD
BRANCH   8  11
ATOM     11  C   UNL     1      -9.844   5.058   6.917  0.00  0.00    +0.068 C 
ATOM     12  C   UNL     1     -10.196   4.589   8.133  0.00  0.00    +0.013 C 
BRANCH  12  13
ATOM     13  C   UNL     1     -11.364   5.150   8.828  0.00  0.00    -0.025 A 
ATOM     14  C   UNL     1     -12.108   6.175   8.234  0.00  0.00    +0.011 A 
ATOM     15  C   UNL     1     -13.205   6.693   8.886  0.00  0.00    +0.046 A 
ATOM     16  C   UNL     1     -13.565   6.208  10.138  0.00  0.00    +0.122 A 
ATOM     17  C   UNL     1     -12.825   5.194  10.735  0.00  0.00    +0.046 A 
ATOM     18  C   UNL     1     -11.731   4.665  10.088  0.00  0.00    +0.011 A 
BRANCH  16  19
ATOM     19  O   UNL     1     -14.643   6.726  10.779  0.00  0.00    -0.477 OA
BRANCH  19  20
ATOM     20  C   UNL     1     -15.359   7.765  10.109  0.00  0.00    +0.346 C 
BRANCH  20  21
ATOM     21  C   UNL     1     -16.488   8.203  10.947  0.00  0.00    +0.104 C 
ATOM     22  N   UNL     1     -17.359   8.540  11.594  0.00  0.00    -0.193 NA
ENDBRANCH  20  21
ENDBRANCH  19  20
ENDBRANCH  16  19
ENDBRANCH  12  13
ENDBRANCH   8  11
ENDBRANCH   4   7
BRANCH   1  23
ATOM     23  S   UNL     1      -5.439   3.312   0.418  0.00  0.00    +0.061 S 
ATOM     24  O   UNL     1      -5.379   4.587  -0.207  0.00  0.00    -0.153 OA
ATOM     25  O   UNL     1      -6.351   2.304   0.005  0.00  0.00    -0.153 OA
BRANCH  23  29
ATOM     26  C   UNL     1      -1.292   1.520   0.104  0.00  0.00    +0.033 A 
ATOM     27  C   UNL     1      -1.460   2.897   0.056  0.00  0.00    +0.025 A 
ATOM     28  C   UNL     1      -2.727   3.441   0.145  0.00  0.00    +0.030 A 
ATOM     29  C   UNL     1      -3.826   2.615   0.296  0.00  0.00    +0.106 A 
ATOM     30  C   UNL     1      -3.662   1.243   0.350  0.00  0.00    +0.030 A 
ATOM     31  C   UNL     1      -2.398   0.693   0.255  0.00  0.00    +0.025 A 
BRANCH  26  35
ATOM     32  C   UNL     1       2.335   1.032  -0.773  0.00  0.00    +0.109 C 
ATOM     33  C   UNL     1       0.924   1.561  -0.759  0.00  0.00    +0.214 C 
ATOM     34  O   UNL     1       0.631   2.523  -1.436  0.00  0.00    -0.276 OA
ATOM     35  N   UNL     1      -0.011   0.966   0.007  0.00  0.00    -0.286 N 
ATOM     36  H   UNL     1       0.203   0.151   0.488  0.00  0.00    +0.155 HD
ENDBRANCH  26  35
ENDBRANCH  23  29
ENDBRANCH   1  23
TORSDOF 9
