REMARK  Name = ZINC02964018
REMARK  11 active torsions:
REMARK  status: ('A' for Active; 'I' for Inactive)
REMARK    1  A    between atoms: C_1  and  C_2
REMARK    2  A    between atoms: C_2  and  C_3
REMARK    3  A    between atoms: C_3  and  C_4
REMARK    4  A    between atoms: C_4  and  C_5
REMARK    5  A    between atoms: C_5  and  C_6
REMARK    6  A    between atoms: C_6  and  C_7
REMARK    7  A    between atoms: C_11  and  C_26
REMARK    8  A    between atoms: N_13  and  C_14
REMARK    9  A    between atoms: C_17  and  C_20
REMARK   10  A    between atoms: C_24  and  O_25
REMARK   11  A    between atoms: C_28  and  C_31
REMARK                            x       y       z     vdW  Elec       q    Type
REMARK                         _______ _______ _______ _____ _____    ______ ____
ROOT
ATOM      1  C   UNL     1       0.138   7.260   2.778  0.00  0.00    -0.005 A 
ATOM      2  C   UNL     1      -1.080   6.859   2.309  0.00  0.00    +0.018 A 
ATOM      3  C   UNL     1      -1.163   5.786   1.413  0.00  0.00    +0.019 A 
ATOM      4  C   UNL     1      -2.459   5.335   0.902  0.00  0.00    +0.027 A 
ATOM      5  C   UNL     1      -2.496   4.114   0.242  0.00  0.00    +0.068 A 
ATOM      6  C   UNL     1      -1.224   3.376   0.126  0.00  0.00    +0.209 A 
ATOM      7  N   UNL     1      -1.208   2.064   0.019  0.00  0.00    -0.325 N 
ATOM      8  O   UNL     1      -0.070   4.091   0.126  0.00  0.00    -0.439 OA
ATOM      9  C   UNL     1       0.011   5.127   0.998  0.00  0.00    +0.141 A 
ATOM     10  C   UNL     1       1.238   5.545   1.484  0.00  0.00    +0.092 A 
ATOM     11  C   UNL     1       1.300   6.609   2.372  0.00  0.00    +0.124 A 
ATOM     12  H   UNL     1      -2.153   1.508  -0.068  0.00  0.00    +0.169 HD
ENDROOT
BRANCH   7  13
ATOM     13  C   UNL     1      -0.017   1.393   0.016  0.00  0.00    +0.042 A 
ATOM     14  C   UNL     1       0.596   1.055  -1.193  0.00  0.00    +0.026 A 
ATOM     15  C   UNL     1       1.794   0.372  -1.188  0.00  0.00    +0.005 A 
ATOM     16  C   UNL     1       2.390   0.022   0.011  0.00  0.00    -0.050 A 
ATOM     17  C   UNL     1       1.789   0.353   1.212  0.00  0.00    +0.005 A 
ATOM     18  C   UNL     1       0.590   1.035   1.223  0.00  0.00    +0.026 A 
ATOM     19  C   UNL     1       3.699  -0.724   0.007  0.00  0.00    +0.044 C 
ENDBRANCH   7  13
BRANCH   5  20
ATOM     20  C   UNL     1      -3.752   3.575  -0.315  0.00  0.00    +0.114 A 
ATOM     21  N   UNL     1      -3.961   2.440  -0.967  0.00  0.00    -0.239 NA
ATOM     22  C   UNL     1      -5.164   2.109  -1.397  0.00  0.00    +0.079 A 
ATOM     23  C   UNL     1      -6.216   2.959  -1.174  0.00  0.00    +0.075 A 
ATOM     24  S   UNL     1      -5.393   4.282  -0.295  0.00  0.00    -0.075 S 
BRANCH  22  25
ATOM     25  C   UNL     1      -5.375   0.831  -2.119  0.00  0.00    +0.001 A 
ATOM     26  C   UNL     1      -6.647   0.485  -2.571  0.00  0.00    +0.011 A 
ATOM     27  C   UNL     1      -6.837  -0.703  -3.248  0.00  0.00    +0.020 A 
ATOM     28  C   UNL     1      -5.769  -1.555  -3.469  0.00  0.00    +0.041 A 
ATOM     29  C   UNL     1      -4.504  -1.218  -3.017  0.00  0.00    +0.020 A 
ATOM     30  C   UNL     1      -4.303  -0.031  -2.344  0.00  0.00    +0.011 A 
ATOM     31 CL   UNL     1      -6.016  -3.051  -4.314  0.00  0.00    -0.084 Cl
ENDBRANCH  22  25
ENDBRANCH   5  20
BRANCH  11  32
ATOM     32  O   UNL     1       2.503   7.018   2.849  0.00  0.00    -0.506 OA
ATOM     33  H   UNL     1       3.424   6.507   2.530  0.00  0.00    +0.292 HD
ENDBRANCH  11  32
BRANCH   1  34
ATOM     34  C   UNL     1       0.226   8.414   3.743  0.00  0.00    +0.039 C 
BRANCH  34  35
ATOM     35  C   UNL     1       0.381   7.878   5.167  0.00  0.00    +0.005 C 
BRANCH  35  36
ATOM     36  C   UNL     1       0.470   9.050   6.146  0.00  0.00    +0.000 C 
BRANCH  36  37
ATOM     37  C   UNL     1       0.626   8.514   7.571  0.00  0.00    -0.000 C 
BRANCH  37  39
ATOM     38  C   UNL     1       0.870   9.150   9.975  0.00  0.00    +0.004 C 
ATOM     39  C   UNL     1       0.715   9.686   8.550  0.00  0.00    -0.003 C 
ENDBRANCH  37  39
ENDBRANCH  36  37
ENDBRANCH  35  36
ENDBRANCH  34  35
ENDBRANCH   1  34
TORSDOF 9
