REMARK  Name = ZINC67401149
REMARK  6 active torsions:
REMARK  status: ('A' for Active; 'I' for Inactive)
REMARK    1  A    between atoms: C_3  and  N_25
REMARK    2  A    between atoms: C_4  and  C_8
REMARK    3  A    between atoms: C_8  and  N_9
REMARK    4  A    between atoms: C_12  and  C_15
REMARK    5  A    between atoms: C_15  and  C_17
REMARK    6  A    between atoms: C_15  and  O_24
REMARK                            x       y       z     vdW  Elec       q    Type
REMARK                         _______ _______ _______ _____ _____    ______ ____
ROOT
ATOM      1  N   UNL     1       4.213  -0.931   1.235  0.00  0.00    +0.383 N 
ATOM      2  C   UNL     1       3.301  -1.954   1.761  0.00  0.00    -0.078 C 
ATOM      3  C   UNL     1       3.687  -2.294   3.202  0.00  0.00    -0.012 C 
ATOM      4  C   UNL     1       5.123  -2.826   3.229  0.00  0.00    +0.019 C 
ATOM      5  C   UNL     1       6.055  -1.780   2.610  0.00  0.00    -0.012 C 
ATOM      6  C   UNL     1       5.582  -1.460   1.190  0.00  0.00    -0.078 C 
ATOM      7  H   UNL     1       4.186  -0.120   1.834  0.00  0.00    -0.081 HD
ENDROOT
BRANCH   1   8
ATOM      8  C   UNL     1       3.792  -0.552  -0.120  0.00  0.00    -0.038 C 
BRANCH   8  12
ATOM      9  C   UNL     1      -0.053   1.306   0.049  0.00  0.00    +0.005 A 
ATOM     10  C   UNL     1       1.091   2.065   0.213  0.00  0.00    +0.033 A 
ATOM     11  C   UNL     1       2.334   1.464   0.158  0.00  0.00    +0.130 A 
ATOM     12  C   UNL     1       2.436   0.103  -0.060  0.00  0.00    +0.001 A 
ATOM     13  C   UNL     1       1.291  -0.659  -0.224  0.00  0.00    +0.127 A 
ATOM     14  C   UNL     1       0.046  -0.055  -0.170  0.00  0.00    +0.039 A 
ATOM     15  F   UNL     1       1.389  -1.989  -0.438  0.00  0.00    -0.205 F 
BRANCH  11  16
ATOM     16  N   UNL     1       3.558   2.278   0.333  0.00  0.00    +0.057 N 
ATOM     17  O   UNL     1       4.505   1.825   0.933  0.00  0.00    -0.126 OA
ATOM     18  O   UNL     1       3.611   3.396  -0.124  0.00  0.00    -0.126 OA
ENDBRANCH  11  16
ENDBRANCH   8  12
ENDBRANCH   1   8
BRANCH   4  19
ATOM     19  C   UNL     1       5.543  -3.093   4.676  0.00  0.00    +0.147 C 
BRANCH  19  20
ATOM     20  C   UNL     1       6.956  -3.615   4.700  0.00  0.00    -0.019 A 
ATOM     21  C   UNL     1       8.019  -2.732   4.700  0.00  0.00    +0.007 A 
ATOM     22  C   UNL     1       9.316  -3.211   4.723  0.00  0.00    +0.020 A 
ATOM     23  C   UNL     1       9.549  -4.575   4.746  0.00  0.00    +0.041 A 
ATOM     24  C   UNL     1       8.484  -5.458   4.746  0.00  0.00    +0.020 A 
ATOM     25  C   UNL     1       7.188  -4.978   4.729  0.00  0.00    +0.007 A 
ATOM     26 CL   UNL     1      11.177  -5.177   4.773  0.00  0.00    -0.084 Cl
ENDBRANCH  19  20
BRANCH  19  27
ATOM     27  O   UNL     1       5.471  -1.877   5.425  0.00  0.00    -0.387 OA
ATOM     28  H   UNL     1       6.042  -1.173   5.087  0.00  0.00    +0.210 HD
ENDBRANCH  19  27
ENDBRANCH   4  19
TORSDOF 6
