REMARK  Name = ZINC01838729
REMARK  5 active torsions:
REMARK  status: ('A' for Active; 'I' for Inactive)
REMARK    1  A    between atoms: C_1  and  O_2
REMARK    2  A    between atoms: O_2  and  C_3
REMARK    3  A    between atoms: C_10  and  C_24
REMARK    4  A    between atoms: C_16  and  C_18
REMARK    5  A    between atoms: C_27  and  N_30
REMARK                            x       y       z     vdW  Elec       q    Type
REMARK                         _______ _______ _______ _____ _____    ______ ____
ROOT
ATOM      1  C   UNL     1       0.606  -0.608  -1.056  0.00  0.00    +0.163 A 
ATOM      2  C   UNL     1       1.171   0.162  -2.059  0.00  0.00    +0.064 A 
ATOM      3  C   UNL     1       1.787  -0.445  -3.138  0.00  0.00    +0.022 A 
ATOM      4  C   UNL     1       1.846  -1.826  -3.211  0.00  0.00    +0.024 A 
ATOM      5  C   UNL     1       1.289  -2.598  -2.213  0.00  0.00    +0.022 A 
ATOM      6  C   UNL     1       0.659  -1.999  -1.125  0.00  0.00    +0.170 A 
ATOM      7  O   UNL     1       0.072  -2.731  -0.139  0.00  0.00    -0.464 OA
ATOM      8  C   UNL     1       0.181  -4.165  -0.166  0.00  0.00    +0.294 C 
ATOM      9  N   UNL     1       0.119  -4.566  -1.554  0.00  0.00    -0.175 NA
ATOM     10  C   UNL     1       1.349  -4.089  -2.247  0.00  0.00    +0.138 C 
ATOM     11  C   UNL     1       1.178  -4.748  -3.588  0.00  0.00    +0.023 C 
ATOM     12  C   UNL     1       0.400  -5.826  -3.332  0.00  0.00    +0.047 C 
ATOM     13  N   UNL     1       0.096  -5.862  -1.943  0.00  0.00    -0.273 N 
ATOM     14 BR   UNL     1       2.548   0.609  -4.511  0.00  0.00    -0.050 Br
ATOM     15  H   UNL     1      -0.097  -6.640  -1.397  0.00  0.00    +0.167 HD
ENDROOT
BRANCH  12  16
ATOM     16  C   UNL     1      -0.045  -6.818  -4.338  0.00  0.00    -0.003 A 
ATOM     17  C   UNL     1       0.342  -6.686  -5.671  0.00  0.00    +0.010 A 
ATOM     18  C   UNL     1      -0.076  -7.614  -6.604  0.00  0.00    +0.001 A 
ATOM     19  C   UNL     1      -0.877  -8.674  -6.218  0.00  0.00    +0.000 A 
ATOM     20  C   UNL     1      -1.264  -8.810  -4.897  0.00  0.00    +0.001 A 
ATOM     21  C   UNL     1      -0.848  -7.892  -3.954  0.00  0.00    +0.010 A 
ENDBRANCH  12  16
BRANCH   8  22
ATOM     22  C   UNL     1      -0.960  -4.782   0.601  0.00  0.00    +0.009 A 
ATOM     23  C   UNL     1      -2.137  -5.102  -0.049  0.00  0.00    +0.011 A 
ATOM     24  C   UNL     1      -3.184  -5.668   0.654  0.00  0.00    +0.033 A 
ATOM     25  C   UNL     1      -3.053  -5.915   2.008  0.00  0.00    +0.126 A 
ATOM     26  C   UNL     1      -1.876  -5.596   2.658  0.00  0.00    +0.033 A 
ATOM     27  C   UNL     1      -0.828  -5.034   1.954  0.00  0.00    +0.011 A 
BRANCH  25  28
ATOM     28  N   UNL     1      -4.175  -6.520   2.761  0.00  0.00    +0.056 N 
ATOM     29  O   UNL     1      -5.205  -6.798   2.192  0.00  0.00    -0.126 OA
ATOM     30  O   UNL     1      -4.060  -6.736   3.945  0.00  0.00    -0.126 OA
ENDBRANCH  25  28
ENDBRANCH   8  22
BRANCH   1  32
ATOM     31  C   UNL     1      -0.017   1.425   0.010  0.00  0.00    +0.277 C 
ATOM     32  O   UNL     1       0.002  -0.004   0.002  0.00  0.00    -0.491 OA
ENDBRANCH   1  32
TORSDOF 4
