REMARK  Name = ZINC39636088
REMARK  4 active torsions:
REMARK  status: ('A' for Active; 'I' for Inactive)
REMARK    1  A    between atoms: C_1  and  C_2
REMARK    2  A    between atoms: C_8  and  N_10
REMARK    3  A    between atoms: C_11  and  C_13
REMARK    4  A    between atoms: C_24  and  C_26
REMARK                            x       y       z     vdW  Elec       q    Type
REMARK                         _______ _______ _______ _____ _____    ______ ____
ROOT
ATOM      1  C   UNL     1       4.507   1.369   2.420  0.00  0.00    +0.100 C 
ATOM      2  C   UNL     1       5.212   0.198   1.701  0.00  0.00    +0.121 C 
ATOM      3  N   UNL     1       6.444  -0.038   2.489  0.00  0.00    -0.296 N 
ATOM      4  C   UNL     1       6.019   0.136   3.899  0.00  0.00    +0.115 C 
ATOM      5  C   UNL     1       5.038   1.324   3.863  0.00  0.00    -0.004 C 
ATOM      6  C   UNL     1       3.891   1.091   4.841  0.00  0.00    -0.010 C 
ATOM      7  C   UNL     1       4.435   1.109   6.272  0.00  0.00    -0.082 C 
ATOM      8  N   UNL     1       5.076   2.402   6.538  0.00  0.00    +0.379 N 
ATOM      9  C   UNL     1       6.236   2.577   5.655  0.00  0.00    -0.082 C 
ATOM     10  C   UNL     1       5.768   2.622   4.197  0.00  0.00    -0.010 C 
ATOM     11  C   UNL     1       7.675  -0.341   2.029  0.00  0.00    +0.248 C 
ATOM     12  O   UNL     1       8.573  -0.587   2.812  0.00  0.00    -0.270 OA
ATOM     13  H   UNL     1       4.414   3.145   6.372  0.00  0.00    -0.086 HD
ATOM     14  H   UNL     1       5.380   2.434   7.500  0.00  0.00    -0.086 HD
ENDROOT
BRANCH  11  15
ATOM     15  C   UNL     1       7.930  -0.376   0.584  0.00  0.00    +0.052 A 
ATOM     16  C   UNL     1       6.998  -0.855  -0.281  0.00  0.00    +0.059 A 
ATOM     17  S   UNL     1       7.688  -0.713  -1.803  0.00  0.00    -0.096 S 
ATOM     18  C   UNL     1       9.255  -0.008  -1.373  0.00  0.00    +0.020 A 
ATOM     19  C   UNL     1       9.195   0.111   0.029  0.00  0.00    +0.001 A 
ATOM     20  C   UNL     1      10.318   0.657   0.679  0.00  0.00    +0.010 A 
ATOM     21  C   UNL     1      11.414   1.055  -0.045  0.00  0.00    +0.001 A 
ATOM     22  C   UNL     1      11.447   0.932  -1.427  0.00  0.00    +0.001 A 
ATOM     23  C   UNL     1      10.363   0.390  -2.090  0.00  0.00    +0.015 A 
ENDBRANCH  11  15
BRANCH   1  25
ATOM     24  N   UNL     1       2.191   2.239   2.412  0.00  0.00    -0.312 N 
ATOM     25  C   UNL     1       3.013   1.171   2.404  0.00  0.00    +0.218 C 
ATOM     26  O   UNL     1       2.550   0.050   2.385  0.00  0.00    -0.275 OA
ATOM     27  H   UNL     1       2.561   3.136   2.427  0.00  0.00    +0.149 HD
BRANCH  24  34
ATOM     28  C   UNL     1       0.533   3.439   4.461  0.00  0.00    +0.009 C 
ATOM     29  C   UNL     1       0.056   3.267   3.017  0.00  0.00    +0.006 C 
ATOM     30  C   UNL     1      -1.461   3.066   3.001  0.00  0.00    +0.005 C 
ATOM     31  C   UNL     1      -1.937   2.893   1.558  0.00  0.00    +0.000 C 
ATOM     32  C   UNL     1      -1.254   1.673   0.937  0.00  0.00    +0.002 C 
ATOM     33  C   UNL     1       0.262   1.874   0.953  0.00  0.00    +0.022 C 
ATOM     34  C   UNL     1       0.739   2.046   2.397  0.00  0.00    +0.076 C 
ENDBRANCH  24  34
ENDBRANCH   1  25
TORSDOF 3
