REMARK  Name = ZINC08934633
REMARK  17 active torsions:
REMARK  status: ('A' for Active; 'I' for Inactive)
REMARK    1  A    between atoms: C_1  and  C_2
REMARK    2  A    between atoms: C_2  and  C_3
REMARK    3  A    between atoms: C_6  and  C_9
REMARK    4  A    between atoms: C_11  and  C_36
REMARK    5  A    between atoms: C_12  and  N_35
REMARK    6  A    between atoms: C_14  and  C_22
REMARK    7  A    between atoms: C_15  and  C_16
REMARK    8  A    between atoms: C_16  and  O_18
REMARK    9  A    between atoms: O_18  and  C_19
REMARK   10  A    between atoms: C_19  and  C_20
REMARK   11  A    between atoms: C_19  and  C_21
REMARK   12  A    between atoms: C_22  and  S_23
REMARK   13  A    between atoms: S_23  and  C_24
REMARK   14  A    between atoms: C_25  and  C_33
REMARK   15  A    between atoms: C_26  and  C_32
REMARK   16  A    between atoms: C_27  and  C_31
REMARK   17  A    between atoms: C_28  and  C_30
REMARK                            x       y       z     vdW  Elec       q    Type
REMARK                         _______ _______ _______ _____ _____    ______ ____
ROOT
ATOM      1  C   UNL     1      -6.081  -0.839   1.298  0.00  0.00    +0.105 C 
ATOM      2  C   UNL     1      -6.742  -0.868  -0.053  0.00  0.00    +0.098 C 
ATOM      3  C   UNL     1      -6.033  -0.605  -1.177  0.00  0.00    +0.198 C 
ATOM      4  O   UNL     1      -4.724  -0.307  -1.136  0.00  0.00    -0.444 OA
ATOM      5  C   UNL     1      -4.176   0.096   0.020  0.00  0.00    +0.128 C 
ATOM      6  C   UNL     1      -4.763  -0.120   1.204  0.00  0.00    +0.088 C 
ENDROOT
BRANCH   1  10
ATOM      7  C   UNL     1      -5.426  -4.839   2.646  0.00  0.00    -0.048 A 
ATOM      8  C   UNL     1      -6.221  -3.983   3.383  0.00  0.00    +0.004 A 
ATOM      9  C   UNL     1      -6.433  -2.688   2.947  0.00  0.00    +0.005 A 
ATOM     10  C   UNL     1      -5.850  -2.250   1.773  0.00  0.00    -0.034 A 
ATOM     11  C   UNL     1      -5.058  -3.108   1.033  0.00  0.00    +0.005 A 
ATOM     12  C   UNL     1      -4.842  -4.401   1.471  0.00  0.00    +0.004 A 
BRANCH   7  14
ATOM     13  C   UNL     1      -6.274  -7.167   2.542  0.00  0.00    +0.009 C 
ATOM     14  C   UNL     1      -5.194  -6.250   3.121  0.00  0.00    +0.032 C 
ENDBRANCH   7  14
ENDBRANCH   1  10
BRANCH   3  15
ATOM     15  N   UNL     1      -6.671  -0.639  -2.393  0.00  0.00    -0.328 N 
ATOM     16  H   UNL     1      -7.617  -0.849  -2.438  0.00  0.00    +0.145 HD
ATOM     17  H   UNL     1      -6.176  -0.452  -3.205  0.00  0.00    +0.145 HD
ENDBRANCH   3  15
BRANCH   6  18
ATOM     18  C   UNL     1      -4.132   0.335   2.387  0.00  0.00    +0.340 C 
ATOM     19  O   UNL     1      -4.509   1.361   2.921  0.00  0.00    -0.245 OA
BRANCH  18  20
ATOM     20  O   UNL     1      -3.112  -0.368   2.922  0.00  0.00    -0.459 OA
BRANCH  20  21
ATOM     21  C   UNL     1      -2.522   0.149   4.116  0.00  0.00    +0.171 C 
ATOM     22  C   UNL     1      -3.250  -0.423   5.334  0.00  0.00    +0.052 C 
ATOM     23  C   UNL     1      -1.046  -0.249   4.170  0.00  0.00    +0.052 C 
ENDBRANCH  20  21
ENDBRANCH  18  20
ENDBRANCH   6  18
BRANCH   2  24
ATOM     24  C   UNL     1      -8.137  -1.178  -0.153  0.00  0.00    +0.101 C 
ATOM     25  N   UNL     1      -9.243  -1.424  -0.231  0.00  0.00    -0.191 NA
ENDBRANCH   2  24
BRANCH   5  26
ATOM     26  C   UNL     1      -2.857   0.824  -0.016  0.00  0.00    +0.150 C 
BRANCH  26  27
ATOM     27  S   UNL     1      -1.523  -0.360  -0.326  0.00  0.00    -0.097 S 
BRANCH  27  28
ATOM     28  C   UNL     1      -0.138   0.729  -0.317  0.00  0.00    +0.115 A 
ATOM     29  C   UNL     1       1.155   0.218  -0.526  0.00  0.00    +0.087 A 
ATOM     30  C   UNL     1       2.239   1.103  -0.514  0.00  0.00    -0.026 A 
ATOM     31  C   UNL     1       1.988   2.447  -0.296  0.00  0.00    -0.025 A 
ATOM     32  C   UNL     1       0.688   2.874  -0.098  0.00  0.00    +0.043 A 
ATOM     33  N   UNL     1      -0.321   2.025  -0.113  0.00  0.00    -0.244 NA
ATOM     34  C   UNL     1       0.419   4.338   0.139  0.00  0.00    +0.066 C 
ATOM     35  C   UNL     1       3.124   3.437  -0.275  0.00  0.00    +0.046 C 
ATOM     36  C   UNL     1       3.645   0.605  -0.733  0.00  0.00    +0.045 C 
BRANCH  29  37
ATOM     37  C   UNL     1       1.359  -1.182  -0.747  0.00  0.00    +0.102 C 
ATOM     38  N   UNL     1       1.522  -2.293  -0.922  0.00  0.00    -0.191 NA
ENDBRANCH  29  37
ENDBRANCH  27  28
ENDBRANCH  26  27
ENDBRANCH   5  26
TORSDOF 11
