REMARK  Name = ZINC36206365
REMARK  17 active torsions:
REMARK  status: ('A' for Active; 'I' for Inactive)
REMARK    1  A    between atoms: C_1  and  C_2
REMARK    2  A    between atoms: C_2  and  C_3
REMARK    3  A    between atoms: C_3  and  C_4
REMARK    4  A    between atoms: C_4  and  O_6
REMARK    5  A    between atoms: O_6  and  C_7
REMARK    6  A    between atoms: C_7  and  C_8
REMARK    7  A    between atoms: C_8  and  C_10
REMARK    8  A    between atoms: C_8  and  O_35
REMARK    9  A    between atoms: C_10  and  N_11
REMARK   10  A    between atoms: N_11  and  C_12
REMARK   11  A    between atoms: N_11  and  C_32
REMARK   12  A    between atoms: C_12  and  C_13
REMARK   13  A    between atoms: C_19  and  C_24
REMARK   14  A    between atoms: C_28  and  O_30
REMARK   15  A    between atoms: O_30  and  C_31
REMARK   16  A    between atoms: C_32  and  C_33
REMARK   17  A    between atoms: C_32  and  C_34
REMARK                            x       y       z     vdW  Elec       q    Type
REMARK                         _______ _______ _______ _____ _____    ______ ____
ROOT
ATOM      1  C   UNL     1      -6.949  -8.542  -0.071  0.00  0.00    +0.094 A 
ATOM      2  N   UNL     1      -7.384  -9.812   0.132  0.00  0.00    -0.312 N 
ATOM      3  H   UNL     1      -6.736 -10.525   0.243  0.00  0.00    +0.170 HD
ATOM      4  C   UNL     1      -8.697 -10.101   0.184  0.00  0.00    +0.260 A 
ATOM      5  O   UNL     1      -9.072 -11.247   0.368  0.00  0.00    -0.267 OA
ATOM      6  C   UNL     1      -9.648  -9.044   0.021  0.00  0.00    +0.080 A 
ATOM      7  C   UNL     1     -11.105  -9.102   0.037  0.00  0.00    +0.004 A 
ATOM      8  C   UNL     1     -11.805  -7.955  -0.141  0.00  0.00    +0.056 A 
ATOM      9  S   UNL     1     -10.533  -6.723  -0.343  0.00  0.00    -0.076 S 
ATOM     10  C   UNL     1      -9.106  -7.765  -0.185  0.00  0.00    +0.116 A 
ATOM     11  N   UNL     1      -7.792  -7.555  -0.219  0.00  0.00    -0.229 NA
ENDROOT
BRANCH   7  12
ATOM     12  C   UNL     1     -11.807 -10.390   0.245  0.00  0.00    -0.013 A 
ATOM     13  C   UNL     1     -11.456 -11.508  -0.512  0.00  0.00    +0.009 A 
ATOM     14  C   UNL     1     -12.111 -12.707  -0.317  0.00  0.00    +0.004 A 
ATOM     15  C   UNL     1     -13.116 -12.804   0.628  0.00  0.00    +0.045 A 
ATOM     16  C   UNL     1     -13.472 -11.696   1.385  0.00  0.00    +0.121 A 
ATOM     17  C   UNL     1     -12.816 -10.491   1.200  0.00  0.00    +0.054 A 
BRANCH  16  18
ATOM     18  O   UNL     1     -14.461 -11.796   2.312  0.00  0.00    -0.495 OA
ATOM     19  C   UNL     1     -15.091 -13.071   2.454  0.00  0.00    +0.277 C 
ENDBRANCH  16  18
ENDBRANCH   7  12
BRANCH   1  20
ATOM     20  C   UNL     1      -5.469  -8.265  -0.122  0.00  0.00    -0.003 C 
BRANCH  20  21
ATOM     21  N   UNL     1      -5.245  -6.870  -0.522  0.00  0.00    +0.388 N 
ATOM     22  H   UNL     1      -5.991  -6.293  -0.163  0.00  0.00    -0.081 HD
BRANCH  21  23
ATOM     23  C   UNL     1      -5.218  -6.779  -1.988  0.00  0.00    -0.074 C 
ATOM     24  C   UNL     1      -4.042  -7.594  -2.528  0.00  0.00    -0.014 C 
ATOM     25  C   UNL     1      -6.526  -7.333  -2.557  0.00  0.00    -0.014 C 
ENDBRANCH  21  23
BRANCH  21  26
ATOM     26  C   UNL     1      -3.962  -6.404   0.021  0.00  0.00    -0.043 C 
BRANCH  26  27
ATOM     27  C   UNL     1      -3.777  -4.921  -0.307  0.00  0.00    +0.136 C 
BRANCH  27  28
ATOM     28  O   UNL     1      -4.835  -4.167   0.288  0.00  0.00    -0.390 OA
ATOM     29  H   UNL     1      -4.879  -4.243   1.251  0.00  0.00    +0.210 HD
ENDBRANCH  27  28
BRANCH  27  30
ATOM     30  C   UNL     1      -2.434  -4.441   0.246  0.00  0.00    +0.261 C 
BRANCH  30  31
ATOM     31  O   UNL     1      -2.208  -3.089  -0.159  0.00  0.00    -0.462 OA
BRANCH  31  32
ATOM     32  C   UNL     1      -1.065  -2.514   0.247  0.00  0.00    +0.307 C 
ATOM     33  O   UNL     1      -0.282  -3.137   0.923  0.00  0.00    -0.251 OA
BRANCH  32  34
ATOM     34  C   UNL     1      -0.759  -1.090  -0.142  0.00  0.00    +0.120 C 
BRANCH  34  36
ATOM     35  C   UNL     1       0.905   0.764   0.050  0.00  0.00    +0.004 C 
ATOM     36  C   UNL     1       0.594  -0.681   0.444  0.00  0.00    +0.008 C 
ENDBRANCH  34  36
ENDBRANCH  32  34
ENDBRANCH  31  32
ENDBRANCH  30  31
ENDBRANCH  27  30
ENDBRANCH  26  27
ENDBRANCH  21  26
ENDBRANCH  20  21
ENDBRANCH   1  20
TORSDOF 13
