REMARK  Name = ZINC01818901
REMARK  7 active torsions:
REMARK  status: ('A' for Active; 'I' for Inactive)
REMARK    1  A    between atoms: C_1  and  C_2
REMARK    2  A    between atoms: C_2  and  N_28
REMARK    3  A    between atoms: C_8  and  C_27
REMARK    4  A    between atoms: C_19  and  C_26
REMARK    5  A    between atoms: C_22  and  O_25
REMARK    6  A    between atoms: N_28  and  N_29
REMARK    7  A    between atoms: C_30  and  C_32
REMARK                            x       y       z     vdW  Elec       q    Type
REMARK                         _______ _______ _______ _____ _____    ______ ____
ROOT
ATOM      1  C   UNL     1       0.013   1.494   0.064  0.00  0.00    +0.062 C 
ATOM      2  C   UNL     1      -0.014  -0.011  -0.003  0.00  0.00    +0.019 C 
ATOM      3  C   UNL     1      -0.206  -0.715   1.094  0.00  0.00    -0.045 C 
ATOM      4  C   UNL     1      -0.140  -0.220   2.537  0.00  0.00    +0.033 C 
ATOM      5  C   UNL     1      -0.565  -1.417   3.434  0.00  0.00    +0.009 C 
ATOM      6  C   UNL     1      -1.422  -2.240   2.455  0.00  0.00    +0.003 C 
ATOM      7  C   UNL     1      -0.534  -2.183   1.188  0.00  0.00    -0.006 C 
ATOM      8  C   UNL     1      -1.309  -2.789   0.042  0.00  0.00    +0.011 C 
ATOM      9  C   UNL     1      -1.663  -4.242   0.369  0.00  0.00    +0.005 C 
ATOM     10  C   UNL     1      -2.365  -4.426   1.709  0.00  0.00    -0.001 C 
ATOM     11  C   UNL     1      -1.670  -3.676   2.837  0.00  0.00    -0.003 C 
ATOM     12  C   UNL     1      -2.443  -3.761   4.153  0.00  0.00    +0.004 C 
ATOM     13  C   UNL     1      -3.885  -3.303   3.930  0.00  0.00    +0.004 C 
ATOM     14  C   UNL     1      -4.541  -4.290   2.964  0.00  0.00    -0.002 C 
ATOM     15  C   UNL     1      -3.868  -4.213   1.597  0.00  0.00    -0.026 C 
ATOM     16  C   UNL     1      -4.202  -2.898   0.904  0.00  0.00    +0.010 C 
ATOM     17  C   UNL     1      -5.712  -2.698   0.790  0.00  0.00    +0.032 C 
ATOM     18  C   UNL     1      -6.371  -2.743   2.164  0.00  0.00    +0.115 C 
ATOM     19  C   UNL     1      -6.040  -4.045   2.884  0.00  0.00    +0.035 C 
ATOM     20  C   UNL     1      -4.436  -5.372   0.746  0.00  0.00    +0.012 C 
ATOM     21  C   UNL     1       0.779  -2.944   1.384  0.00  0.00    +0.016 C 
ENDROOT
BRANCH  18  22
ATOM     22  O   UNL     1      -5.963  -1.620   2.944  0.00  0.00    -0.392 OA
ATOM     23  H   UNL     1      -6.192  -0.766   2.554  0.00  0.00    +0.210 HD
ENDBRANCH  18  22
BRANCH   2  24
ATOM     24  N   UNL     1       0.163  -0.656  -1.220  0.00  0.00    -0.269 N 
ATOM     25  H   UNL     1       0.233  -1.623  -1.251  0.00  0.00    +0.170 HD
BRANCH  24  26
ATOM     26  N   UNL     1       0.240   0.091  -2.403  0.00  0.00    -0.233 N 
ATOM     27  C   UNL     1       0.305  -0.538  -3.594  0.00  0.00    +0.260 C 
ATOM     28  O   UNL     1       0.391  -1.749  -3.637  0.00  0.00    -0.269 OA
ATOM     29  H   UNL     1       0.245   1.060  -2.366  0.00  0.00    +0.173 HD
BRANCH  27  30
ATOM     30  C   UNL     1       0.273   0.248  -4.849  0.00  0.00    +0.041 A 
ATOM     31  C   UNL     1       0.291   1.645  -4.823  0.00  0.00    +0.033 A 
ATOM     32  C   UNL     1       0.260   2.338  -6.017  0.00  0.00    +0.111 A 
ATOM     33  N   UNL     1       0.213   1.700  -7.169  0.00  0.00    -0.263 NA
ATOM     34  C   UNL     1       0.194   0.383  -7.239  0.00  0.00    +0.111 A 
ATOM     35  C   UNL     1       0.229  -0.388  -6.094  0.00  0.00    +0.033 A 
ENDBRANCH  27  30
ENDBRANCH  24  26
ENDBRANCH   2  24
TORSDOF 4
