REMARK  Name = ZINC45574227
REMARK  5 active torsions:
REMARK  status: ('A' for Active; 'I' for Inactive)
REMARK    1  A    between atoms: C_3  and  O_31
REMARK    2  A    between atoms: C_4  and  N_15
REMARK    3  A    between atoms: C_6  and  S_7
REMARK    4  A    between atoms: S_7  and  N_10
REMARK    5  A    between atoms: C_16  and  C_18
REMARK                            x       y       z     vdW  Elec       q    Type
REMARK                         _______ _______ _______ _____ _____    ______ ____
ROOT
ATOM      1  C   UNL     1      -0.018   1.376  -0.025  0.00  0.00    +0.032 A 
ATOM      2  C   UNL     1       1.091   1.948   0.571  0.00  0.00    +0.049 A 
ATOM      3  C   UNL     1       2.302   1.276   0.570  0.00  0.00    +0.138 A 
ATOM      4  C   UNL     1       2.399   0.023  -0.032  0.00  0.00    +0.077 A 
ATOM      5  C   UNL     1       1.283  -0.544  -0.628  0.00  0.00    +0.055 A 
ATOM      6  C   UNL     1       0.078   0.134  -0.623  0.00  0.00    +0.107 A 
ENDROOT
BRANCH   4   7
ATOM      7  N   UNL     1       3.622  -0.661  -0.037  0.00  0.00    -0.282 N 
ATOM      8  C   UNL     1       3.642  -2.005   0.058  0.00  0.00    +0.224 C 
ATOM      9  O   UNL     1       2.601  -2.628   0.065  0.00  0.00    -0.275 OA
ATOM     10  H   UNL     1       4.454  -0.167  -0.107  0.00  0.00    +0.155 HD
BRANCH   8  11
ATOM     11  C   UNL     1       4.957  -2.734   0.154  0.00  0.00    +0.049 C 
ATOM     12  C   UNL     1       5.710  -2.265   1.401  0.00  0.00    +0.019 C 
ATOM     13  C   UNL     1       7.046  -3.005   1.499  0.00  0.00    -0.008 C 
ATOM     14  C   UNL     1       6.789  -4.511   1.595  0.00  0.00    +0.007 C 
ATOM     15  C   UNL     1       6.036  -4.980   0.348  0.00  0.00    -0.008 C 
ATOM     16  C   UNL     1       4.700  -4.240   0.250  0.00  0.00    +0.019 C 
ATOM     17  C   UNL     1       6.875  -4.684  -0.896  0.00  0.00    +0.026 C 
ATOM     18  C   UNL     1       7.132  -3.179  -0.992  0.00  0.00    +0.047 C 
ATOM     19  C   UNL     1       7.885  -2.709   0.254  0.00  0.00    +0.026 C 
ATOM     20  C   UNL     1       5.797  -2.439  -1.090  0.00  0.00    +0.039 C 
ATOM     21 CL   UNL     1       8.122  -2.830  -2.459  0.00  0.00    -0.118 Cl
ENDBRANCH   8  11
ENDBRANCH   4   7
BRANCH   6  22
ATOM     22  S   UNL     1      -1.340  -0.589  -1.380  0.00  0.00    +0.061 S 
ATOM     23  O   UNL     1      -1.123  -1.993  -1.391  0.00  0.00    -0.153 OA
ATOM     24  O   UNL     1      -2.475   0.002  -0.764  0.00  0.00    -0.153 OA
BRANCH  22  25
ATOM     25  N   UNL     1      -1.352  -0.100  -2.963  0.00  0.00    -0.177 NA
ATOM     26  C   UNL     1      -2.002   1.114  -3.479  0.00  0.00    +0.109 C 
ATOM     27  C   UNL     1      -1.774   1.141  -5.005  0.00  0.00    +0.018 C 
ATOM     28  C   UNL     1      -1.494  -0.347  -5.342  0.00  0.00    +0.018 C 
ATOM     29  C   UNL     1      -0.709  -0.806  -4.085  0.00  0.00    +0.109 C 
ENDBRANCH  22  25
ENDBRANCH   6  22
BRANCH   3  30
ATOM     30  O   UNL     1       3.393   1.837   1.156  0.00  0.00    -0.505 OA
ATOM     31  H   UNL     1       3.496   1.615   2.091  0.00  0.00    +0.292 HD
ENDBRANCH   3  30
TORSDOF 5
