REMARK  Name = ZINC23486454
REMARK  6 active torsions:
REMARK  status: ('A' for Active; 'I' for Inactive)
REMARK    1  A    between atoms: C_1  and  N_2
REMARK    2  A    between atoms: N_2  and  C_3
REMARK    3  A    between atoms: N_2  and  C_4
REMARK    4  A    between atoms: C_7  and  C_10
REMARK    5  A    between atoms: C_14  and  C_26
REMARK    6  A    between atoms: C_30  and  N_32
REMARK                            x       y       z     vdW  Elec       q    Type
REMARK                         _______ _______ _______ _____ _____    ______ ____
ROOT
ATOM      1  C   UNL     1       0.210  -2.747  -4.901  0.00  0.00    +0.065 C 
ATOM      2  C   UNL     1       1.280  -2.316  -5.914  0.00  0.00    +0.094 C 
ATOM      3  N   UNL     1       0.980  -0.960  -6.395  0.00  0.00    -0.304 NA
ATOM      4  C   UNL     1      -0.197  -0.953  -7.279  0.00  0.00    +0.132 C 
ATOM      5  C   UNL     1      -1.330  -1.661  -6.574  0.00  0.00    +0.043 A 
ATOM      6  C   UNL     1      -1.143  -2.467  -5.503  0.00  0.00    -0.009 A 
ATOM      7  C   UNL     1      -2.444  -2.958  -5.104  0.00  0.00    +0.004 A 
ATOM      8  C   UNL     1      -2.865  -3.811  -4.080  0.00  0.00    +0.010 A 
ATOM      9  C   UNL     1      -4.212  -4.062  -3.995  0.00  0.00    +0.001 A 
ATOM     10  C   UNL     1      -5.122  -3.504  -4.878  0.00  0.00    +0.002 A 
ATOM     11  C   UNL     1      -4.734  -2.657  -5.902  0.00  0.00    +0.026 A 
ATOM     12  C   UNL     1      -3.372  -2.383  -6.011  0.00  0.00    +0.047 A 
ATOM     13  N   UNL     1      -2.661  -1.607  -6.886  0.00  0.00    -0.356 N 
ATOM     14  H   UNL     1      -3.043  -1.095  -7.616  0.00  0.00    +0.166 HD
ATOM     15  H   UNL     1       0.856  -0.322  -5.624  0.00  0.00    +0.123 HD
ENDROOT
BRANCH   4  16
ATOM     16  C   UNL     1      -0.594   0.469  -7.583  0.00  0.00    -0.022 A 
ATOM     17  C   UNL     1      -0.573   1.421  -6.581  0.00  0.00    +0.007 A 
ATOM     18  C   UNL     1      -0.936   2.725  -6.859  0.00  0.00    +0.022 A 
ATOM     19  C   UNL     1      -1.321   3.078  -8.140  0.00  0.00    +0.071 A 
ATOM     20  C   UNL     1      -1.341   2.125  -9.143  0.00  0.00    +0.145 A 
ATOM     21  C   UNL     1      -0.973   0.822  -8.865  0.00  0.00    +0.039 A 
ATOM     22 CL   UNL     1      -1.777   4.716  -8.490  0.00  0.00    -0.081 Cl
BRANCH  20  23
ATOM     23  N   UNL     1      -1.753   2.501 -10.514  0.00  0.00    +0.058 N 
ATOM     24  O   UNL     1      -1.771   1.668 -11.389  0.00  0.00    -0.126 OA
ATOM     25  O   UNL     1      -2.071   3.642 -10.758  0.00  0.00    -0.126 OA
ENDBRANCH  20  23
ENDBRANCH   4  16
BRANCH   1  29
ATOM     26  C   UNL     1       0.670  -0.523  -1.280  0.00  0.00    +0.029 A 
ATOM     27  C   UNL     1       1.142  -1.827  -1.361  0.00  0.00    +0.023 A 
ATOM     28  C   UNL     1       0.991  -2.543  -2.533  0.00  0.00    +0.006 A 
ATOM     29  C   UNL     1       0.372  -1.963  -3.624  0.00  0.00    -0.039 A 
ATOM     30  C   UNL     1      -0.100  -0.666  -3.547  0.00  0.00    +0.006 A 
ATOM     31  C   UNL     1       0.043   0.054  -2.377  0.00  0.00    +0.023 A 
BRANCH  26  33
ATOM     32  C   UNL     1       0.316   1.577  -0.012  0.00  0.00    +0.129 C 
ATOM     33  N   UNL     1       0.820   0.204  -0.097  0.00  0.00    -0.336 N 
ATOM     34  C   UNL     1       1.481  -0.407   1.059  0.00  0.00    +0.129 C 
ENDBRANCH  26  33
ENDBRANCH   1  29
TORSDOF 4
