REMARK  Name = ZINC15730760
REMARK  4 active torsions:
REMARK  status: ('A' for Active; 'I' for Inactive)
REMARK    1  A    between atoms: C_1  and  C_2
REMARK    2  A    between atoms: C_9  and  S_15
REMARK    3  A    between atoms: S_15  and  N_18
REMARK    4  A    between atoms: C_21  and  N_57
REMARK                            x       y       z     vdW  Elec       q    Type
REMARK                         _______ _______ _______ _____ _____    ______ ____
ROOT
ATOM      1  S   UNL     1       3.402  -0.819   1.496  0.00  0.00    +0.061 S 
ATOM      2  O   UNL     1       4.396   0.010   2.083  0.00  0.00    -0.153 OA
ATOM      3  O   UNL     1       2.987  -2.044   2.085  0.00  0.00    -0.153 OA
ENDROOT
BRANCH   1  11
ATOM      4  C   UNL     1       8.648  -0.081  -5.303  0.00  0.00    +0.018 C 
ATOM      5  C   UNL     1       7.236  -0.330  -4.767  0.00  0.00    +0.082 C 
ATOM      6  C   UNL     1       7.051  -1.806  -4.559  0.00  0.00    +0.087 C 
ATOM      7  S   UNL     1       5.351  -2.292  -4.305  0.00  0.00    -0.123 S 
ATOM      8  C   UNL     1       4.873  -1.798  -2.698  0.00  0.00    +0.029 A 
ATOM      9  C   UNL     1       3.962  -2.632  -2.034  0.00  0.00    +0.018 A 
ATOM     10  C   UNL     1       3.515  -2.349  -0.766  0.00  0.00    +0.030 A 
ATOM     11  C   UNL     1       3.965  -1.207  -0.128  0.00  0.00    +0.107 A 
ATOM     12  C   UNL     1       4.858  -0.380  -0.765  0.00  0.00    +0.053 A 
ATOM     13  C   UNL     1       5.332  -0.657  -2.058  0.00  0.00    +0.049 A 
ATOM     14  N   UNL     1       6.213   0.268  -2.554  0.00  0.00    -0.284 N 
ATOM     15  C   UNL     1       7.054   0.446  -3.511  0.00  0.00    +0.221 C 
ATOM     16  O   UNL     1       7.809   1.384  -3.368  0.00  0.00    -0.275 OA
ATOM     17  H   UNL     1       6.196   1.058  -1.992  0.00  0.00    +0.155 HD
ENDBRANCH   1  11
BRANCH   1  18
ATOM     18  N   UNL     1       2.043   0.113   1.334  0.00  0.00    -0.177 NA
ATOM     19  C   UNL     1       0.714  -0.508   1.262  0.00  0.00    +0.108 C 
ATOM     20  C   UNL     1       0.002  -0.004   0.002  0.00  0.00    +0.002 C 
ATOM     21  C   UNL     1      -0.019   1.526   0.010  0.00  0.00    -0.066 C 
ATOM     22  C   UNL     1       1.417   2.058  -0.000  0.00  0.00    +0.002 C 
ATOM     23  C   UNL     1       2.144   1.577   1.259  0.00  0.00    +0.108 C 
BRANCH  21  29
ATOM     24  C   UNL     1      -0.059   1.573  -2.410  0.00  0.00    -0.078 C 
ATOM     25  C   UNL     1      -0.902   1.972  -3.623  0.00  0.00    -0.019 C 
ATOM     26  C   UNL     1      -1.085   3.492  -3.634  0.00  0.00    -0.004 C 
ATOM     27  C   UNL     1      -1.741   3.929  -2.321  0.00  0.00    -0.019 C 
ATOM     28  C   UNL     1      -0.873   3.474  -1.146  0.00  0.00    -0.078 C 
ATOM     29  N   UNL     1      -0.757   2.000  -1.178  0.00  0.00    +0.382 N 
ATOM     30  H   UNL     1      -1.699   1.592  -1.171  0.00  0.00    -0.081 HD
ENDBRANCH  21  29
ENDBRANCH   1  18
TORSDOF 3
