REMARK  Name = ZINC01198449
REMARK  7 active torsions:
REMARK  status: ('A' for Active; 'I' for Inactive)
REMARK    1  A    between atoms: C_1  and  C_2
REMARK    2  A    between atoms: C_8  and  C_25
REMARK    3  A    between atoms: C_9  and  C_12
REMARK    4  A    between atoms: N_14  and  N_15
REMARK    5  A    between atoms: C_16  and  C_17
REMARK    6  A    between atoms: C_20  and  O_24
REMARK    7  A    between atoms: C_22  and  O_23
REMARK                            x       y       z     vdW  Elec       q    Type
REMARK                         _______ _______ _______ _____ _____    ______ ____
ROOT
ATOM      1  C   UNL     1       3.212   5.055  -4.437  0.00  0.00    +0.044 C 
ATOM      2  C   UNL     1       2.589   5.296  -3.086  0.00  0.00    -0.050 A 
ATOM      3  C   UNL     1       2.379   6.596  -2.646  0.00  0.00    +0.005 A 
ATOM      4  C   UNL     1       1.802   6.838  -1.419  0.00  0.00    +0.026 A 
ATOM      5  C   UNL     1       1.437   5.770  -0.602  0.00  0.00    +0.048 A 
ATOM      6  C   UNL     1       1.656   4.455  -1.052  0.00  0.00    +0.008 A 
ATOM      7  C   UNL     1       2.234   4.233  -2.304  0.00  0.00    +0.014 A 
ATOM      8  C   UNL     1       1.172   3.566   0.011  0.00  0.00    +0.020 A 
ATOM      9  C   UNL     1       0.707   4.384   1.024  0.00  0.00    +0.112 A 
ATOM     10  N   UNL     1       0.869   5.701   0.649  0.00  0.00    -0.350 N 
ATOM     11  H   UNL     1       0.620   6.468   1.188  0.00  0.00    +0.166 HD
ENDROOT
BRANCH   8  12
ATOM     12  C   UNL     1       1.184   2.087   0.002  0.00  0.00    -0.015 A 
ATOM     13  C   UNL     1      -0.017   1.375   0.010  0.00  0.00    +0.008 A 
ATOM     14  C   UNL     1       0.002  -0.004   0.002  0.00  0.00    +0.001 A 
ATOM     15  C   UNL     1       1.208  -0.682  -0.013  0.00  0.00    +0.000 A 
ATOM     16  C   UNL     1       2.402   0.017  -0.021  0.00  0.00    +0.001 A 
ATOM     17  C   UNL     1       2.397   1.396  -0.013  0.00  0.00    +0.008 A 
ENDBRANCH   8  12
BRANCH   9  18
ATOM     18  C   UNL     1       0.133   3.925   2.293  0.00  0.00    +0.280 C 
ATOM     19  O   UNL     1       0.036   2.733   2.522  0.00  0.00    -0.267 OA
ATOM     20  N   UNL     1      -0.287   4.823   3.207  0.00  0.00    -0.202 N 
ATOM     21  H   UNL     1      -0.210   5.773   3.025  0.00  0.00    +0.178 HD
BRANCH  20  22
ATOM     22  N   UNL     1      -0.835   4.385   4.419  0.00  0.00    -0.187 NA
ATOM     23  C   UNL     1      -1.240   5.250   5.300  0.00  0.00    +0.142 C 
BRANCH  23  24
ATOM     24  C   UNL     1      -1.816   4.789   6.574  0.00  0.00    +0.036 A 
ATOM     25  C   UNL     1      -2.252   5.717   7.523  0.00  0.00    +0.016 A 
ATOM     26  C   UNL     1      -2.790   5.282   8.714  0.00  0.00    +0.046 A 
ATOM     27  C   UNL     1      -2.902   3.921   8.976  0.00  0.00    +0.120 A 
ATOM     28  C   UNL     1      -2.472   2.992   8.040  0.00  0.00    +0.091 A 
ATOM     29  C   UNL     1      -1.934   3.417   6.838  0.00  0.00    +0.129 A 
BRANCH  29  30
ATOM     30  O   UNL     1      -1.518   2.508   5.919  0.00  0.00    -0.506 OA
ATOM     31  H   UNL     1      -0.592   2.245   6.016  0.00  0.00    +0.292 HD
ENDBRANCH  29  30
BRANCH  27  32
ATOM     32  O   UNL     1      -3.434   3.500  10.153  0.00  0.00    -0.507 OA
ATOM     33  H   UNL     1      -4.392   3.374  10.128  0.00  0.00    +0.292 HD
ENDBRANCH  27  32
ENDBRANCH  23  24
ENDBRANCH  20  22
ENDBRANCH   9  18
TORSDOF 6
