REMARK  Name = ZINC38904573
REMARK  4 active torsions:
REMARK  status: ('A' for Active; 'I' for Inactive)
REMARK    1  A    between atoms: C_12  and  C_14
REMARK    2  A    between atoms: N_19  and  C_21
REMARK    3  A    between atoms: C_21  and  C_22
REMARK    4  A    between atoms: C_24  and  C_27
REMARK                            x       y       z     vdW  Elec       q    Type
REMARK                         _______ _______ _______ _____ _____    ______ ____
ROOT
ATOM      1  C   UNL     1       6.043  -0.854  -0.489  0.00  0.00    +0.059 C 
ATOM      2  C   UNL     1       5.957  -2.183  -1.244  0.00  0.00    +0.009 C 
ATOM      3  C   UNL     1       7.324  -2.873  -1.199  0.00  0.00    -0.018 C 
ATOM      4  C   UNL     1       8.381  -1.938  -1.790  0.00  0.00    -0.078 C 
ATOM      5  N   UNL     1       8.433  -0.697  -1.009  0.00  0.00    +0.386 N 
ATOM      6  C   UNL     1       7.148   0.007  -1.105  0.00  0.00    -0.065 C 
ATOM      7  H   UNL     1       8.622  -0.916  -0.042  0.00  0.00    -0.081 HD
ENDROOT
BRANCH   1  19
ATOM      8  C   UNL     1       0.234   1.881   0.359  0.00  0.00    +0.002 A 
ATOM      9  C   UNL     1       1.375   2.434  -0.192  0.00  0.00    +0.002 A 
ATOM     10  C   UNL     1       2.561   1.721  -0.198  0.00  0.00    +0.025 A 
ATOM     11  C   UNL     1       2.600   0.451   0.348  0.00  0.00    +0.058 A 
ATOM     12  C   UNL     1       1.448  -0.112   0.901  0.00  0.00    +0.055 A 
ATOM     13  C   UNL     1       0.266   0.611   0.905  0.00  0.00    +0.025 A 
ATOM     14  N   UNL     1       1.500  -1.402   1.439  0.00  0.00    -0.283 N 
ATOM     15  C   UNL     1       2.683  -1.995   1.692  0.00  0.00    +0.235 C 
ATOM     16  O   UNL     1       2.704  -3.131   2.117  0.00  0.00    -0.274 OA
ATOM     17  C   UNL     1       3.979  -1.265   1.451  0.00  0.00    +0.209 C 
ATOM     18  N   UNL     1       3.789  -0.296   0.362  0.00  0.00    -0.261 N 
ATOM     19  C   UNL     1       4.725  -0.130  -0.593  0.00  0.00    +0.222 C 
ATOM     20  O   UNL     1       4.507   0.601  -1.536  0.00  0.00    -0.275 OA
ATOM     21  H   UNL     1       0.676  -1.875   1.632  0.00  0.00    +0.155 HD
ENDBRANCH   1  19
BRANCH   5  22
ATOM     22  C   UNL     1       9.502   0.165  -1.531  0.00  0.00    +0.022 C 
BRANCH  22  23
ATOM     23  C   UNL     1      10.836  -0.501  -1.311  0.00  0.00    +0.211 A 
ATOM     24  N   UNL     1      11.432  -1.305  -2.145  0.00  0.00    -0.193 NA
ATOM     25  C   UNL     1      12.605  -1.715  -1.630  0.00  0.00    +0.202 A 
ATOM     26  N   UNL     1      12.760  -1.165  -0.452  0.00  0.00    -0.056 NA
ATOM     27  O   UNL     1      11.611  -0.361  -0.229  0.00  0.00    -0.340 OA
BRANCH  25  28
ATOM     28  C   UNL     1      13.564  -2.638  -2.288  0.00  0.00    +0.023 A 
ATOM     29  C   UNL     1      13.283  -3.154  -3.552  0.00  0.00    +0.012 A 
ATOM     30  C   UNL     1      14.177  -4.011  -4.159  0.00  0.00    +0.002 A 
ATOM     31  C   UNL     1      15.352  -4.359  -3.516  0.00  0.00    +0.015 A 
ATOM     32  C   UNL     1      15.636  -3.850  -2.261  0.00  0.00    +0.019 A 
ATOM     33  C   UNL     1      14.750  -2.986  -1.647  0.00  0.00    +0.027 A 
ATOM     34 BR   UNL     1      17.243  -4.332  -1.389  0.00  0.00    -0.050 Br
ENDBRANCH  25  28
ENDBRANCH  22  23
ENDBRANCH   5  22
TORSDOF 4
