REMARK  Name = ZINC63407697
REMARK  4 active torsions:
REMARK  status: ('A' for Active; 'I' for Inactive)
REMARK    1  A    between atoms: C_4  and  C_6
REMARK    2  A    between atoms: C_6  and  N_7
REMARK    3  A    between atoms: C_10  and  N_13
REMARK    4  A    between atoms: C_20  and  N_22
REMARK                            x       y       z     vdW  Elec       q    Type
REMARK                         _______ _______ _______ _____ _____    ______ ____
ROOT
ATOM      1  N   UNL     1      -1.613  -6.138  -1.296  0.00  0.00    -0.297 N 
ATOM      2  C   UNL     1      -2.159  -7.002  -2.174  0.00  0.00    +0.302 C 
ATOM      3  O   UNL     1      -2.238  -6.705  -3.350  0.00  0.00    -0.253 OA
ATOM      4  N   UNL     1      -2.619  -8.195  -1.748  0.00  0.00    -0.287 N 
ATOM      5  C   UNL     1      -2.442  -8.609  -0.349  0.00  0.00    +0.109 C 
ATOM      6  C   UNL     1      -1.763  -9.982  -0.324  0.00  0.00    +0.017 C 
ATOM      7  C   UNL     1      -2.574 -10.964  -1.173  0.00  0.00    -0.012 C 
ATOM      8  C   UNL     1      -2.617 -10.474  -2.622  0.00  0.00    -0.051 C 
ATOM      9  C   UNL     1      -3.311  -9.104  -2.672  0.00  0.00    +0.094 C 
ATOM     10  H   UNL     1      -1.484  -6.402  -0.371  0.00  0.00    +0.151 HD
ENDROOT
BRANCH   1  14
ATOM     11  N   UNL     1       0.637  -2.581  -1.520  0.00  0.00    +0.380 N 
ATOM     12  C   UNL     1      -0.728  -2.466  -0.993  0.00  0.00    -0.077 C 
ATOM     13  C   UNL     1      -1.222  -3.842  -0.542  0.00  0.00    +0.004 C 
ATOM     14  C   UNL     1      -1.213  -4.799  -1.737  0.00  0.00    +0.071 C 
ATOM     15  C   UNL     1       0.200  -4.854  -2.324  0.00  0.00    +0.004 C 
ATOM     16  C   UNL     1       0.642  -3.441  -2.709  0.00  0.00    -0.077 C 
ATOM     17  H   UNL     1       1.235  -2.983  -0.813  0.00  0.00    -0.082 HD
BRANCH  11  18
ATOM     18  C   UNL     1       1.136  -1.247  -1.879  0.00  0.00    -0.075 C 
BRANCH  18  22
ATOM     19  C   UNL     1       3.137   1.179  -0.234  0.00  0.00    +0.000 C 
ATOM     20  C   UNL     1       3.042   0.193   0.957  0.00  0.00    +0.000 C 
ATOM     21  C   UNL     1       2.312  -1.023   0.335  0.00  0.00    +0.002 C 
ATOM     22  C   UNL     1       1.272  -0.395  -0.616  0.00  0.00    -0.028 C 
ATOM     23  C   UNL     1       1.797   1.005  -0.978  0.00  0.00    +0.002 C 
ENDBRANCH  18  22
ENDBRANCH  11  18
ENDBRANCH   1  14
BRANCH   8  24
ATOM     24  N   UNL     1      -3.368 -11.433  -3.442  0.00  0.00    +0.383 N 
ATOM     25  C   UNL     1      -3.345 -11.016  -4.867  0.00  0.00    -0.078 C 
ATOM     26  C   UNL     1      -3.645 -12.333  -5.627  0.00  0.00    -0.020 C 
ATOM     27  C   UNL     1      -2.890 -13.393  -4.793  0.00  0.00    -0.020 C 
ATOM     28  C   UNL     1      -2.717 -12.760  -3.399  0.00  0.00    -0.078 C 
ATOM     29  H   UNL     1      -4.320 -11.501  -3.114  0.00  0.00    -0.081 HD
ENDBRANCH   8  24
TORSDOF 4
