REMARK  Name = ZINC04061915
REMARK  11 active torsions:
REMARK  status: ('A' for Active; 'I' for Inactive)
REMARK    1  A    between atoms: C_1  and  C_2
REMARK    2  A    between atoms: C_2  and  C_3
REMARK    3  A    between atoms: C_3  and  C_4
REMARK    4  A    between atoms: C_4  and  N_5
REMARK    5  A    between atoms: C_6  and  C_8
REMARK    6  A    between atoms: C_8  and  N_62
REMARK    7  A    between atoms: C_11  and  O_29
REMARK    8  A    between atoms: C_18  and  C_20
REMARK    9  A    between atoms: C_23  and  O_28
REMARK   10  A    between atoms: C_24  and  O_26
REMARK   11  A    between atoms: O_26  and  C_27
REMARK                            x       y       z     vdW  Elec       q    Type
REMARK                         _______ _______ _______ _____ _____    ______ ____
ROOT
ATOM      1  C   UNL     1       1.403   1.706  -2.486  0.00  0.00    -0.075 C 
ATOM      2  C   UNL     1      -0.010   1.119  -2.487  0.00  0.00    +0.016 C 
ATOM      3  C   UNL     1      -0.752   1.592  -1.233  0.00  0.00    +0.066 C 
ATOM      4  C   UNL     1      -0.013   1.086   0.008  0.00  0.00    +0.035 C 
ATOM      5  C   UNL     1      -0.728   1.579   1.267  0.00  0.00    +0.003 C 
ATOM      6  C   UNL     1      -0.742   3.109   1.278  0.00  0.00    +0.000 C 
ATOM      7  C   UNL     1      -1.485   3.618   0.041  0.00  0.00    +0.005 C 
ATOM      8  C   UNL     1      -0.779   3.123  -1.221  0.00  0.00    +0.011 C 
ATOM      9  C   UNL     1       0.655   3.654  -1.253  0.00  0.00    -0.031 C 
ATOM     10  N   UNL     1       1.312   3.181  -2.490  0.00  0.00    +0.390 N 
ATOM     11  H   UNL     1       0.753   3.478  -3.299  0.00  0.00    -0.080 HD
ENDROOT
BRANCH   9  12
ATOM     12  C   UNL     1       0.632   5.161  -1.257  0.00  0.00    -0.057 A 
ATOM     13  C   UNL     1       0.394   5.845  -2.435  0.00  0.00    +0.006 A 
ATOM     14  C   UNL     1       0.367   7.227  -2.443  0.00  0.00    +0.049 A 
ATOM     15  C   UNL     1       0.589   7.930  -1.270  0.00  0.00    +0.158 A 
ATOM     16  C   UNL     1       0.835   7.243  -0.085  0.00  0.00    +0.161 A 
ATOM     17  C   UNL     1       0.855   5.857  -0.084  0.00  0.00    +0.051 A 
BRANCH  16  18
ATOM     18  O   UNL     1       1.053   7.929   1.068  0.00  0.00    -0.491 OA
ATOM     19  C   UNL     1       1.298   7.157   2.246  0.00  0.00    +0.277 C 
ENDBRANCH  16  18
BRANCH  15  20
ATOM     20  O   UNL     1       0.568   9.290  -1.277  0.00  0.00    -0.503 OA
ATOM     21  H   UNL     1       1.428   9.696  -1.450  0.00  0.00    +0.292 HD
ENDBRANCH  15  20
ENDBRANCH   9  12
BRANCH   3  22
ATOM     22  O   UNL     1      -2.089   1.088  -1.234  0.00  0.00    -0.388 OA
ATOM     23  H   UNL     1      -2.146   0.123  -1.244  0.00  0.00    +0.210 HD
ENDBRANCH   3  22
BRANCH  10  24
ATOM     24  C   UNL     1       2.663   3.769  -2.600  0.00  0.00    +0.019 C 
BRANCH  24  26
ATOM     25  N   UNL     1       4.444   3.898  -4.312  0.00  0.00    -0.317 N 
ATOM     26  C   UNL     1       3.222   3.450  -3.963  0.00  0.00    +0.196 C 
ATOM     27  O   UNL     1       2.572   2.789  -4.745  0.00  0.00    -0.278 OA
ATOM     28  H   UNL     1       4.964   4.426  -3.686  0.00  0.00    +0.149 HD
BRANCH  25  29
ATOM     29  C   UNL     1       4.987   3.588  -5.637  0.00  0.00    +0.104 C 
BRANCH  29  30
ATOM     30  C   UNL     1       6.378   4.210  -5.777  0.00  0.00    +0.018 C 
BRANCH  30  32
ATOM     31  C   UNL     1       8.336   4.508  -7.300  0.00  0.00    +0.004 C 
ATOM     32  C   UNL     1       6.945   3.886  -7.160  0.00  0.00    -0.002 C 
ENDBRANCH  30  32
ENDBRANCH  29  30
ENDBRANCH  25  29
ENDBRANCH  24  26
ENDBRANCH  10  24
TORSDOF 9
