REMARK  Name = ZINC03362028
REMARK  12 active torsions:
REMARK  status: ('A' for Active; 'I' for Inactive)
REMARK    1  A    between atoms: C_1  and  N_2
REMARK    2  A    between atoms: N_2  and  C_3
REMARK    3  A    between atoms: N_2  and  C_4
REMARK    4  A    between atoms: C_7  and  C_10
REMARK    5  A    between atoms: N_14  and  C_28
REMARK    6  A    between atoms: C_15  and  S_17
REMARK    7  A    between atoms: S_17  and  C_18
REMARK    8  A    between atoms: C_18  and  C_19
REMARK    9  A    between atoms: N_21  and  C_22
REMARK   10  A    between atoms: C_22  and  C_23
REMARK   11  A    between atoms: C_31  and  O_34
REMARK   12  A    between atoms: O_34  and  C_35
REMARK                            x       y       z     vdW  Elec       q    Type
REMARK                         _______ _______ _______ _____ _____    ______ ____
ROOT
ATOM      1  C   UNL     1      -4.822  -2.880   0.081  0.00  0.00    +0.041 C 
ATOM      2  C   UNL     1      -6.023  -2.212   0.167  0.00  0.00    +0.129 C 
ATOM      3  C   UNL     1      -6.226  -0.753   0.199  0.00  0.00    +0.275 C 
ATOM      4  O   UNL     1      -5.370   0.112   0.155  0.00  0.00    -0.268 OA
ATOM      5  N   UNL     1      -7.563  -0.577   0.288  0.00  0.00    -0.214 N 
ATOM      6  C   UNL     1      -8.161  -1.813   0.310  0.00  0.00    +0.169 C 
ATOM      7  N   UNL     1      -7.271  -2.767   0.234  0.00  0.00    -0.220 NA
ENDROOT
BRANCH   1  11
ATOM      8  C   UNL     1      -1.187  -0.746   0.409  0.00  0.00    +0.029 A 
ATOM      9  C   UNL     1      -2.287  -0.364   1.172  0.00  0.00    +0.023 A 
ATOM     10  C   UNL     1      -3.464  -1.050   1.069  0.00  0.00    +0.010 A 
ATOM     11  C   UNL     1      -3.563  -2.141   0.194  0.00  0.00    -0.023 A 
ATOM     12  C   UNL     1      -2.452  -2.522  -0.572  0.00  0.00    +0.010 A 
ATOM     13  C   UNL     1      -1.281  -1.826  -0.467  0.00  0.00    +0.023 A 
BRANCH   8  15
ATOM     14  C   UNL     1       1.167  -0.441  -0.289  0.00  0.00    +0.129 C 
ATOM     15  N   UNL     1       0.010  -0.044   0.517  0.00  0.00    -0.336 N 
ATOM     16  C   UNL     1       0.112   1.091   1.437  0.00  0.00    +0.129 C 
ENDBRANCH   8  15
ENDBRANCH   1  11
BRANCH   5  17
ATOM     17  C   UNL     1      -8.226   0.658   0.347  0.00  0.00    +0.044 A 
ATOM     18  C   UNL     1      -8.890   1.035   1.506  0.00  0.00    +0.027 A 
ATOM     19  C   UNL     1      -9.542   2.251   1.564  0.00  0.00    +0.048 A 
ATOM     20  C   UNL     1      -9.535   3.095   0.464  0.00  0.00    +0.127 A 
ATOM     21  C   UNL     1      -8.872   2.719  -0.695  0.00  0.00    +0.048 A 
ATOM     22  C   UNL     1      -8.215   1.506  -0.752  0.00  0.00    +0.027 A 
BRANCH  20  23
ATOM     23  O   UNL     1     -10.178   4.292   0.521  0.00  0.00    -0.434 OA
BRANCH  23  24
ATOM     24  C   UNL     1     -10.129   5.111  -0.649  0.00  0.00    +0.541 C 
ATOM     25  F   UNL     1      -8.797   5.414  -0.951  0.00  0.00    -0.166 F 
ATOM     26  F   UNL     1     -10.707   4.425  -1.723  0.00  0.00    -0.166 F 
ENDBRANCH  23  24
ENDBRANCH  20  23
ENDBRANCH   5  17
BRANCH   6  27
ATOM     27  S   UNL     1      -9.900  -2.078   0.419  0.00  0.00    -0.080 S 
BRANCH  27  28
ATOM     28  C   UNL     1     -10.070  -3.884   0.405  0.00  0.00    +0.172 C 
BRANCH  28  29
ATOM     29  C   UNL     1     -11.529  -4.252   0.495  0.00  0.00    +0.224 C 
ATOM     30  O   UNL     1     -12.371  -3.381   0.561  0.00  0.00    -0.275 OA
ATOM     31  N   UNL     1     -11.898  -5.548   0.501  0.00  0.00    -0.310 N 
ATOM     32  H   UNL     1     -11.225  -6.244   0.448  0.00  0.00    +0.149 HD
BRANCH  31  33
ATOM     33  C   UNL     1     -13.316  -5.905   0.588  0.00  0.00    +0.146 C 
BRANCH  33  34
ATOM     34  C   UNL     1     -13.458  -7.405   0.577  0.00  0.00    +0.007 A 
ATOM     35  C   UNL     1     -13.476  -8.269   1.622  0.00  0.00    +0.013 A 
ATOM     36  C   UNL     1     -13.619  -9.621   1.372  0.00  0.00    +0.008 A 
ATOM     37  C   UNL     1     -13.737 -10.043   0.089  0.00  0.00    +0.045 A 
ATOM     38  S   UNL     1     -13.654  -8.506  -0.815  0.00  0.00    -0.100 S 
ENDBRANCH  33  34
ENDBRANCH  31  33
ENDBRANCH  28  29
ENDBRANCH  27  28
ENDBRANCH   6  27
TORSDOF 10
