REMARK  Name = ZINC01021388
REMARK  5 active torsions:
REMARK  status: ('A' for Active; 'I' for Inactive)
REMARK    1  A    between atoms: C_4  and  C_7
REMARK    2  A    between atoms: C_9  and  C_13
REMARK    3  A    between atoms: N_14  and  N_15
REMARK    4  A    between atoms: C_16  and  C_18
REMARK    5  A    between atoms: C_22  and  O_24
REMARK                            x       y       z     vdW  Elec       q    Type
REMARK                         _______ _______ _______ _____ _____    ______ ____
ROOT
ATOM      1  C   UNL     1       5.457   5.418  -0.023  0.00  0.00    +0.140 C 
ATOM      2  N   UNL     1       6.689   5.829  -0.033  0.00  0.00    -0.187 NA
ENDROOT
BRANCH   1   5
ATOM      3  C   UNL     1       3.657   2.160  -0.023  0.00  0.00    +0.021 A 
ATOM      4  C   UNL     1       3.849   3.511  -0.018  0.00  0.00    +0.027 A 
ATOM      5  C   UNL     1       5.162   3.974  -0.028  0.00  0.00    +0.021 A 
ATOM      6  C   UNL     1       6.180   3.040  -0.043  0.00  0.00    +0.087 A 
ATOM      7  S   UNL     1       5.325   1.532  -0.036  0.00  0.00    -0.076 S 
ATOM      8 CL   UNL     1       7.895   3.310  -0.058  0.00  0.00    -0.075 Cl
BRANCH   3  12
ATOM      9  C   UNL     1       0.002  -0.004   0.002  0.00  0.00    +0.000 A 
ATOM     10  C   UNL     1      -0.017   1.379   0.010  0.00  0.00    +0.001 A 
ATOM     11  C   UNL     1       1.167   2.088   0.002  0.00  0.00    +0.009 A 
ATOM     12  C   UNL     1       2.385   1.407  -0.014  0.00  0.00    -0.011 A 
ATOM     13  C   UNL     1       2.397   0.011  -0.021  0.00  0.00    +0.009 A 
ATOM     14  C   UNL     1       1.206  -0.686  -0.013  0.00  0.00    +0.001 A 
ENDBRANCH   3  12
ENDBRANCH   1   5
BRANCH   2  15
ATOM     15  N   UNL     1       6.969   7.201  -0.028  0.00  0.00    -0.203 N 
ATOM     16  C   UNL     1       8.248   7.628  -0.038  0.00  0.00    +0.263 C 
ATOM     17  O   UNL     1       9.158   6.821  -0.051  0.00  0.00    -0.268 OA
ATOM     18  H   UNL     1       6.244   7.845  -0.017  0.00  0.00    +0.178 HD
BRANCH  16  19
ATOM     19  C   UNL     1       8.544   9.076  -0.033  0.00  0.00    +0.042 A 
ATOM     20  C   UNL     1       7.501  10.004  -0.023  0.00  0.00    +0.013 A 
ATOM     21  C   UNL     1       7.781  11.355  -0.013  0.00  0.00    +0.004 A 
ATOM     22  C   UNL     1       9.092  11.794  -0.024  0.00  0.00    +0.045 A 
ATOM     23  C   UNL     1      10.136  10.879  -0.038  0.00  0.00    +0.118 A 
ATOM     24  C   UNL     1       9.866   9.520  -0.043  0.00  0.00    +0.058 A 
BRANCH  23  25
ATOM     25  O   UNL     1      11.422  11.316  -0.049  0.00  0.00    -0.507 OA
ATOM     26  H   UNL     1      11.786  11.447  -0.936  0.00  0.00    +0.292 HD
ENDBRANCH  23  25
ENDBRANCH  16  19
ENDBRANCH   2  15
TORSDOF 5
