REMARK  Name = ZINC12274960
REMARK  4 active torsions:
REMARK  status: ('A' for Active; 'I' for Inactive)
REMARK    1  A    between atoms: C_3  and  C_6
REMARK    2  A    between atoms: C_6  and  O_26
REMARK    3  A    between atoms: C_10  and  C_24
REMARK    4  A    between atoms: C_11  and  C_17
REMARK                            x       y       z     vdW  Elec       q    Type
REMARK                         _______ _______ _______ _____ _____    ______ ____
ROOT
ATOM      1  C   UNL     1       2.520   4.140  -0.081  0.00  0.00    +0.208 C 
ATOM      2  C   UNL     1       3.689   3.141  -0.136  0.00  0.00    +0.139 C 
ATOM      3  S   UNL     1       2.799   1.540  -0.071  0.00  0.00    -0.104 S 
ATOM      4  C   UNL     1       1.136   2.142   0.003  0.00  0.00    +0.087 C 
ATOM      5  C   UNL     1      -0.017   1.428   0.010  0.00  0.00    +0.065 C 
ATOM      6  C   UNL     1      -1.324   2.189   0.020  0.00  0.00    +0.070 C 
ATOM      7  C   UNL     1      -1.158   3.499   0.790  0.00  0.00    +0.110 C 
ATOM      8  C   UNL     1       0.077   4.238   0.349  0.00  0.00    +0.224 C 
ATOM      9  O   UNL     1       0.065   5.445   0.233  0.00  0.00    -0.275 OA
ATOM     10  N   UNL     1       1.215   3.525   0.081  0.00  0.00    -0.228 N 
ENDROOT
BRANCH   6  11
ATOM     11  C   UNL     1      -1.741   2.486  -1.397  0.00  0.00    -0.039 A 
ATOM     12  C   UNL     1      -0.922   3.244  -2.214  0.00  0.00    +0.006 A 
ATOM     13  C   UNL     1      -1.301   3.512  -3.515  0.00  0.00    +0.020 A 
ATOM     14  C   UNL     1      -2.505   3.031  -3.998  0.00  0.00    +0.041 A 
ATOM     15  C   UNL     1      -3.326   2.277  -3.179  0.00  0.00    +0.020 A 
ATOM     16  C   UNL     1      -2.944   2.005  -1.879  0.00  0.00    +0.006 A 
ATOM     17 CL   UNL     1      -2.985   3.372  -5.631  0.00  0.00    -0.084 Cl
ENDBRANCH   6  11
BRANCH   1  20
ATOM     18  C   UNL     1       3.379   6.811   2.308  0.00  0.00    +0.041 A 
ATOM     19  C   UNL     1       3.398   6.261   1.006  0.00  0.00    +0.049 A 
ATOM     20  C   UNL     1       2.751   5.084   1.071  0.00  0.00    +0.156 A 
ATOM     21  O   UNL     1       2.351   4.888   2.338  0.00  0.00    -0.463 OA
ATOM     22  C   UNL     1       2.729   5.933   3.093  0.00  0.00    +0.195 A 
ENDBRANCH   1  20
BRANCH   5  23
ATOM     23  C   UNL     1       0.002  -0.004   0.002  0.00  0.00    +0.098 C 
ATOM     24  N   UNL     1       0.018  -1.140  -0.004  0.00  0.00    -0.191 NA
ENDBRANCH   5  23
BRANCH   1  25
ATOM     25  O   UNL     1       2.514   4.899  -1.292  0.00  0.00    -0.364 OA
ATOM     26  H   UNL     1       3.316   5.420  -1.434  0.00  0.00    +0.213 HD
ENDBRANCH   1  25
TORSDOF 4
