REMARK  Name = ZINC26772229
REMARK  3 active torsions:
REMARK  status: ('A' for Active; 'I' for Inactive)
REMARK    1  A    between atoms: C_4  and  C_7
REMARK    2  A    between atoms: N_26  and  N_29
REMARK    3  A    between atoms: C_30  and  C_31
REMARK                            x       y       z     vdW  Elec       q    Type
REMARK                         _______ _______ _______ _____ _____    ______ ____
ROOT
ATOM      1  C   UNL     1      -6.228   6.251   0.323  0.00  0.00    +0.154 C 
ATOM      2  C   UNL     1      -6.190   7.356  -0.708  0.00  0.00    +0.046 A 
ATOM      3  C   UNL     1      -5.073   7.711  -1.379  0.00  0.00    -0.015 A 
ATOM      4  C   UNL     1      -5.438   8.799  -2.263  0.00  0.00    +0.003 A 
ATOM      5  C   UNL     1      -4.708   9.559  -3.182  0.00  0.00    +0.010 A 
ATOM      6  C   UNL     1      -5.394  10.531  -3.867  0.00  0.00    +0.001 A 
ATOM      7  C   UNL     1      -6.745  10.759  -3.666  0.00  0.00    +0.002 A 
ATOM      8  C   UNL     1      -7.492  10.022  -2.763  0.00  0.00    +0.026 A 
ATOM      9  C   UNL     1      -6.822   9.028  -2.052  0.00  0.00    +0.047 A 
ATOM     10  N   UNL     1      -7.241   8.138  -1.106  0.00  0.00    -0.356 N 
ATOM     11  H   UNL     1      -8.237   7.988  -0.664  0.00  0.00    +0.166 HD
ATOM     12  C   UNL     1      -3.725   7.058  -1.207  0.00  0.00    +0.069 C 
ATOM     13  C   UNL     1      -3.719   6.271   0.111  0.00  0.00    +0.169 C 
ATOM     14  N   UNL     1      -4.958   5.503   0.217  0.00  0.00    -0.276 N 
ATOM     15  C   UNL     1      -4.991   4.168   0.221  0.00  0.00    +0.236 C 
ATOM     16  O   UNL     1      -6.077   3.630   0.244  0.00  0.00    -0.274 OA
ATOM     17  C   UNL     1      -3.780   3.293   0.198  0.00  0.00    +0.230 C 
ATOM     18  N   UNL     1      -2.549   4.065   0.202  0.00  0.00    -0.183 N 
ATOM     19  C   UNL     1      -2.508   5.396   0.172  0.00  0.00    +0.256 C 
ATOM     20  O   UNL     1      -1.420   5.932   0.192  0.00  0.00    -0.272 OA
ENDROOT
BRANCH   1  24
ATOM     21  C   UNL     1      -9.520   3.645  -0.464  0.00  0.00    +0.000 A 
ATOM     22  C   UNL     1      -9.337   4.164   0.804  0.00  0.00    +0.000 A 
ATOM     23  C   UNL     1      -8.272   5.008   1.059  0.00  0.00    +0.006 A 
ATOM     24  C   UNL     1      -7.389   5.332   0.046  0.00  0.00    -0.021 A 
ATOM     25  C   UNL     1      -7.575   4.816  -1.224  0.00  0.00    +0.006 A 
ATOM     26  C   UNL     1      -8.637   3.969  -1.477  0.00  0.00    +0.000 A 
ENDBRANCH   1  24
BRANCH  18  27
ATOM     27  N   UNL     1      -1.333   3.369   0.247  0.00  0.00    -0.184 NA
ATOM     28  C   UNL     1      -1.330   2.072   0.282  0.00  0.00    +0.140 C 
BRANCH  28  29
ATOM     29  C   UNL     1      -0.051   1.339   0.329  0.00  0.00    +0.013 A 
ATOM     30  C   UNL     1      -0.043  -0.057   0.367  0.00  0.00    +0.012 A 
ATOM     31  C   UNL     1       1.156  -0.736   0.405  0.00  0.00    +0.021 A 
ATOM     32  C   UNL     1       2.352  -0.038   0.406  0.00  0.00    +0.042 A 
ATOM     33  C   UNL     1       2.353   1.346   0.368  0.00  0.00    +0.040 A 
ATOM     34  C   UNL     1       1.159   2.039   0.330  0.00  0.00    +0.051 A 
ATOM     35 CL   UNL     1       1.161   3.774   0.282  0.00  0.00    -0.083 Cl
ATOM     36 CL   UNL     1       3.857  -0.901   0.454  0.00  0.00    -0.083 Cl
ENDBRANCH  28  29
ENDBRANCH  18  27
TORSDOF 3
