REMARK  Name = ZINC09092298
REMARK  9 active torsions:
REMARK  status: ('A' for Active; 'I' for Inactive)
REMARK    1  A    between atoms: C_1  and  C_2
REMARK    2  A    between atoms: C_2  and  C_4
REMARK    3  A    between atoms: C_2  and  S_15
REMARK    4  A    between atoms: N_6  and  C_7
REMARK    5  A    between atoms: C_12  and  S_13
REMARK    6  A    between atoms: S_13  and  C_14
REMARK    7  A    between atoms: S_15  and  C_16
REMARK    8  A    between atoms: C_19  and  C_22
REMARK    9  A    between atoms: N_20  and  N_21
REMARK                            x       y       z     vdW  Elec       q    Type
REMARK                         _______ _______ _______ _____ _____    ______ ____
ROOT
ATOM      1  S   UNL     1       2.617  -5.859   1.005  0.00  0.00    -0.072 S 
ENDROOT
BRANCH   1   2
ATOM      2  C   UNL     1       1.698  -4.380   0.735  0.00  0.00    +0.209 A 
ATOM      3  N   UNL     1       0.412  -4.297   0.477  0.00  0.00    -0.121 NA
ATOM      4  N   UNL     1       0.069  -3.067   0.334  0.00  0.00    -0.127 NA
ATOM      5  C   UNL     1       1.114  -2.289   0.492  0.00  0.00    +0.183 A 
ATOM      6  N   UNL     1       2.191  -3.106   0.747  0.00  0.00    -0.224 N 
BRANCH   5   7
ATOM      7  C   UNL     1       1.132  -0.814   0.405  0.00  0.00    +0.035 A 
ATOM      8  C   UNL     1       2.115  -0.168  -0.347  0.00  0.00    +0.013 A 
ATOM      9  C   UNL     1       2.127   1.210  -0.423  0.00  0.00    +0.001 A 
ATOM     10  C   UNL     1       1.167   1.951   0.242  0.00  0.00    +0.001 A 
ATOM     11  C   UNL     1       0.190   1.318   0.989  0.00  0.00    +0.016 A 
ATOM     12  C   UNL     1       0.166  -0.060   1.074  0.00  0.00    +0.029 A 
ATOM     13 BR   UNL     1      -1.171  -0.924   2.095  0.00  0.00    -0.050 Br
ENDBRANCH   5   7
BRANCH   6  14
ATOM     14  N   UNL     1       3.483  -2.724   0.970  0.00  0.00    -0.295 N 
ATOM     15  H   UNL     1       3.673  -2.648   1.958  0.00  0.00    +0.163 HD
ATOM     16  H   UNL     1       4.130  -3.358   0.525  0.00  0.00    +0.163 HD
ENDBRANCH   6  14
ENDBRANCH   1   2
BRANCH   1  18
ATOM     17  C   UNL     1       0.275  -6.907   1.944  0.00  0.00    +0.029 C 
ATOM     18  C   UNL     1       1.299  -7.086   0.822  0.00  0.00    +0.137 C 
BRANCH  18  19
ATOM     19  C   UNL     1       1.888  -8.471   0.896  0.00  0.00    +0.230 C 
ATOM     20  O   UNL     1       2.932  -8.655   1.484  0.00  0.00    -0.274 OA
ATOM     21  N   UNL     1       1.254  -9.505   0.308  0.00  0.00    -0.284 N 
ATOM     22  H   UNL     1       0.464  -9.346  -0.232  0.00  0.00    +0.155 HD
BRANCH  21  23
ATOM     23  C   UNL     1       1.738 -10.810   0.475  0.00  0.00    +0.047 A 
ATOM     24  C   UNL     1       2.583 -11.108   1.533  0.00  0.00    +0.024 A 
ATOM     25  C   UNL     1       3.054 -12.397   1.700  0.00  0.00    +0.002 A 
ATOM     26  C   UNL     1       2.694 -13.390   0.808  0.00  0.00    +0.001 A 
ATOM     27  C   UNL     1       1.856 -13.102  -0.253  0.00  0.00    +0.016 A 
ATOM     28  C   UNL     1       1.374 -11.812  -0.425  0.00  0.00    +0.029 A 
BRANCH  28  29
ATOM     29  S   UNL     1       0.306 -11.440  -1.777  0.00  0.00    -0.127 S 
ATOM     30  C   UNL     1       0.129 -13.024  -2.643  0.00  0.00    +0.090 C 
ENDBRANCH  28  29
ENDBRANCH  21  23
ENDBRANCH  18  19
ENDBRANCH   1  18
TORSDOF 7
