REMARK  Name = ZINC21584516
REMARK  5 active torsions:
REMARK  status: ('A' for Active; 'I' for Inactive)
REMARK    1  A    between atoms: C_1  and  C_2
REMARK    2  A    between atoms: C_8  and  N_10
REMARK    3  A    between atoms: C_14  and  C_16
REMARK    4  A    between atoms: C_16  and  N_17
REMARK    5  A    between atoms: C_20  and  C_23
REMARK                            x       y       z     vdW  Elec       q    Type
REMARK                         _______ _______ _______ _____ _____    ______ ____
ROOT
ATOM      1  C   UNL     1       0.790  -0.112  -0.256  0.00  0.00    +0.019 C 
ENDROOT
BRANCH   1   6
ATOM      2  N   UNL     1       2.766  -3.877  -2.499  0.00  0.00    -0.296 N 
ATOM      3  C   UNL     1       2.677  -2.541  -2.342  0.00  0.00    +0.306 C 
ATOM      4  O   UNL     1       3.362  -1.802  -3.022  0.00  0.00    -0.252 OA
ATOM      5  N   UNL     1       1.828  -2.025  -1.431  0.00  0.00    -0.242 N 
ATOM      6  C   UNL     1       1.739  -0.689  -1.274  0.00  0.00    +0.204 C 
ATOM      7  O   UNL     1       2.422   0.048  -1.952  0.00  0.00    -0.277 OA
ATOM      8  H   UNL     1       2.147  -4.545  -1.884  0.00  0.00    +0.151 HD
ATOM      9  H   UNL     1       1.208  -2.694  -0.816  0.00  0.00    +0.159 HD
BRANCH   2  16
ATOM     10  C   UNL     1       4.755  -5.828  -1.708  0.00  0.00    +0.009 C 
ATOM     11  C   UNL     1       4.075  -5.860  -3.078  0.00  0.00    +0.006 C 
ATOM     12  C   UNL     1       2.817  -6.728  -3.004  0.00  0.00    +0.005 C 
ATOM     13  C   UNL     1       2.137  -6.760  -4.374  0.00  0.00    +0.000 C 
ATOM     14  C   UNL     1       1.751  -5.338  -4.785  0.00  0.00    +0.002 C 
ATOM     15  C   UNL     1       3.009  -4.469  -4.860  0.00  0.00    +0.022 C 
ATOM     16  C   UNL     1       3.689  -4.438  -3.489  0.00  0.00    +0.077 C 
ENDBRANCH   2  16
ENDBRANCH   1   6
BRANCH   1  17
ATOM     17  N   UNL     1       0.976   1.343  -0.182  0.00  0.00    +0.385 N 
ATOM     18  C   UNL     1      -0.086   1.970   0.615  0.00  0.00    -0.077 C 
ATOM     19  C   UNL     1       0.057   3.492   0.550  0.00  0.00    -0.006 C 
ATOM     20  C   UNL     1       1.432   3.895   1.090  0.00  0.00    +0.072 C 
ATOM     21  C   UNL     1       2.519   3.191   0.274  0.00  0.00    -0.006 C 
ATOM     22  C   UNL     1       2.305   1.677   0.347  0.00  0.00    -0.077 C 
ATOM     23  H   UNL     1       0.911   1.746  -1.203  0.00  0.00    -0.081 HD
BRANCH  20  24
ATOM     24  C   UNL     1       1.601   5.388   0.973  0.00  0.00    +0.219 C 
ATOM     25  O   UNL     1       2.208   5.857   0.034  0.00  0.00    -0.275 OA
ATOM     26  N   UNL     1       1.079   6.201   1.912  0.00  0.00    -0.301 N 
ATOM     27  C   UNL     1       1.352   7.619   1.831  0.00  0.00    +0.108 C 
ATOM     28  C   UNL     1       2.649   7.950   2.599  0.00  0.00    +0.019 C 
ATOM     29  C   UNL     1       2.429   7.827   4.048  0.00  0.00    +0.002 C 
ATOM     30  C   UNL     1       2.062   6.421   4.511  0.00  0.00    +0.002 C 
ATOM     31  C   UNL     1       0.574   6.218   4.363  0.00  0.00    +0.019 C 
ATOM     32  C   UNL     1       0.258   5.607   2.986  0.00  0.00    +0.108 C 
ENDBRANCH  20  24
ENDBRANCH   1  17
TORSDOF 4
