REMARK  Name = ZINC13614682
REMARK  7 active torsions:
REMARK  status: ('A' for Active; 'I' for Inactive)
REMARK    1  A    between atoms: C_4  and  S_7
REMARK    2  A    between atoms: S_7  and  N_10
REMARK    3  A    between atoms: N_13  and  S_27
REMARK    4  A    between atoms: C_14  and  C_17
REMARK    5  A    between atoms: N_19  and  C_20
REMARK    6  A    between atoms: C_20  and  C_21
REMARK    7  A    between atoms: S_27  and  C_30
REMARK                            x       y       z     vdW  Elec       q    Type
REMARK                         _______ _______ _______ _____ _____    ______ ____
ROOT
ATOM      1  N   UNL     1      -3.592  -0.711   1.279  0.00  0.00    -0.173 NA
ATOM      2  C   UNL     1      -4.656   0.209   1.704  0.00  0.00    +0.126 C 
ATOM      3  C   UNL     1      -4.902   1.225   0.582  0.00  0.00    +0.127 C 
ATOM      4  N   UNL     1      -3.611   1.784   0.158  0.00  0.00    -0.162 NA
ATOM      5  C   UNL     1      -2.546   0.863  -0.264  0.00  0.00    +0.181 C 
ATOM      6  C   UNL     1      -2.299  -0.153   0.858  0.00  0.00    +0.139 C 
ENDROOT
BRANCH   5   7
ATOM      7  C   UNL     1      -1.282   1.639  -0.530  0.00  0.00    +0.233 C 
ATOM      8  O   UNL     1      -0.691   2.169   0.388  0.00  0.00    -0.274 OA
ATOM      9  N   UNL     1      -0.807   1.744  -1.787  0.00  0.00    -0.311 N 
ATOM     10  H   UNL     1      -1.279   1.320  -2.520  0.00  0.00    +0.149 HD
BRANCH   9  11
ATOM     11  C   UNL     1       0.419   2.503  -2.046  0.00  0.00    +0.135 C 
BRANCH  11  12
ATOM     12  C   UNL     1       0.731   2.471  -3.543  0.00  0.00    +0.135 C 
ATOM     13  C   UNL     1       2.067   3.194  -3.829  0.00  0.00    +0.035 C 
ATOM     14  C   UNL     1       1.822   3.916  -5.173  0.00  0.00    +0.031 C 
ATOM     15  C   UNL     1       0.368   3.545  -5.540  0.00  0.00    +0.160 C 
ATOM     16  O   UNL     1      -0.261   3.219  -4.280  0.00  0.00    -0.375 OA
ENDBRANCH  11  12
ENDBRANCH   9  11
ENDBRANCH   5   7
BRANCH   1  17
ATOM     17  S   UNL     1      -3.846  -2.348   1.273  0.00  0.00    +0.061 S 
ATOM     18  O   UNL     1      -5.250  -2.541   1.169  0.00  0.00    -0.153 OA
ATOM     19  O   UNL     1      -2.930  -2.897   0.336  0.00  0.00    -0.153 OA
BRANCH  17  23
ATOM     20  C   UNL     1      -2.624  -3.907   5.343  0.00  0.00    +0.000 A 
ATOM     21  C   UNL     1      -3.926  -3.497   5.122  0.00  0.00    +0.002 A 
ATOM     22  C   UNL     1      -4.299  -3.021   3.879  0.00  0.00    +0.028 A 
ATOM     23  C   UNL     1      -3.370  -2.954   2.857  0.00  0.00    +0.105 A 
ATOM     24  C   UNL     1      -2.070  -3.369   3.077  0.00  0.00    +0.028 A 
ATOM     25  C   UNL     1      -1.696  -3.841   4.321  0.00  0.00    +0.002 A 
ENDBRANCH  17  23
ENDBRANCH   1  17
BRANCH   4  26
ATOM     26  S   UNL     1      -3.357   3.420   0.160  0.00  0.00    +0.062 S 
ATOM     27  O   UNL     1      -2.195   3.652  -0.624  0.00  0.00    -0.153 OA
ATOM     28  O   UNL     1      -4.609   4.025  -0.136  0.00  0.00    -0.153 OA
BRANCH  26  29
ATOM     29  C   UNL     1      -2.953   3.883   1.811  0.00  0.00    +0.106 A 
ATOM     30  C   UNL     1      -3.954   4.249   2.691  0.00  0.00    +0.028 A 
ATOM     31  C   UNL     1      -3.637   4.608   3.988  0.00  0.00    +0.002 A 
ATOM     32  C   UNL     1      -2.318   4.609   4.402  0.00  0.00    +0.000 A 
ATOM     33  C   UNL     1      -1.316   4.248   3.520  0.00  0.00    +0.002 A 
ATOM     34  C   UNL     1      -1.634   3.885   2.225  0.00  0.00    +0.028 A 
ENDBRANCH  26  29
ENDBRANCH   4  26
TORSDOF 7
