REMARK  Name = ZINC23991906
REMARK  5 active torsions:
REMARK  status: ('A' for Active; 'I' for Inactive)
REMARK    1  A    between atoms: C_7  and  N_11
REMARK    2  A    between atoms: C_8  and  C_9
REMARK    3  A    between atoms: C_12  and  C_14
REMARK    4  A    between atoms: C_14  and  N_15
REMARK    5  A    between atoms: C_19  and  O_22
REMARK                            x       y       z     vdW  Elec       q    Type
REMARK                         _______ _______ _______ _____ _____    ______ ____
ROOT
ATOM      1  N   UNL     1      -0.708   0.901  -4.814  0.00  0.00    -0.281 N 
ATOM      2  C   UNL     1      -1.039   1.323  -3.578  0.00  0.00    +0.201 C 
ATOM      3  O   UNL     1      -2.057   1.961  -3.408  0.00  0.00    -0.278 OA
ATOM      4  H   UNL     1       0.215   0.323  -4.969  0.00  0.00    +0.155 HD
ENDROOT
BRANCH   1  11
ATOM      5  C   UNL     1      -4.544   1.585 -10.608  0.00  0.00    +0.001 C 
ATOM      6  C   UNL     1      -3.079   1.988 -10.460  0.00  0.00    +0.005 C 
ATOM      7  C   UNL     1      -2.316   0.942  -9.654  0.00  0.00    +0.037 C 
ATOM      8  C   UNL     1      -2.381   1.282  -8.170  0.00  0.00    -0.018 A 
ATOM      9  C   UNL     1      -3.395   1.992  -7.630  0.00  0.00    -0.004 A 
ATOM     10  S   UNL     1      -3.023   2.073  -5.899  0.00  0.00    -0.077 S 
ATOM     11  C   UNL     1      -1.531   1.194  -5.893  0.00  0.00    +0.090 A 
ATOM     12  C   UNL     1      -1.362   0.851  -7.224  0.00  0.00    +0.084 A 
ATOM     13  C   UNL     1      -4.576   2.583  -8.335  0.00  0.00    +0.043 C 
ATOM     14  C   UNL     1      -5.211   1.518  -9.238  0.00  0.00    +0.005 C 
BRANCH  12  15
ATOM     15  C   UNL     1      -0.223   0.098  -7.655  0.00  0.00    +0.102 C 
ATOM     16  N   UNL     1       0.681  -0.500  -7.997  0.00  0.00    -0.191 NA
ENDBRANCH  12  15
ENDBRANCH   1  11
BRANCH   2  17
ATOM     17  C   UNL     1      -0.145   1.005  -2.408  0.00  0.00    +0.019 C 
BRANCH  17  18
ATOM     18  N   UNL     1      -0.723   1.572  -1.182  0.00  0.00    +0.387 N 
ATOM     19  C   UNL     1      -0.729   3.040  -1.234  0.00  0.00    -0.078 C 
ATOM     20  C   UNL     1      -1.466   3.591  -0.011  0.00  0.00    -0.016 C 
ATOM     21  C   UNL     1      -0.764   3.110   1.262  0.00  0.00    +0.027 C 
ATOM     22  C   UNL     1      -0.729   1.579   1.267  0.00  0.00    +0.098 C 
ATOM     23  C   UNL     1      -0.013   1.086   0.008  0.00  0.00    -0.047 C 
ATOM     24  H   UNL     1      -1.767   1.235  -1.111  0.00  0.00    -0.081 HD
BRANCH  22  25
ATOM     25  O   UNL     1      -0.026   1.123   2.425  0.00  0.00    -0.394 OA
ATOM     26  H   UNL     1       0.102   0.045   2.601  0.00  0.00    +0.210 HD
ENDBRANCH  22  25
ENDBRANCH  17  18
ENDBRANCH   2  17
TORSDOF 5
