REMARK  Name = ZINC63350760
REMARK  6 active torsions:
REMARK  status: ('A' for Active; 'I' for Inactive)
REMARK    1  A    between atoms: C_1  and  O_2
REMARK    2  A    between atoms: O_2  and  C_3
REMARK    3  A    between atoms: C_6  and  O_33
REMARK    4  A    between atoms: C_7  and  N_9
REMARK    5  A    between atoms: C_12  and  C_18
REMARK    6  A    between atoms: O_33  and  C_34
REMARK                            x       y       z     vdW  Elec       q    Type
REMARK                         _______ _______ _______ _____ _____    ______ ____
ROOT
ATOM      1  N   UNL     1       1.323  -4.005  -2.286  0.00  0.00    -0.253 N 
ATOM      2  C   UNL     1       2.362  -4.667  -1.740  0.00  0.00    +0.268 A 
ATOM      3  O   UNL     1       3.255  -4.054  -1.181  0.00  0.00    -0.267 OA
ATOM      4  C   UNL     1       2.409  -6.070  -1.819  0.00  0.00    +0.101 A 
ATOM      5  C   UNL     1       1.397  -6.732  -2.450  0.00  0.00    +0.261 A 
ATOM      6  N   UNL     1       0.359  -6.019  -2.991  0.00  0.00    -0.302 N 
ATOM      7  C   UNL     1       0.332  -4.677  -2.899  0.00  0.00    +0.168 A 
ATOM      8  S   UNL     1      -0.980  -3.811  -3.577  0.00  0.00    -0.012 S 
ATOM      9  O   UNL     1       1.418  -8.079  -2.540  0.00  0.00    -0.267 OA
ATOM     10  H   UNL     1      -0.363  -6.485  -3.441  0.00  0.00    +0.171 HD
ENDROOT
BRANCH   4  11
ATOM     11  C   UNL     1       3.562  -6.831  -1.217  0.00  0.00    +0.121 C 
ATOM     12  C   UNL     1       3.567  -6.643   0.302  0.00  0.00    +0.128 C 
ATOM     13  C   UNL     1       4.848  -7.295   0.808  0.00  0.00    -0.035 C 
ATOM     14  C   UNL     1       4.484  -8.159   1.746  0.00  0.00    -0.001 A 
ATOM     15  C   UNL     1       5.268  -9.017   2.648  0.00  0.00    +0.010 A 
ATOM     16  C   UNL     1       4.556  -9.808   3.494  0.00  0.00    +0.001 A 
ATOM     17  C   UNL     1       3.158  -9.832   3.531  0.00  0.00    +0.002 A 
ATOM     18  C   UNL     1       2.357  -9.073   2.741  0.00  0.00    +0.026 A 
ATOM     19  C   UNL     1       2.990  -8.195   1.814  0.00  0.00    +0.043 A 
ATOM     20  N   UNL     1       2.462  -7.340   0.960  0.00  0.00    -0.376 N 
ATOM     21  C   UNL     1       6.190  -6.988   0.191  0.00  0.00    +0.048 C 
ATOM     22  C   UNL     1       5.997  -7.098  -1.333  0.00  0.00    +0.086 C 
ATOM     23  N   UNL     1       4.831  -6.315  -1.752  0.00  0.00    -0.307 NA
ATOM     24  H   UNL     1       4.793  -6.232  -2.757  0.00  0.00    +0.123 HD
ATOM     25  H   UNL     1       1.518  -7.197   0.788  0.00  0.00    +0.160 HD
ENDBRANCH   4  11
BRANCH   1  30
ATOM     26  C   UNL     1       0.606  -0.608  -1.056  0.00  0.00    +0.122 A 
ATOM     27  C   UNL     1       1.173   0.162  -2.062  0.00  0.00    +0.049 A 
ATOM     28  C   UNL     1       1.788  -0.448  -3.139  0.00  0.00    +0.051 A 
ATOM     29  C   UNL     1       1.840  -1.830  -3.217  0.00  0.00    +0.144 A 
ATOM     30  C   UNL     1       1.272  -2.605  -2.209  0.00  0.00    +0.097 A 
ATOM     31  C   UNL     1       0.660  -1.991  -1.127  0.00  0.00    +0.075 A 
BRANCH  26  33
ATOM     32  C   UNL     1      -0.017   1.425   0.010  0.00  0.00    +0.277 C 
ATOM     33  O   UNL     1       0.002  -0.004   0.002  0.00  0.00    -0.495 OA
ENDBRANCH  26  33
BRANCH  29  34
ATOM     34  O   UNL     1       2.445  -2.430  -4.278  0.00  0.00    -0.493 OA
ATOM     35  C   UNL     1       3.005  -1.573  -5.275  0.00  0.00    +0.277 C 
ENDBRANCH  29  34
ENDBRANCH   1  30
TORSDOF 4
