REMARK  Name = ZINC23827515
REMARK  6 active torsions:
REMARK  status: ('A' for Active; 'I' for Inactive)
REMARK    1  A    between atoms: C_1  and  C_2
REMARK    2  A    between atoms: C_2  and  C_4
REMARK    3  A    between atoms: C_2  and  N_15
REMARK    4  A    between atoms: N_6  and  C_7
REMARK    5  A    between atoms: N_18  and  S_21
REMARK    6  A    between atoms: S_21  and  C_24
REMARK                            x       y       z     vdW  Elec       q    Type
REMARK                         _______ _______ _______ _____ _____    ______ ____
ROOT
ATOM      1  N   UNL     1       3.788   0.121  -4.262  0.00  0.00    +0.389 N 
ATOM      2  C   UNL     1       3.346   1.501  -4.017  0.00  0.00    -0.060 C 
ATOM      3  C   UNL     1       3.663   1.885  -2.568  0.00  0.00    +0.091 C 
ATOM      4  N   UNL     1       3.071   0.875  -1.677  0.00  0.00    -0.180 NA
ATOM      5  C   UNL     1       3.363  -0.542  -1.941  0.00  0.00    +0.091 C 
ATOM      6  C   UNL     1       3.054  -0.831  -3.418  0.00  0.00    -0.060 C 
ATOM      7  H   UNL     1       4.852   0.058  -3.990  0.00  0.00    -0.081 HD
ENDROOT
BRANCH   4   8
ATOM      8  S   UNL     1       2.107   1.322  -0.407  0.00  0.00    +0.067 S 
ATOM      9  O   UNL     1       2.464   2.658  -0.076  0.00  0.00    -0.152 OA
ATOM     10  O   UNL     1       2.164   0.263   0.539  0.00  0.00    -0.152 OA
BRANCH   8  11
ATOM     11  C   UNL     1       0.451   1.377  -1.004  0.00  0.00    +0.144 A 
ATOM     12  C   UNL     1      -0.479   0.391  -1.033  0.00  0.00    +0.038 A 
ATOM     13  C   UNL     1      -1.730   0.663  -1.554  0.00  0.00    +0.030 A 
ATOM     14  C   UNL     1      -1.990   1.910  -2.021  0.00  0.00    +0.080 A 
ATOM     15  S   UNL     1      -0.439   2.745  -1.728  0.00  0.00    -0.057 S 
ATOM     16 CL   UNL     1      -3.449   2.531  -2.727  0.00  0.00    -0.076 Cl
ENDBRANCH   8  11
ENDBRANCH   4   8
BRANCH   1  18
ATOM     17  C   UNL     1       4.077  -1.685  -5.890  0.00  0.00    -0.004 C 
ATOM     18  C   UNL     1       3.660  -0.228  -5.683  0.00  0.00    +0.017 C 
BRANCH  18  19
ATOM     19  C   UNL     1       4.551   0.670  -6.503  0.00  0.00    +0.203 C 
ATOM     20  O   UNL     1       5.553   1.144  -6.010  0.00  0.00    -0.277 OA
ATOM     21  N   UNL     1       4.235   0.946  -7.784  0.00  0.00    -0.286 N 
ATOM     22  H   UNL     1       3.287   0.583  -8.206  0.00  0.00    +0.155 HD
BRANCH  21  23
ATOM     23  C   UNL     1       5.114   1.693  -8.576  0.00  0.00    +0.053 A 
ATOM     24  C   UNL     1       5.971   2.613  -7.987  0.00  0.00    +0.044 A 
ATOM     25  C   UNL     1       6.838   3.349  -8.773  0.00  0.00    +0.043 A 
ATOM     26  C   UNL     1       6.853   3.170 -10.145  0.00  0.00    +0.021 A 
ATOM     27  C   UNL     1       6.001   2.254 -10.734  0.00  0.00    +0.023 A 
ATOM     28  C   UNL     1       5.136   1.511  -9.954  0.00  0.00    +0.062 A 
ATOM     29 CL   UNL     1       4.071   0.357 -10.694  0.00  0.00    -0.082 Cl
ATOM     30 CL   UNL     1       7.910   4.500  -8.037  0.00  0.00    -0.083 Cl
ENDBRANCH  21  23
ENDBRANCH  18  19
ENDBRANCH   1  18
TORSDOF 5
