REMARK  Name = ZINC59409676
REMARK  4 active torsions:
REMARK  status: ('A' for Active; 'I' for Inactive)
REMARK    1  A    between atoms: C_1  and  C_2
REMARK    2  A    between atoms: C_18  and  C_20
REMARK    3  A    between atoms: C_20  and  N_21
REMARK    4  A    between atoms: N_24  and  C_27
REMARK                            x       y       z     vdW  Elec       q    Type
REMARK                         _______ _______ _______ _____ _____    ______ ____
ROOT
ATOM      1  C   UNL     1      -0.011   1.500   0.005  0.00  0.00    +0.011 C 
ATOM      2  C   UNL     1       0.018  -0.030  -0.020  0.00  0.00    -0.023 C 
ATOM      3  C   UNL     1      -1.411  -0.573  -0.015  0.00  0.00    +0.007 C 
ATOM      4  C   UNL     1      -2.162  -0.048   1.211  0.00  0.00    +0.003 C 
ATOM      5  C   UNL     1      -1.486  -0.567   2.484  0.00  0.00    +0.037 C 
ATOM      6  C   UNL     1      -0.013  -0.151   2.469  0.00  0.00    +0.096 C 
ATOM      7  C   UNL     1       0.764  -0.554   1.215  0.00  0.00    +0.030 C 
ATOM      8  C   UNL     1       2.145   0.096   1.250  0.00  0.00    +0.015 C 
ATOM      9  C   UNL     1       2.964  -0.305   0.021  0.00  0.00    +0.045 C 
ATOM     10  C   UNL     1       2.181  -0.025  -1.277  0.00  0.00    +0.181 C 
ATOM     11  C   UNL     1       0.767  -0.511  -1.262  0.00  0.00    +0.052 C 
ATOM     12  O   UNL     1       2.259   1.398  -1.422  0.00  0.00    -0.461 OA
ATOM     13  C   UNL     1       3.517   1.770  -1.097  0.00  0.00    +0.312 C 
ATOM     14  O   UNL     1       4.089   2.750  -1.512  0.00  0.00    -0.250 OA
ATOM     15  C   UNL     1       4.108   0.745  -0.111  0.00  0.00    +0.118 C 
ATOM     16  C   UNL     1       0.366   1.159   3.158  0.00  0.00    +0.196 C 
ATOM     17  O   UNL     1       0.686  -0.120   3.711  0.00  0.00    -0.368 OA
ENDROOT
BRANCH  15  18
ATOM     18  C   UNL     1       4.405   1.389   1.245  0.00  0.00    +0.099 C 
BRANCH  18  19
ATOM     19  N   UNL     1       5.563   2.284   1.118  0.00  0.00    -0.299 NA
ATOM     20  C   UNL     1       6.783   1.527   0.809  0.00  0.00    +0.103 C 
ATOM     21  C   UNL     1       7.924   2.503   0.507  0.00  0.00    +0.120 C 
ATOM     22  N   UNL     1       8.044   3.443   1.633  0.00  0.00    -0.327 N 
ATOM     23  C   UNL     1       6.832   4.139   2.090  0.00  0.00    +0.120 C 
ATOM     24  C   UNL     1       5.734   3.098   2.329  0.00  0.00    +0.103 C 
BRANCH  22  25
ATOM     25  C   UNL     1       9.277   3.669   2.250  0.00  0.00    +0.031 A 
ATOM     26  C   UNL     1       9.395   4.641   3.235  0.00  0.00    +0.023 A 
ATOM     27  C   UNL     1      10.614   4.862   3.844  0.00  0.00    +0.003 A 
ATOM     28  C   UNL     1      11.719   4.116   3.474  0.00  0.00    +0.020 A 
ATOM     29  C   UNL     1      11.605   3.147   2.493  0.00  0.00    +0.043 A 
ATOM     30  C   UNL     1      10.386   2.917   1.884  0.00  0.00    +0.043 A 
ATOM     31 CL   UNL     1      12.995   2.213   2.032  0.00  0.00    -0.083 Cl
ENDBRANCH  22  25
ENDBRANCH  18  19
ENDBRANCH  15  18
TORSDOF 3
