REMARK  Name = ZINC00639172
REMARK  10 active torsions:
REMARK  status: ('A' for Active; 'I' for Inactive)
REMARK    1  A    between atoms: C_1  and  O_2
REMARK    2  A    between atoms: O_2  and  C_3
REMARK    3  A    between atoms: C_6  and  C_9
REMARK    4  A    between atoms: C_11  and  C_32
REMARK    5  A    between atoms: C_16  and  S_20
REMARK    6  A    between atoms: C_17  and  C_18
REMARK    7  A    between atoms: S_20  and  C_21
REMARK    8  A    between atoms: C_21  and  C_22
REMARK    9  A    between atoms: C_32  and  O_34
REMARK   10  A    between atoms: O_34  and  C_35
REMARK                            x       y       z     vdW  Elec       q    Type
REMARK                         _______ _______ _______ _____ _____    ______ ____
ROOT
ATOM      1  C   UNL     1      -1.120   7.122   1.857  0.00  0.00    +0.084 C 
ATOM      2  C   UNL     1      -1.897   7.717   0.682  0.00  0.00    +0.196 C 
ATOM      3  C   UNL     1      -1.033   7.701  -0.553  0.00  0.00    +0.232 C 
ATOM      4  O   UNL     1      -1.532   7.476  -1.635  0.00  0.00    -0.275 OA
ATOM      5  N   UNL     1       0.287   7.936  -0.462  0.00  0.00    -0.279 N 
ATOM      6  C   UNL     1       0.896   8.088   0.765  0.00  0.00    +0.082 C 
ATOM      7  C   UNL     1       0.257   7.731   1.911  0.00  0.00    +0.066 C 
ATOM      8  H   UNL     1       0.819   7.999  -1.271  0.00  0.00    +0.155 HD
ENDROOT
BRANCH   1  12
ATOM      9  C   UNL     1      -0.787   2.892   1.346  0.00  0.00    +0.120 A 
ATOM     10  C   UNL     1      -0.253   3.751   0.396  0.00  0.00    +0.046 A 
ATOM     11  C   UNL     1      -0.368   5.117   0.561  0.00  0.00    +0.008 A 
ATOM     12  C   UNL     1      -1.003   5.630   1.677  0.00  0.00    -0.038 A 
ATOM     13  C   UNL     1      -1.531   4.776   2.628  0.00  0.00    +0.008 A 
ATOM     14  C   UNL     1      -1.425   3.409   2.465  0.00  0.00    +0.046 A 
BRANCH   9  16
ATOM     15  C   UNL     1      -0.013   1.086   0.008  0.00  0.00    +0.277 C 
ATOM     16  O   UNL     1      -0.682   1.547   1.184  0.00  0.00    -0.495 OA
ENDBRANCH   9  16
ENDBRANCH   1  12
BRANCH   7  17
ATOM     17  C   UNL     1       0.896   7.935   3.176  0.00  0.00    +0.098 C 
ATOM     18  N   UNL     1       1.403   8.098   4.180  0.00  0.00    -0.191 NA
ENDBRANCH   7  17
BRANCH   2  19
ATOM     19  C   UNL     1      -3.140   6.901   0.435  0.00  0.00    +0.320 C 
ATOM     20  O   UNL     1      -3.379   5.941   1.129  0.00  0.00    -0.250 OA
BRANCH  19  21
ATOM     21  O   UNL     1      -3.981   7.240  -0.554  0.00  0.00    -0.467 OA
ATOM     22  C   UNL     1      -5.157   6.408  -0.734  0.00  0.00    +0.280 C 
ENDBRANCH  19  21
ENDBRANCH   2  19
BRANCH   6  23
ATOM     23  S   UNL     1       2.525   8.754   0.850  0.00  0.00    -0.104 S 
BRANCH  23  24
ATOM     24  C   UNL     1       2.844   9.030  -0.910  0.00  0.00    +0.110 C 
BRANCH  24  25
ATOM     25  C   UNL     1       4.223   9.613  -1.086  0.00  0.00    -0.037 A 
ATOM     26  C   UNL     1       4.388  10.997  -1.080  0.00  0.00    +0.005 A 
ATOM     27  C   UNL     1       5.619  11.557  -1.230  0.00  0.00    +0.009 A 
ATOM     28  C   UNL     1       6.742  10.730  -1.406  0.00  0.00    -0.018 A 
ATOM     29  C   UNL     1       8.028  11.271  -1.571  0.00  0.00    +0.008 A 
ATOM     30  C   UNL     1       9.092  10.440  -1.738  0.00  0.00    +0.001 A 
ATOM     31  C   UNL     1       8.927   9.056  -1.749  0.00  0.00    +0.001 A 
ATOM     32  C   UNL     1       7.696   8.496  -1.592  0.00  0.00    +0.008 A 
ATOM     33  C   UNL     1       6.573   9.323  -1.417  0.00  0.00    -0.018 A 
ATOM     34  C   UNL     1       5.287   8.782  -1.252  0.00  0.00    +0.013 A 
ENDBRANCH  24  25
ENDBRANCH  23  24
ENDBRANCH   6  23
TORSDOF 8
