REMARK  Name = ZINC09654495
REMARK  7 active torsions:
REMARK  status: ('A' for Active; 'I' for Inactive)
REMARK    1  A    between atoms: C_1  and  C_2
REMARK    2  A    between atoms: C_2  and  O_3
REMARK    3  A    between atoms: O_3  and  C_4
REMARK    4  A    between atoms: C_12  and  S_14
REMARK    5  A    between atoms: S_14  and  C_15
REMARK    6  A    between atoms: C_15  and  C_16
REMARK    7  A    between atoms: N_18  and  C_19
REMARK                            x       y       z     vdW  Elec       q    Type
REMARK                         _______ _______ _______ _____ _____    ______ ____
ROOT
ATOM      1  C   UNL     1       1.833  -0.190   8.956  0.00  0.00    +0.173 C 
ENDROOT
BRANCH   1   2
ATOM      2  C   UNL     1       2.046  -0.320  10.442  0.00  0.00    +0.228 C 
ATOM      3  O   UNL     1       1.278   0.214  11.214  0.00  0.00    -0.275 OA
ATOM      4  N   UNL     1       3.091  -1.030  10.913  0.00  0.00    -0.284 N 
ATOM      5  H   UNL     1       3.667  -1.510  10.299  0.00  0.00    +0.155 HD
BRANCH   4   6
ATOM      6  C   UNL     1       3.344  -1.073  12.291  0.00  0.00    +0.056 A 
ATOM      7  C   UNL     1       2.288  -1.063  13.191  0.00  0.00    +0.074 A 
ATOM      8  C   UNL     1       2.539  -1.106  14.553  0.00  0.00    +0.168 A 
ATOM      9  C   UNL     1       3.851  -1.159  15.016  0.00  0.00    +0.168 A 
ATOM     10  C   UNL     1       4.903  -1.169  14.114  0.00  0.00    +0.071 A 
ATOM     11  C   UNL     1       4.652  -1.131  12.755  0.00  0.00    +0.066 A 
ATOM     12 CL   UNL     1       5.972  -1.152  11.628  0.00  0.00    -0.082 Cl
ATOM     13  O   UNL     1       3.831  -1.193  16.381  0.00  0.00    -0.453 OA
ATOM     14  C   UNL     1       2.514  -0.749  16.757  0.00  0.00    +0.466 C 
ATOM     15  O   UNL     1       1.696  -1.107  15.627  0.00  0.00    -0.453 OA
ENDBRANCH   4   6
ENDBRANCH   1   2
BRANCH   1  16
ATOM     16  S   UNL     1       0.360   0.814   8.644  0.00  0.00    -0.079 S 
BRANCH  16  25
ATOM     17  C   UNL     1      -0.192   1.124   2.382  0.00  0.00    +0.123 A 
ATOM     18  C   UNL     1       0.956   0.339   2.418  0.00  0.00    +0.048 A 
ATOM     19  C   UNL     1       1.512  -0.029   3.622  0.00  0.00    +0.033 A 
ATOM     20  C   UNL     1       0.922   0.388   4.817  0.00  0.00    +0.090 A 
ATOM     21  C   UNL     1      -0.237   1.180   4.778  0.00  0.00    +0.070 A 
ATOM     22  C   UNL     1      -0.785   1.548   3.559  0.00  0.00    +0.073 A 
ATOM     23  N   UNL     1      -0.579   1.429   6.097  0.00  0.00    -0.333 N 
ATOM     24  H   UNL     1      -1.360   1.966   6.417  0.00  0.00    +0.168 HD
ATOM     25  C   UNL     1       0.349   0.802   6.882  0.00  0.00    +0.168 A 
ATOM     26  N   UNL     1       1.229   0.192   6.128  0.00  0.00    -0.222 NA
BRANCH  17  27
ATOM     27  O   UNL     1      -0.732   1.480   1.186  0.00  0.00    -0.492 OA
BRANCH  27  29
ATOM     28  C   UNL     1      -0.814   1.512  -1.229  0.00  0.00    +0.048 C 
ATOM     29  C   UNL     1      -0.067   1.014   0.010  0.00  0.00    +0.225 C 
ENDBRANCH  27  29
ENDBRANCH  17  27
ENDBRANCH  16  25
ENDBRANCH   1  16
TORSDOF 6
