REMARK  Name = ZINC62496084
REMARK  7 active torsions:
REMARK  status: ('A' for Active; 'I' for Inactive)
REMARK    1  A    between atoms: C_1  and  C_2
REMARK    2  A    between atoms: C_5  and  C_9
REMARK    3  A    between atoms: C_6  and  C_8
REMARK    4  A    between atoms: C_9  and  C_10
REMARK    5  A    between atoms: N_14  and  C_23
REMARK    6  A    between atoms: C_17  and  N_22
REMARK    7  A    between atoms: C_23  and  C_24
REMARK                            x       y       z     vdW  Elec       q    Type
REMARK                         _______ _______ _______ _____ _____    ______ ____
ROOT
ATOM      1  C   UNL     1      -1.370  -4.804   0.109  0.00  0.00    +0.263 C 
ATOM      2  C   UNL     1      -1.340  -6.308   0.226  0.00  0.00    +0.261 C 
ATOM      3  O   UNL     1      -1.317  -6.833   1.319  0.00  0.00    -0.271 OA
ATOM      4  N   UNL     1      -1.340  -7.066  -0.890  0.00  0.00    -0.261 N 
ATOM      5  C   UNL     1      -1.495  -6.447  -2.138  0.00  0.00    +0.080 A 
ATOM      6  C   UNL     1      -1.273  -7.157  -3.307  0.00  0.00    +0.050 A 
ATOM      7  C   UNL     1      -1.418  -6.526  -4.535  0.00  0.00    +0.027 A 
ATOM      8  C   UNL     1      -1.784  -5.187  -4.590  0.00  0.00    +0.026 A 
ATOM      9  C   UNL     1      -2.010  -4.480  -3.423  0.00  0.00    +0.049 A 
ATOM     10  C   UNL     1      -1.873  -5.107  -2.197  0.00  0.00    +0.143 A 
ATOM     11  O   UNL     1      -2.124  -4.428  -1.045  0.00  0.00    -0.477 OA
ENDROOT
BRANCH   7  12
ATOM     12  N   UNL     1      -1.196  -7.239  -5.718  0.00  0.00    -0.358 N 
ATOM     13  H   UNL     1      -0.941  -8.174  -5.680  0.00  0.00    +0.142 HD
ATOM     14  H   UNL     1      -1.297  -6.798  -6.576  0.00  0.00    +0.142 HD
ENDBRANCH   7  12
BRANCH   1  15
ATOM     15  C   UNL     1       0.059  -4.275  -0.021  0.00  0.00    +0.089 C 
BRANCH  15  20
ATOM     16  C   UNL     1      -0.018   1.503   0.010  0.00  0.00    +0.044 C 
ATOM     17  C   UNL     1       0.002  -0.004   0.002  0.00  0.00    -0.050 A 
ATOM     18  C   UNL     1       0.006  -0.689  -1.199  0.00  0.00    +0.003 A 
ATOM     19  C   UNL     1       0.025  -2.071  -1.207  0.00  0.00    +0.004 A 
ATOM     20  C   UNL     1       0.040  -2.768  -0.013  0.00  0.00    -0.040 A 
ATOM     21  C   UNL     1       0.037  -2.084   1.188  0.00  0.00    -0.047 A 
ATOM     22  C   UNL     1       0.023  -0.702   1.195  0.00  0.00    +0.007 A 
ATOM     23  C   UNL     1       0.054  -2.845   2.489  0.00  0.00    +0.044 C 
ENDBRANCH  15  20
ENDBRANCH   1  15
BRANCH   4  24
ATOM     24  C   UNL     1      -1.179  -8.519  -0.798  0.00  0.00    +0.140 C 
BRANCH  24  25
ATOM     25  C   UNL     1      -2.533  -9.167  -0.665  0.00  0.00    -0.015 C 
ATOM     26  C   UNL     1      -2.899 -10.099  -1.510  0.00  0.00    +0.005 C 
ENDBRANCH  24  25
ENDBRANCH   4  24
TORSDOF 5
