REMARK  Name = ZINC06894545
REMARK  4 active torsions:
REMARK  status: ('A' for Active; 'I' for Inactive)
REMARK    1  A    between atoms: C_8  and  C_16
REMARK    2  A    between atoms: N_18  and  C_19
REMARK    3  A    between atoms: C_19  and  C_20
REMARK    4  A    between atoms: C_20  and  C_21
REMARK                            x       y       z     vdW  Elec       q    Type
REMARK                         _______ _______ _______ _____ _____    ______ ____
ROOT
ATOM      1  C   UNL     1       2.966   4.079   0.391  0.00  0.00    +0.000 A 
ATOM      2  C   UNL     1       3.383   2.769   0.543  0.00  0.00    +0.002 A 
ATOM      3  C   UNL     1       2.462   1.742   0.555  0.00  0.00    +0.023 A 
ATOM      4  C   UNL     1       1.104   2.017   0.415  0.00  0.00    +0.036 A 
ATOM      5  C   UNL     1       0.696   3.338   0.263  0.00  0.00    -0.027 A 
ATOM      6  C   UNL     1       1.619   4.361   0.251  0.00  0.00    +0.004 A 
ATOM      7  C   UNL     1      -0.803   3.299   0.137  0.00  0.00    +0.052 C 
ATOM      8  C   UNL     1      -1.254   3.876  -1.213  0.00  0.00    +0.076 C 
ATOM      9  C   UNL     1      -2.581   4.598  -0.854  0.00  0.00    -0.003 C 
ATOM     10  C   UNL     1      -2.274   5.134   0.565  0.00  0.00    -0.066 C 
ATOM     11  C   UNL     1      -2.405   3.206   1.941  0.00  0.00    -0.077 C 
ATOM     12  C   UNL     1      -3.449   4.202   2.501  0.00  0.00    -0.020 C 
ATOM     13  C   UNL     1      -3.583   5.238   1.362  0.00  0.00    -0.017 C 
ATOM     14  C   UNL     1      -1.157   1.836   0.230  0.00  0.00    +0.212 C 
ATOM     15  O   UNL     1      -2.269   1.356   0.170  0.00  0.00    -0.277 OA
ATOM     16  N   UNL     1      -0.002   1.165   0.396  0.00  0.00    -0.286 N 
ATOM     17  H   UNL     1       0.056   0.202   0.487  0.00  0.00    +0.155 HD
ATOM     18  N   UNL     1      -1.484   4.078   1.190  0.00  0.00    +0.394 N 
ATOM     19  H   UNL     1      -0.788   4.486   1.826  0.00  0.00    -0.079 HD
ENDROOT
BRANCH   8  20
ATOM     20  C   UNL     1      -0.238   4.857  -1.740  0.00  0.00    +0.216 C 
ATOM     21  O   UNL     1      -0.290   6.021  -1.407  0.00  0.00    -0.276 OA
ATOM     22  N   UNL     1       0.727   4.439  -2.583  0.00  0.00    -0.315 N 
ATOM     23  H   UNL     1       0.769   3.508  -2.850  0.00  0.00    +0.149 HD
BRANCH  22  24
ATOM     24  C   UNL     1       1.715   5.393  -3.095  0.00  0.00    +0.109 C 
BRANCH  24  25
ATOM     25  C   UNL     1       2.691   4.667  -4.023  0.00  0.00    +0.054 C 
BRANCH  25  26
ATOM     26  C   UNL     1       3.706   5.647  -4.550  0.00  0.00    -0.046 A 
ATOM     27  C   UNL     1       3.462   6.329  -5.728  0.00  0.00    +0.005 A 
ATOM     28  C   UNL     1       4.391   7.232  -6.209  0.00  0.00    +0.020 A 
ATOM     29  C   UNL     1       5.570   7.447  -5.518  0.00  0.00    +0.041 A 
ATOM     30  C   UNL     1       5.816   6.761  -4.342  0.00  0.00    +0.020 A 
ATOM     31  C   UNL     1       4.884   5.861  -3.859  0.00  0.00    +0.005 A 
ATOM     32 CL   UNL     1       6.739   8.577  -6.125  0.00  0.00    -0.084 Cl
ENDBRANCH  25  26
ENDBRANCH  24  25
ENDBRANCH  22  24
ENDBRANCH   8  20
TORSDOF 4
