REMARK  Name = ZINC00805195
REMARK  5 active torsions:
REMARK  status: ('A' for Active; 'I' for Inactive)
REMARK    1  A    between atoms: C_4  and  C_7
REMARK    2  A    between atoms: N_11  and  N_12
REMARK    3  A    between atoms: C_13  and  C_14
REMARK    4  A    between atoms: C_17  and  O_22
REMARK    5  A    between atoms: C_19  and  O_20
REMARK                            x       y       z     vdW  Elec       q    Type
REMARK                         _______ _______ _______ _____ _____    ______ ____
ROOT
ATOM      1  N   UNL     1       2.824  -3.005  -0.042  0.00  0.00    -0.170 NA
ATOM      2  C   UNL     1       3.102  -4.269  -0.150  0.00  0.00    +0.145 C 
ENDROOT
BRANCH   2   3
ATOM      3  C   UNL     1       2.014  -5.256  -0.256  0.00  0.00    +0.039 A 
ATOM      4  C   UNL     1       2.310  -6.618  -0.366  0.00  0.00    +0.032 A 
ATOM      5  C   UNL     1       1.288  -7.538  -0.465  0.00  0.00    +0.061 A 
ATOM      6  C   UNL     1      -0.037  -7.116  -0.456  0.00  0.00    +0.148 A 
ATOM      7  C   UNL     1      -0.341  -5.767  -0.347  0.00  0.00    +0.102 A 
ATOM      8  C   UNL     1       0.677  -4.833  -0.240  0.00  0.00    +0.143 A 
ATOM      9 BR   UNL     1      -2.145  -5.202  -0.335  0.00  0.00    -0.043 Br
ATOM     10 BR   UNL     1       1.691  -9.380  -0.613  0.00  0.00    -0.046 Br
BRANCH   8  11
ATOM     11  O   UNL     1       0.381  -3.513  -0.128  0.00  0.00    -0.505 OA
ATOM     12  H   UNL     1       0.310  -3.052  -0.975  0.00  0.00    +0.292 HD
ENDBRANCH   8  11
BRANCH   6  13
ATOM     13  O   UNL     1      -1.038  -8.029  -0.554  0.00  0.00    -0.504 OA
ATOM     14  H   UNL     1      -1.346  -8.369   0.297  0.00  0.00    +0.292 HD
ENDBRANCH   6  13
ENDBRANCH   2   3
BRANCH   1  19
ATOM     15  C   UNL     1       3.712  -0.705   0.201  0.00  0.00    +0.184 A 
ATOM     16  N   UNL     1       4.889  -0.146   0.140  0.00  0.00    -0.152 NA
ATOM     17  N   UNL     1       5.830  -1.146  -0.141  0.00  0.00    -0.253 N 
ATOM     18  C   UNL     1       5.164  -2.314  -0.242  0.00  0.00    +0.197 A 
ATOM     19  N   UNL     1       3.857  -2.059  -0.029  0.00  0.00    -0.188 N 
ATOM     20  S   UNL     1       5.853  -3.845  -0.577  0.00  0.00    -0.010 S 
ATOM     21  H   UNL     1       6.787  -1.021  -0.243  0.00  0.00    +0.191 HD
BRANCH  15  25
ATOM     22  C   UNL     1       0.051   1.300   0.991  0.00  0.00    +0.000 A 
ATOM     23  C   UNL     1       1.233   2.017   0.949  0.00  0.00    +0.001 A 
ATOM     24  C   UNL     1       2.426   1.372   0.693  0.00  0.00    +0.011 A 
ATOM     25  C   UNL     1       2.437  -0.006   0.477  0.00  0.00    +0.021 A 
ATOM     26  C   UNL     1       1.241  -0.724   0.521  0.00  0.00    +0.011 A 
ATOM     27  C   UNL     1       0.056  -0.067   0.777  0.00  0.00    +0.001 A 
ENDBRANCH  15  25
ENDBRANCH   1  19
TORSDOF 5
