REMARK  Name = ZINC39652734
REMARK  8 active torsions:
REMARK  status: ('A' for Active; 'I' for Inactive)
REMARK    1  A    between atoms: C_1  and  C_2
REMARK    2  A    between atoms: C_2  and  O_3
REMARK    3  A    between atoms: O_3  and  C_4
REMARK    4  A    between atoms: C_9  and  C_10
REMARK    5  A    between atoms: C_10  and  C_11
REMARK    6  A    between atoms: C_11  and  N_12
REMARK    7  A    between atoms: C_13  and  C_15
REMARK    8  A    between atoms: C_26  and  C_28
REMARK                            x       y       z     vdW  Elec       q    Type
REMARK                         _______ _______ _______ _____ _____    ______ ____
ROOT
ATOM      1  C   UNL     1       5.735   1.969  -5.011  0.00  0.00    +0.100 C 
ATOM      2  C   UNL     1       5.920   1.028  -6.221  0.00  0.00    +0.121 C 
ATOM      3  N   UNL     1       7.249   1.385  -6.773  0.00  0.00    -0.296 N 
ATOM      4  C   UNL     1       8.092   1.625  -5.577  0.00  0.00    +0.115 C 
ATOM      5  C   UNL     1       7.162   2.359  -4.590  0.00  0.00    -0.004 C 
ATOM      6  C   UNL     1       7.354   3.868  -4.707  0.00  0.00    -0.010 C 
ATOM      7  C   UNL     1       8.761   4.237  -4.230  0.00  0.00    -0.082 C 
ATOM      8  N   UNL     1       8.936   3.807  -2.837  0.00  0.00    +0.379 N 
ATOM      9  C   UNL     1       8.842   2.345  -2.749  0.00  0.00    -0.082 C 
ATOM     10  C   UNL     1       7.438   1.896  -3.163  0.00  0.00    -0.010 C 
ATOM     11  C   UNL     1       7.609   1.471  -8.069  0.00  0.00    +0.249 C 
ATOM     12  O   UNL     1       8.769   1.685  -8.364  0.00  0.00    -0.270 OA
ATOM     13  H   UNL     1       9.841   4.105  -2.506  0.00  0.00    -0.086 HD
ATOM     14  H   UNL     1       8.217   4.225  -2.265  0.00  0.00    -0.086 HD
ENDROOT
BRANCH  11  15
ATOM     15  C   UNL     1       6.596   1.304  -9.130  0.00  0.00    +0.073 A 
ATOM     16  C   UNL     1       5.540   0.406  -8.957  0.00  0.00    +0.036 A 
ATOM     17  C   UNL     1       4.596   0.256  -9.952  0.00  0.00    +0.042 A 
ATOM     18  C   UNL     1       4.693   0.993 -11.122  0.00  0.00    +0.023 A 
ATOM     19  C   UNL     1       5.735   1.883 -11.301  0.00  0.00    +0.040 A 
ATOM     20  C   UNL     1       6.685   2.049 -10.310  0.00  0.00    +0.136 A 
ATOM     21  F   UNL     1       7.700   2.924 -10.484  0.00  0.00    -0.205 F 
ATOM     22 CL   UNL     1       3.284  -0.860  -9.739  0.00  0.00    -0.084 Cl
ENDBRANCH  11  15
BRANCH   1  24
ATOM     23  N   UNL     1       4.269   1.936  -3.018  0.00  0.00    -0.315 N 
ATOM     24  C   UNL     1       5.035   1.248  -3.887  0.00  0.00    +0.218 C 
ATOM     25  O   UNL     1       5.162   0.048  -3.766  0.00  0.00    -0.275 OA
ATOM     26  H   UNL     1       4.168   2.896  -3.115  0.00  0.00    +0.149 HD
BRANCH  23  27
ATOM     27  C   UNL     1       3.590   1.235  -1.926  0.00  0.00    +0.109 C 
BRANCH  27  28
ATOM     28  C   UNL     1       2.793   2.240  -1.092  0.00  0.00    +0.057 C 
BRANCH  28  34
ATOM     29  C   UNL     1       2.764   1.268   1.219  0.00  0.00    +0.124 A 
ATOM     30  C   UNL     1       2.116   0.608   2.253  0.00  0.00    +0.046 A 
ATOM     31  C   UNL     1       0.807   0.198   2.096  0.00  0.00    +0.004 A 
ATOM     32  C   UNL     1       0.141   0.445   0.909  0.00  0.00    +0.000 A 
ATOM     33  C   UNL     1       0.785   1.102  -0.123  0.00  0.00    +0.007 A 
ATOM     34  C   UNL     1       2.093   1.519   0.031  0.00  0.00    -0.004 A 
BRANCH  29  35
ATOM     35  O   UNL     1       4.053   1.672   1.371  0.00  0.00    -0.492 OA
BRANCH  35  37
ATOM     36  C   UNL     1       6.117   1.908   2.606  0.00  0.00    +0.048 C 
ATOM     37  C   UNL     1       4.681   1.380   2.621  0.00  0.00    +0.225 C 
ENDBRANCH  35  37
ENDBRANCH  29  35
ENDBRANCH  28  34
ENDBRANCH  27  28
ENDBRANCH  23  27
ENDBRANCH   1  24
TORSDOF 7
