REMARK  Name = ZINC41084216
REMARK  8 active torsions:
REMARK  status: ('A' for Active; 'I' for Inactive)
REMARK    1  A    between atoms: C_1  and  C_2
REMARK    2  A    between atoms: C_5  and  O_9
REMARK    3  A    between atoms: C_7  and  C_8
REMARK    4  A    between atoms: O_9  and  C_10
REMARK    5  A    between atoms: C_10  and  C_11
REMARK    6  A    between atoms: C_11  and  N_12
REMARK    7  A    between atoms: C_14  and  C_21
REMARK    8  A    between atoms: C_31  and  C_33
REMARK                            x       y       z     vdW  Elec       q    Type
REMARK                         _______ _______ _______ _____ _____    ______ ____
ROOT
ATOM      1  N   UNL     1      -0.360  -6.345  -2.607  0.00  0.00    -0.343 N 
ATOM      2  C   UNL     1      -1.351  -6.981  -3.262  0.00  0.00    +0.095 A 
ATOM      3  C   UNL     1      -0.818  -7.723  -4.299  0.00  0.00    +0.001 A 
ATOM      4  C   UNL     1       0.641  -7.503  -4.254  0.00  0.00    +0.007 A 
ATOM      5  C   UNL     1       0.864  -6.628  -3.179  0.00  0.00    +0.050 A 
ATOM      6  C   UNL     1       2.163  -6.226  -2.886  0.00  0.00    +0.026 A 
ATOM      7  C   UNL     1       3.215  -6.685  -3.651  0.00  0.00    +0.002 A 
ATOM      8  C   UNL     1       2.991  -7.546  -4.715  0.00  0.00    +0.001 A 
ATOM      9  C   UNL     1       1.712  -7.962  -5.015  0.00  0.00    +0.010 A 
ENDROOT
BRANCH   3  10
ATOM     10  C   UNL     1      -1.527  -8.529  -5.218  0.00  0.00    +0.026 C 
ATOM     11  C   UNL     1      -2.655  -9.217  -4.808  0.00  0.00    +0.081 C 
ATOM     12  C   UNL     1      -3.529  -9.935  -5.774  0.00  0.00    +0.153 C 
ATOM     13  N   UNL     1      -3.078 -10.514  -6.857  0.00  0.00    -0.283 NA
ATOM     14  N   UNL     1      -4.891  -9.932  -5.407  0.00  0.00    -0.152 N 
ATOM     15  C   UNL     1      -5.191  -9.751  -4.073  0.00  0.00    +0.181 C 
ATOM     16  N   UNL     1      -4.358  -9.483  -3.099  0.00  0.00    -0.152 NA
ATOM     17  C   UNL     1      -3.053  -9.282  -3.383  0.00  0.00    +0.273 C 
ATOM     18  O   UNL     1      -2.227  -9.155  -2.493  0.00  0.00    -0.268 OA
ATOM     19  S   UNL     1      -6.952  -9.952  -4.053  0.00  0.00    -0.033 S 
ATOM     20  C   UNL     1      -7.186 -10.161  -5.813  0.00  0.00    +0.131 C 
ATOM     21  N   UNL     1      -5.957 -10.105  -6.265  0.00  0.00    -0.164 NA
ATOM     22  H   UNL     1      -3.692 -10.970  -7.454  0.00  0.00    +0.188 HD
BRANCH  20  23
ATOM     23  C   UNL     1      -8.445 -10.350  -6.567  0.00  0.00    +0.027 A 
ATOM     24  C   UNL     1      -9.676 -10.378  -5.901  0.00  0.00    +0.013 A 
ATOM     25  C   UNL     1     -10.824 -10.557  -6.652  0.00  0.00    +0.020 A 
ATOM     26  C   UNL     1     -10.720 -10.702  -8.024  0.00  0.00    +0.111 A 
ATOM     27  N   UNL     1      -9.546 -10.672  -8.624  0.00  0.00    -0.263 NA
ATOM     28  C   UNL     1      -8.426 -10.498  -7.953  0.00  0.00    +0.121 A 
ENDBRANCH  20  23
ENDBRANCH   3  10
BRANCH   1  29
ATOM     29  C   UNL     1      -0.556  -5.467  -1.451  0.00  0.00    +0.163 C 
BRANCH  29  30
ATOM     30  C   UNL     1      -0.650  -4.014  -1.923  0.00  0.00    +0.250 C 
BRANCH  30  31
ATOM     31  O   UNL     1      -0.841  -3.158  -0.795  0.00  0.00    -0.490 OA
BRANCH  31  36
ATOM     32  C   UNL     1      -1.276   2.363  -1.819  0.00  0.00    +0.044 C 
ATOM     33  C   UNL     1      -1.159   0.886  -1.545  0.00  0.00    -0.047 A 
ATOM     34  C   UNL     1      -0.973   0.002  -2.592  0.00  0.00    +0.007 A 
ATOM     35  C   UNL     1      -0.866  -1.353  -2.344  0.00  0.00    +0.046 A 
ATOM     36  C   UNL     1      -0.946  -1.826  -1.042  0.00  0.00    +0.121 A 
ATOM     37  C   UNL     1      -1.133  -0.938   0.007  0.00  0.00    +0.049 A 
ATOM     38  C   UNL     1      -1.234   0.417  -0.247  0.00  0.00    -0.044 A 
ATOM     39  C   UNL     1      -1.431   1.383   0.892  0.00  0.00    +0.044 C 
ENDBRANCH  31  36
ENDBRANCH  30  31
ENDBRANCH  29  30
ENDBRANCH   1  29
TORSDOF 6
