REMARK  Name = ZINC09448516
REMARK  10 active torsions:
REMARK  status: ('A' for Active; 'I' for Inactive)
REMARK    1  A    between atoms: C_1  and  C_2
REMARK    2  A    between atoms: C_2  and  C_3
REMARK    3  A    between atoms: C_3  and  N_4
REMARK    4  A    between atoms: N_4  and  C_5
REMARK    5  A    between atoms: C_5  and  C_6
REMARK    6  A    between atoms: C_9  and  C_11
REMARK    7  A    between atoms: C_16  and  C_18
REMARK    8  A    between atoms: C_18  and  N_19
REMARK    9  A    between atoms: C_22  and  C_27
REMARK   10  A    between atoms: C_27  and  C_28
REMARK                            x       y       z     vdW  Elec       q    Type
REMARK                         _______ _______ _______ _____ _____    ______ ____
ROOT
ATOM      1  N   UNL     1      -1.137   1.940   0.018  0.00  0.00    -0.216 N 
ATOM      2  C   UNL     1      -0.871   3.261   0.028  0.00  0.00    +0.244 C 
ATOM      3  O   UNL     1      -1.675   4.169   0.040  0.00  0.00    -0.273 OA
ATOM      4  C   UNL     1       0.640   3.376   0.014  0.00  0.00    +0.165 C 
ATOM      5  N   UNL     1       1.094   1.974   0.002  0.00  0.00    -0.287 N 
ATOM      6  C   UNL     1      -0.014   1.211   0.009  0.00  0.00    +0.310 C 
ATOM      7  O   UNL     1       0.002  -0.004   0.002  0.00  0.00    -0.252 OA
ATOM      8  H   UNL     1       2.012   1.662  -0.008  0.00  0.00    +0.151 HD
ENDROOT
BRANCH   1   9
ATOM      9  C   UNL     1      -2.487   1.371   0.020  0.00  0.00    +0.213 C 
BRANCH   9  11
ATOM     10  N   UNL     1      -4.165   0.653   1.689  0.00  0.00    -0.291 N 
ATOM     11  C   UNL     1      -2.944   1.168   1.441  0.00  0.00    +0.234 C 
ATOM     12  O   UNL     1      -2.214   1.469   2.362  0.00  0.00    -0.274 OA
BRANCH  10  13
ATOM     13  C   UNL     1      -5.046   0.290   0.577  0.00  0.00    +0.108 C 
BRANCH  13  15
ATOM     14  C   UNL     1      -5.714  -1.545  -0.981  0.00  0.00    +0.005 C 
ATOM     15  C   UNL     1      -4.794  -1.166   0.180  0.00  0.00    +0.016 C 
ENDBRANCH  13  15
ENDBRANCH  10  13
BRANCH  10  16
ATOM     16  C   UNL     1      -4.609   0.456   3.071  0.00  0.00    +0.205 C 
BRANCH  16  17
ATOM     17  C   UNL     1      -5.313   1.698   3.554  0.00  0.00    +0.235 A 
ATOM     18  N   UNL     1      -6.588   1.948   3.452  0.00  0.00    -0.110 NA
ATOM     19  N   UNL     1      -6.845   3.098   3.970  0.00  0.00    -0.107 NA
ATOM     20  C   UNL     1      -5.730   3.626   4.426  0.00  0.00    +0.255 A 
ATOM     21  O   UNL     1      -4.739   2.745   4.174  0.00  0.00    -0.418 OA
BRANCH  20  22
ATOM     22  C   UNL     1      -5.590   4.931   5.089  0.00  0.00    +0.076 A 
ATOM     23  C   UNL     1      -6.561   5.871   5.378  0.00  0.00    +0.021 A 
ATOM     24  C   UNL     1      -6.182   7.030   6.014  0.00  0.00    +0.008 A 
ATOM     25  C   UNL     1      -4.875   7.215   6.336  0.00  0.00    +0.046 A 
ATOM     26  S   UNL     1      -4.121   5.710   5.740  0.00  0.00    -0.092 S 
ENDBRANCH  20  22
ENDBRANCH  16  17
ENDBRANCH  10  16
ENDBRANCH   9  11
ENDBRANCH   1   9
BRANCH   4  27
ATOM     27  C   UNL     1       1.113   4.105  -1.245  0.00  0.00    +0.069 C 
BRANCH  27  28
ATOM     28  C   UNL     1       2.616   4.218  -1.225  0.00  0.00    -0.020 A 
ATOM     29  C   UNL     1       3.332   5.263  -0.781  0.00  0.00    +0.087 A 
ATOM     30  N   UNL     1       4.669   5.006  -0.920  0.00  0.00    -0.360 N 
ATOM     31  H   UNL     1       5.382   5.613  -0.668  0.00  0.00    +0.165 HD
ATOM     32  C   UNL     1       4.850   3.757  -1.471  0.00  0.00    +0.047 A 
ATOM     33  C   UNL     1       3.572   3.207  -1.681  0.00  0.00    +0.003 A 
ATOM     34  C   UNL     1       3.445   1.934  -2.241  0.00  0.00    +0.010 A 
ATOM     35  C   UNL     1       4.565   1.225  -2.574  0.00  0.00    +0.001 A 
ATOM     36  C   UNL     1       5.827   1.761  -2.364  0.00  0.00    +0.002 A 
ATOM     37  C   UNL     1       5.976   3.017  -1.817  0.00  0.00    +0.026 A 
ENDBRANCH  27  28
ENDBRANCH   4  27
TORSDOF 9
