REMARK  Name = ZINC39696092
REMARK  8 active torsions:
REMARK  status: ('A' for Active; 'I' for Inactive)
REMARK    1  A    between atoms: C_1  and  C_2
REMARK    2  A    between atoms: C_2  and  C_3
REMARK    3  A    between atoms: C_6  and  C_9
REMARK    4  A    between atoms: C_9  and  C_11
REMARK    5  A    between atoms: C_9  and  N_12
REMARK    6  A    between atoms: C_13  and  C_15
REMARK    7  A    between atoms: C_26  and  C_28
REMARK    8  A    between atoms: C_32  and  C_34
REMARK                            x       y       z     vdW  Elec       q    Type
REMARK                         _______ _______ _______ _____ _____    ______ ____
ROOT
ATOM      1  C   UNL     1      -6.577  -5.302  -2.602  0.00  0.00    +0.100 C 
ATOM      2  C   UNL     1      -5.184  -5.959  -2.474  0.00  0.00    +0.121 C 
ATOM      3  N   UNL     1      -5.402  -7.129  -1.591  0.00  0.00    -0.296 N 
ATOM      4  C   UNL     1      -6.711  -7.677  -2.021  0.00  0.00    +0.115 C 
ATOM      5  C   UNL     1      -7.576  -6.433  -2.307  0.00  0.00    -0.004 C 
ATOM      6  C   UNL     1      -8.421  -6.087  -1.085  0.00  0.00    -0.010 C 
ATOM      7  C   UNL     1      -9.445  -7.201  -0.846  0.00  0.00    -0.082 C 
ATOM      8  N   UNL     1     -10.299  -7.345  -2.031  0.00  0.00    +0.379 N 
ATOM      9  C   UNL     1      -9.491  -7.768  -3.182  0.00  0.00    -0.082 C 
ATOM     10  C   UNL     1      -8.470  -6.679  -3.519  0.00  0.00    -0.010 C 
ATOM     11  C   UNL     1      -4.593  -7.591  -0.617  0.00  0.00    +0.247 C 
ATOM     12  O   UNL     1      -3.606  -6.958  -0.296  0.00  0.00    -0.270 OA
ATOM     13  H   UNL     1     -11.010  -8.037  -1.849  0.00  0.00    -0.086 HD
ATOM     14  H   UNL     1     -10.738  -6.461  -2.237  0.00  0.00    -0.086 HD
ENDROOT
BRANCH  11  15
ATOM     15  C   UNL     1      -4.905  -8.867   0.059  0.00  0.00    +0.037 A 
ATOM     16  C   UNL     1      -5.741  -9.801  -0.556  0.00  0.00    +0.014 A 
ATOM     17  C   UNL     1      -6.029 -10.990   0.080  0.00  0.00    +0.016 A 
ATOM     18  C   UNL     1      -5.490 -11.259   1.327  0.00  0.00    +0.021 A 
ATOM     19  C   UNL     1      -4.661 -10.337   1.943  0.00  0.00    -0.036 A 
ATOM     20  C   UNL     1      -4.361  -9.147   1.314  0.00  0.00    +0.017 A 
ATOM     21  C   UNL     1      -4.079 -10.638   3.300  0.00  0.00    +0.045 C 
ATOM     22 BR   UNL     1      -5.891 -12.892   2.193  0.00  0.00    -0.050 Br
ENDBRANCH  11  15
BRANCH   1  24
ATOM     23  N   UNL     1      -7.610  -3.197  -1.813  0.00  0.00    -0.308 N 
ATOM     24  C   UNL     1      -6.729  -4.192  -1.593  0.00  0.00    +0.219 C 
ATOM     25  O   UNL     1      -6.057  -4.195  -0.583  0.00  0.00    -0.275 OA
ATOM     26  H   UNL     1      -8.148  -3.195  -2.620  0.00  0.00    +0.149 HD
BRANCH  23  27
ATOM     27  C   UNL     1      -7.757  -2.119  -0.832  0.00  0.00    +0.100 C 
ATOM     28  C   UNL     1      -8.740  -2.551   0.258  0.00  0.00    +0.033 C 
BRANCH  27  32
ATOM     29  C   UNL     1      -9.238   1.383  -2.780  0.00  0.00    -0.048 A 
ATOM     30  C   UNL     1      -8.262   1.494  -1.806  0.00  0.00    +0.004 A 
ATOM     31  C   UNL     1      -7.784   0.360  -1.176  0.00  0.00    +0.006 A 
ATOM     32  C   UNL     1      -8.280  -0.883  -1.519  0.00  0.00    -0.027 A 
ATOM     33  C   UNL     1      -9.256  -0.994  -2.491  0.00  0.00    +0.006 A 
ATOM     34  C   UNL     1      -9.738   0.140  -3.119  0.00  0.00    +0.004 A 
BRANCH  29  36
ATOM     35  C   UNL     1     -10.954   3.170  -2.687  0.00  0.00    +0.009 C 
ATOM     36  C   UNL     1      -9.760   2.618  -3.467  0.00  0.00    +0.032 C 
ENDBRANCH  29  36
ENDBRANCH  27  32
ENDBRANCH  23  27
ENDBRANCH   1  24
TORSDOF 5
