REMARK  Name = ZINC11376995
REMARK  9 active torsions:
REMARK  status: ('A' for Active; 'I' for Inactive)
REMARK    1  A    between atoms: C_1  and  C_2
REMARK    2  A    between atoms: C_2  and  C_27
REMARK    3  A    between atoms: N_5  and  C_9
REMARK    4  A    between atoms: C_9  and  C_10
REMARK    5  A    between atoms: C_10  and  C_12
REMARK    6  A    between atoms: C_10  and  O_26
REMARK    7  A    between atoms: C_12  and  O_13
REMARK    8  A    between atoms: O_13  and  C_14
REMARK    9  A    between atoms: C_17  and  C_20
REMARK                            x       y       z     vdW  Elec       q    Type
REMARK                         _______ _______ _______ _____ _____    ______ ____
ROOT
ATOM      1  C   UNL     1      -2.481   1.520   0.020  0.00  0.00    +0.152 C 
ENDROOT
BRANCH   1   6
ATOM      2  C   UNL     1       2.038   1.925   1.252  0.00  0.00    +0.047 C 
ATOM      3  C   UNL     1       1.181   2.140   0.002  0.00  0.00    +0.135 C 
ATOM      4  C   UNL     1      -0.014   1.208   0.009  0.00  0.00    +0.251 C 
ATOM      5  O   UNL     1       0.002  -0.004   0.002  0.00  0.00    -0.272 OA
ATOM      6  N   UNL     1      -1.099   2.007   0.017  0.00  0.00    -0.221 N 
ATOM      7  C   UNL     1      -0.759   3.301   0.026  0.00  0.00    +0.310 C 
ATOM      8  O   UNL     1      -1.564   4.212   0.039  0.00  0.00    -0.252 OA
ATOM      9  N   UNL     1       0.574   3.482   0.015  0.00  0.00    -0.281 N 
ATOM     10  H   UNL     1       1.044   4.331   0.015  0.00  0.00    +0.152 HD
BRANCH   3  11
ATOM     11  C   UNL     1       2.004   1.938  -1.244  0.00  0.00    -0.014 A 
ATOM     12  C   UNL     1       2.050   0.696  -1.848  0.00  0.00    +0.006 A 
ATOM     13  C   UNL     1       2.800   0.511  -2.994  0.00  0.00    +0.001 A 
ATOM     14  C   UNL     1       3.513   1.567  -3.531  0.00  0.00    +0.015 A 
ATOM     15  C   UNL     1       3.472   2.809  -2.924  0.00  0.00    +0.018 A 
ATOM     16  C   UNL     1       2.716   2.994  -1.780  0.00  0.00    +0.021 A 
ATOM     17 BR   UNL     1       4.447   4.253  -3.658  0.00  0.00    -0.050 Br
ENDBRANCH   3  11
ENDBRANCH   1   6
BRANCH   1  18
ATOM     18  C   UNL     1      -2.956   1.342   1.463  0.00  0.00    +0.170 C 
BRANCH  18  19
ATOM     19  O   UNL     1      -3.004   2.615   2.110  0.00  0.00    -0.387 OA
ATOM     20  H   UNL     1      -3.601   3.248   1.688  0.00  0.00    +0.210 HD
ENDBRANCH  18  19
BRANCH  18  21
ATOM     21  C   UNL     1      -4.352   0.716   1.467  0.00  0.00    +0.261 C 
BRANCH  21  22
ATOM     22  O   UNL     1      -4.748   0.442   2.813  0.00  0.00    -0.489 OA
BRANCH  22  23
ATOM     23  C   UNL     1      -5.972  -0.119   2.994  0.00  0.00    +0.121 A 
ATOM     24  C   UNL     1      -6.777  -0.395   1.896  0.00  0.00    +0.046 A 
ATOM     25  C   UNL     1      -8.017  -0.970   2.077  0.00  0.00    +0.012 A 
ATOM     26  C   UNL     1      -8.468  -1.263   3.362  0.00  0.00    -0.018 A 
ATOM     27  C   UNL     1      -7.660  -0.980   4.462  0.00  0.00    +0.012 A 
ATOM     28  C   UNL     1      -6.418  -0.410   4.276  0.00  0.00    +0.046 A 
BRANCH  26  29
ATOM     29  C   UNL     1      -9.804  -1.877   3.560  0.00  0.00    -0.018 A 
ATOM     30  C   UNL     1     -10.253  -2.176   4.845  0.00  0.00    +0.008 A 
ATOM     31  C   UNL     1     -11.499  -2.742   5.023  0.00  0.00    +0.001 A 
ATOM     32  C   UNL     1     -12.298  -3.021   3.929  0.00  0.00    +0.000 A 
ATOM     33  C   UNL     1     -11.855  -2.731   2.651  0.00  0.00    +0.001 A 
ATOM     34  C   UNL     1     -10.613  -2.160   2.461  0.00  0.00    +0.008 A 
ENDBRANCH  26  29
ENDBRANCH  22  23
ENDBRANCH  21  22
ENDBRANCH  18  21
ENDBRANCH   1  18
TORSDOF 8
