REMARK  Name = ZINC64870917
REMARK  5 active torsions:
REMARK  status: ('A' for Active; 'I' for Inactive)
REMARK    1  A    between atoms: C_5  and  C_7
REMARK    2  A    between atoms: C_7  and  N_8
REMARK    3  A    between atoms: C_14  and  C_21
REMARK    4  A    between atoms: C_24  and  C_28
REMARK    5  A    between atoms: C_31  and  C_34
REMARK                            x       y       z     vdW  Elec       q    Type
REMARK                         _______ _______ _______ _____ _____    ______ ____
ROOT
ATOM      1  N   UNL     1       1.488  -2.679   1.333  0.00  0.00    -0.256 N 
ATOM      2  C   UNL     1       2.762  -2.880   1.732  0.00  0.00    +0.265 A 
ATOM      3  O   UNL     1       3.693  -2.657   0.982  0.00  0.00    -0.267 OA
ATOM      4  C   UNL     1       2.996  -3.376   3.100  0.00  0.00    +0.063 A 
ATOM      5  C   UNL     1       4.281  -3.607   3.586  0.00  0.00    +0.016 A 
ATOM      6  C   UNL     1       4.446  -4.071   4.874  0.00  0.00    +0.008 A 
ATOM      7  C   UNL     1       3.345  -4.307   5.682  0.00  0.00    -0.000 A 
ATOM      8  C   UNL     1       2.066  -4.081   5.213  0.00  0.00    +0.034 A 
ATOM      9  C   UNL     1       1.880  -3.614   3.921  0.00  0.00    +0.056 A 
ATOM     10  N   UNL     1       0.613  -3.374   3.410  0.00  0.00    -0.307 N 
ATOM     11  H   UNL     1      -0.167  -3.534   3.965  0.00  0.00    +0.170 HD
ATOM     12  C   UNL     1       0.455  -2.917   2.156  0.00  0.00    +0.330 A 
ATOM     13  O   UNL     1      -0.673  -2.715   1.748  0.00  0.00    -0.246 OA
ENDROOT
BRANCH   7  14
ATOM     14  C   UNL     1       3.545  -4.814   7.087  0.00  0.00    +0.242 C 
ATOM     15  N   UNL     1       4.797  -5.609   7.176  0.00  0.00    -0.265 NA
ATOM     16  C   UNL     1       5.140  -5.517   8.621  0.00  0.00    +0.180 C 
ATOM     17  N   UNL     1       4.742  -4.137   8.985  0.00  0.00    -0.177 NA
ATOM     18  O   UNL     1       3.739  -3.714   7.995  0.00  0.00    -0.274 OA
ATOM     19  H   UNL     1       4.638  -6.568   6.903  0.00  0.00    +0.127 HD
ATOM     20  H   UNL     1       5.539  -3.518   8.981  0.00  0.00    +0.156 HD
BRANCH  16  21
ATOM     21  C   UNL     1       6.619  -5.719   8.829  0.00  0.00    -0.014 A 
ATOM     22  C   UNL     1       7.337  -6.517   7.958  0.00  0.00    +0.007 A 
ATOM     23  C   UNL     1       8.693  -6.702   8.149  0.00  0.00    +0.013 A 
ATOM     24  C   UNL     1       9.332  -6.088   9.210  0.00  0.00    +0.055 A 
ATOM     25  C   UNL     1       8.614  -5.289  10.081  0.00  0.00    +0.013 A 
ATOM     26  C   UNL     1       7.258  -5.101   9.887  0.00  0.00    +0.007 A 
BRANCH  24  27
ATOM     27  C   UNL     1      10.811  -6.291   9.419  0.00  0.00    +0.417 C 
ATOM     28  F   UNL     1      11.519  -5.303   8.726  0.00  0.00    -0.166 F 
ATOM     29  F   UNL     1      11.105  -6.204  10.784  0.00  0.00    -0.166 F 
ATOM     30  F   UNL     1      11.181  -7.552   8.941  0.00  0.00    -0.166 F 
ENDBRANCH  24  27
ENDBRANCH  16  21
ENDBRANCH   7  14
BRANCH   1  31
ATOM     31  C   UNL     1       1.228  -2.186  -0.022  0.00  0.00    +0.168 C 
BRANCH  31  36
ATOM     32  C   UNL     1      -0.017   1.378   0.010  0.00  0.00    +0.000 A 
ATOM     33  C   UNL     1       1.171   2.087   0.002  0.00  0.00    +0.003 A 
ATOM     34  C   UNL     1       2.377   1.414  -0.013  0.00  0.00    +0.039 A 
ATOM     35  C   UNL     1       2.397   0.029  -0.021  0.00  0.00    +0.128 A 
ATOM     36  C   UNL     1       1.208  -0.679  -0.013  0.00  0.00    +0.008 A 
ATOM     37  C   UNL     1       0.002  -0.004   0.002  0.00  0.00    +0.008 A 
ATOM     38  F   UNL     1       3.577  -0.630  -0.036  0.00  0.00    -0.205 F 
ENDBRANCH  31  36
ENDBRANCH   1  31
TORSDOF 5
