REMARK  Name = ZINC07158125
REMARK  10 active torsions:
REMARK  status: ('A' for Active; 'I' for Inactive)
REMARK    1  A    between atoms: C_1  and  C_2
REMARK    2  A    between atoms: C_2  and  C_4
REMARK    3  A    between atoms: C_2  and  N_7
REMARK    4  A    between atoms: C_4  and  C_5
REMARK    5  A    between atoms: C_4  and  C_6
REMARK    6  A    between atoms: C_8  and  C_10
REMARK    7  A    between atoms: C_10  and  S_11
REMARK    8  A    between atoms: S_11  and  C_12
REMARK    9  A    between atoms: C_15  and  C_18
REMARK   10  A    between atoms: N_16  and  N_17
REMARK                            x       y       z     vdW  Elec       q    Type
REMARK                         _______ _______ _______ _____ _____    ______ ____
ROOT
ATOM      1  C   UNL     1      -5.739  -1.846  -2.652  0.00  0.00    +0.209 A 
ATOM      2  N   UNL     1      -6.329  -2.173  -1.524  0.00  0.00    -0.121 NA
ATOM      3  N   UNL     1      -7.523  -2.590  -1.756  0.00  0.00    -0.127 NA
ATOM      4  C   UNL     1      -7.767  -2.555  -3.045  0.00  0.00    +0.182 A 
ATOM      5  N   UNL     1      -6.634  -2.073  -3.658  0.00  0.00    -0.224 N 
ENDROOT
BRANCH   4   6
ATOM      6  C   UNL     1      -9.025  -2.954  -3.712  0.00  0.00    +0.022 A 
ATOM      7  C   UNL     1      -9.049  -3.171  -5.091  0.00  0.00    +0.012 A 
ATOM      8  C   UNL     1     -10.226  -3.543  -5.707  0.00  0.00    +0.002 A 
ATOM      9  C   UNL     1     -11.380  -3.702  -4.962  0.00  0.00    +0.015 A 
ATOM     10  C   UNL     1     -11.364  -3.489  -3.595  0.00  0.00    +0.019 A 
ATOM     11  C   UNL     1     -10.191  -3.122  -2.965  0.00  0.00    +0.027 A 
ATOM     12 BR   UNL     1     -12.948  -3.709  -2.586  0.00  0.00    -0.050 Br
ENDBRANCH   4   6
BRANCH   5  13
ATOM     13  N   UNL     1      -6.443  -1.866  -4.995  0.00  0.00    -0.295 N 
ATOM     14  H   UNL     1      -6.069  -2.692  -5.439  0.00  0.00    +0.163 HD
ATOM     15  H   UNL     1      -7.299  -1.572  -5.441  0.00  0.00    +0.163 HD
ENDBRANCH   5  13
BRANCH   1  16
ATOM     16  S   UNL     1      -4.100  -1.225  -2.832  0.00  0.00    -0.075 S 
BRANCH  16  17
ATOM     17  C   UNL     1      -3.465  -1.164  -1.134  0.00  0.00    +0.173 C 
BRANCH  17  19
ATOM     18  N   UNL     1      -1.372  -0.511   0.012  0.00  0.00    -0.312 N 
ATOM     19  C   UNL     1      -2.051  -0.643  -1.145  0.00  0.00    +0.224 C 
ATOM     20  O   UNL     1      -1.524  -0.341  -2.194  0.00  0.00    -0.275 OA
ATOM     21  H   UNL     1      -1.794  -0.752   0.852  0.00  0.00    +0.149 HD
BRANCH  18  23
ATOM     22  C   UNL     1      -0.019   1.526   0.010  0.00  0.00    +0.028 C 
ATOM     23  C   UNL     1       0.002  -0.004   0.002  0.00  0.00    +0.072 C 
BRANCH  23  24
ATOM     24  C   UNL     1       0.742  -0.511   1.242  0.00  0.00    +0.003 C 
ATOM     25  C   UNL     1       2.178   0.019   1.231  0.00  0.00    +0.009 C 
ATOM     26  C   UNL     1       0.026  -0.018   2.500  0.00  0.00    +0.009 C 
ENDBRANCH  23  24
ENDBRANCH  18  23
ENDBRANCH  17  19
ENDBRANCH  16  17
ENDBRANCH   1  16
TORSDOF 7
