REMARK  Name = ZINC33568042
REMARK  5 active torsions:
REMARK  status: ('A' for Active; 'I' for Inactive)
REMARK    1  A    between atoms: C_1  and  C_2
REMARK    2  A    between atoms: C_5  and  N_9
REMARK    3  A    between atoms: C_7  and  C_8
REMARK    4  A    between atoms: C_12  and  C_13
REMARK    5  A    between atoms: C_16  and  C_18
REMARK                            x       y       z     vdW  Elec       q    Type
REMARK                         _______ _______ _______ _____ _____    ______ ____
ROOT
ATOM      1  N   UNL     1       0.320  -4.174  -0.355  0.00  0.00    -0.231 NA
ATOM      2  C   UNL     1      -0.659  -4.864  -0.906  0.00  0.00    +0.140 C 
ATOM      3  C   UNL     1      -1.729  -4.216  -1.683  0.00  0.00    +0.060 C 
ATOM      4  C   UNL     1      -1.913  -2.895  -1.967  0.00  0.00    +0.065 C 
ATOM      5  S   UNL     1      -2.719  -5.626  -2.153  0.00  0.00    -0.028 S 
ATOM      6  C   UNL     1      -1.748  -6.899  -1.364  0.00  0.00    +0.282 C 
ATOM      7  O   UNL     1      -1.951  -8.098  -1.348  0.00  0.00    -0.262 OA
ATOM      8  N   UNL     1      -0.734  -6.217  -0.796  0.00  0.00    -0.260 N 
ATOM      9  H   UNL     1      -0.053  -6.697  -0.299  0.00  0.00    +0.157 HD
ENDROOT
BRANCH   1  14
ATOM     10  C   UNL     1       0.204   1.466  -0.468  0.00  0.00    +0.044 C 
ATOM     11  C   UNL     1       0.235  -0.041  -0.438  0.00  0.00    -0.047 A 
ATOM     12  C   UNL     1      -0.446  -0.724   0.556  0.00  0.00    +0.006 A 
ATOM     13  C   UNL     1      -0.422  -2.102   0.590  0.00  0.00    +0.028 A 
ATOM     14  C   UNL     1       0.291  -2.809  -0.383  0.00  0.00    +0.066 A 
ATOM     15  C   UNL     1       0.976  -2.112  -1.383  0.00  0.00    +0.031 A 
ATOM     16  C   UNL     1       0.938  -0.734  -1.407  0.00  0.00    -0.046 A 
ATOM     17  C   UNL     1       1.670   0.019  -2.488  0.00  0.00    +0.044 C 
ENDBRANCH   1  14
BRANCH   4  18
ATOM     18  C   UNL     1      -2.959  -2.497  -2.830  0.00  0.00    +0.130 A 
ATOM     19  C   UNL     1      -3.254  -1.199  -3.205  0.00  0.00    +0.050 A 
ATOM     20  C   UNL     1      -4.356  -1.268  -4.062  0.00  0.00    +0.050 A 
ATOM     21  C   UNL     1      -4.693  -2.586  -4.180  0.00  0.00    +0.137 A 
ATOM     22  O   UNL     1      -3.841  -3.318  -3.437  0.00  0.00    -0.455 OA
BRANCH  21  23
ATOM     23  C   UNL     1      -5.803  -3.120  -4.991  0.00  0.00    +0.037 A 
ATOM     24  C   UNL     1      -7.083  -2.570  -4.880  0.00  0.00    +0.013 A 
ATOM     25  C   UNL     1      -8.116  -3.073  -5.641  0.00  0.00    +0.002 A 
ATOM     26  C   UNL     1      -7.890  -4.122  -6.515  0.00  0.00    +0.021 A 
ATOM     27  C   UNL     1      -6.626  -4.674  -6.632  0.00  0.00    +0.060 A 
ATOM     28  C   UNL     1      -5.579  -4.176  -5.880  0.00  0.00    +0.070 A 
ATOM     29 CL   UNL     1      -3.993  -4.864  -6.032  0.00  0.00    -0.081 Cl
ATOM     30 CL   UNL     1      -6.353  -5.990  -7.731  0.00  0.00    -0.082 Cl
ENDBRANCH  21  23
ENDBRANCH   4  18
TORSDOF 3
