REMARK  Name = ZINC39944853
REMARK  10 active torsions:
REMARK  status: ('A' for Active; 'I' for Inactive)
REMARK    1  A    between atoms: C_1  and  C_2
REMARK    2  A    between atoms: C_5  and  C_9
REMARK    3  A    between atoms: C_7  and  C_8
REMARK    4  A    between atoms: C_18  and  C_21
REMARK    5  A    between atoms: C_21  and  O_23
REMARK    6  A    between atoms: O_23  and  C_24
REMARK    7  A    between atoms: C_24  and  C_26
REMARK    8  A    between atoms: C_24  and  C_27
REMARK    9  A    between atoms: C_27  and  C_29
REMARK   10  A    between atoms: C_37  and  C_39
REMARK                            x       y       z     vdW  Elec       q    Type
REMARK                         _______ _______ _______ _____ _____    ______ ____
ROOT
ATOM      1  C   UNL     1       0.059  -4.275  -0.021  0.00  0.00    -0.003 C 
ATOM      2  C   UNL     1       1.319  -4.773   0.690  0.00  0.00    +0.015 C 
ATOM      3  C   UNL     1       1.339  -6.303   0.682  0.00  0.00    -0.009 C 
ATOM      4  C   UNL     1       0.100  -6.833   1.407  0.00  0.00    +0.007 C 
ATOM      5  C   UNL     1      -1.159  -6.335   0.695  0.00  0.00    -0.009 C 
ATOM      6  C   UNL     1      -1.179  -4.805   0.704  0.00  0.00    +0.015 C 
ATOM      7  C   UNL     1      -1.161  -6.837  -0.750  0.00  0.00    +0.021 C 
ATOM      8  C   UNL     1       0.078  -6.307  -1.475  0.00  0.00    +0.069 C 
ATOM      9  C   UNL     1       1.337  -6.805  -0.764  0.00  0.00    +0.021 C 
ATOM     10  C   UNL     1       0.058  -4.777  -1.467  0.00  0.00    +0.029 C 
ENDROOT
BRANCH   1  15
ATOM     11  C   UNL     1      -0.018   1.503   0.010  0.00  0.00    +0.044 C 
ATOM     12  C   UNL     1       0.002  -0.004   0.002  0.00  0.00    -0.048 A 
ATOM     13  C   UNL     1       0.006  -0.689  -1.199  0.00  0.00    +0.004 A 
ATOM     14  C   UNL     1       0.025  -2.071  -1.207  0.00  0.00    +0.004 A 
ATOM     15  C   UNL     1       0.040  -2.768  -0.013  0.00  0.00    -0.041 A 
ATOM     16  C   UNL     1       0.037  -2.084   1.188  0.00  0.00    +0.007 A 
ATOM     17  C   UNL     1       0.023  -0.702   1.195  0.00  0.00    -0.047 A 
ATOM     18  C   UNL     1       0.025   0.045   2.504  0.00  0.00    +0.044 C 
ENDBRANCH   1  15
BRANCH   8  19
ATOM     19  C   UNL     1       0.076  -6.802  -2.899  0.00  0.00    +0.314 C 
ATOM     20  O   UNL     1       0.061  -6.012  -3.813  0.00  0.00    -0.250 OA
BRANCH  19  21
ATOM     21  O   UNL     1       0.092  -8.120  -3.151  0.00  0.00    -0.453 OA
BRANCH  21  22
ATOM     22  C   UNL     1       0.090  -8.518  -4.524  0.00  0.00    +0.244 C 
ATOM     23  C   UNL     1       1.531  -8.641  -5.021  0.00  0.00    +0.061 C 
BRANCH  22  24
ATOM     24  C   UNL     1      -0.604  -9.848  -4.660  0.00  0.00    +0.202 C 
ATOM     25  O   UNL     1      -0.810 -10.530  -3.676  0.00  0.00    -0.288 OA
BRANCH  24  26
ATOM     26  C   UNL     1      -1.015 -10.303  -5.931  0.00  0.00    +0.030 C 
ATOM     27  C   UNL     1      -0.853  -9.657  -7.143  0.00  0.00    +0.007 A 
ATOM     28  C   UNL     1      -0.269  -8.420  -7.504  0.00  0.00    +0.010 A 
ATOM     29  C   UNL     1      -0.248  -8.027  -8.797  0.00  0.00    +0.001 A 
ATOM     30  C   UNL     1      -0.792  -8.807  -9.830  0.00  0.00    +0.002 A 
ATOM     31  C   UNL     1      -1.373 -10.003  -9.593  0.00  0.00    +0.026 A 
ATOM     32  C   UNL     1      -1.437 -10.506  -8.211  0.00  0.00    +0.043 A 
ATOM     33  N   UNL     1      -1.929 -11.601  -7.706  0.00  0.00    -0.377 N 
ATOM     34  C   UNL     1      -1.720 -11.602  -6.254  0.00  0.00    +0.111 C 
ATOM     35  C   UNL     1      -3.067 -11.665  -5.532  0.00  0.00    +0.035 C 
ATOM     36  H   UNL     1      -2.361 -12.307  -8.211  0.00  0.00    +0.160 HD
ENDBRANCH  24  26
ENDBRANCH  22  24
ENDBRANCH  21  22
ENDBRANCH  19  21
ENDBRANCH   8  19
TORSDOF 6
