REMARK  Name = ZINC33313613
REMARK  8 active torsions:
REMARK  status: ('A' for Active; 'I' for Inactive)
REMARK    1  A    between atoms: C_1  and  C_2
REMARK    2  A    between atoms: C_2  and  C_3
REMARK    3  A    between atoms: C_3  and  N_4
REMARK    4  A    between atoms: C_8  and  C_9
REMARK    5  A    between atoms: C_10  and  N_21
REMARK    6  A    between atoms: C_13  and  C_20
REMARK    7  A    between atoms: N_21  and  C_22
REMARK    8  A    between atoms: C_22  and  C_23
REMARK                            x       y       z     vdW  Elec       q    Type
REMARK                         _______ _______ _______ _____ _____    ______ ____
ROOT
ATOM      1  C   UNL     1      -4.493  -0.232   2.992  0.00  0.00    +0.081 A 
ATOM      2  C   UNL     1      -3.991  -0.196   1.670  0.00  0.00    +0.134 A 
ATOM      3  N   UNL     1      -4.748  -0.628   0.672  0.00  0.00    -0.214 NA
ATOM      4  C   UNL     1      -5.980  -1.095   0.880  0.00  0.00    +0.145 A 
ATOM      5  C   UNL     1      -6.737  -1.540  -0.219  0.00  0.00    -0.007 A 
ATOM      6  C   UNL     1      -7.998  -2.019  -0.017  0.00  0.00    +0.008 A 
ATOM      7  C   UNL     1      -8.521  -2.060   1.283  0.00  0.00    +0.019 A 
ATOM      8  C   UNL     1      -7.780  -1.627   2.327  0.00  0.00    +0.096 A 
ATOM      9  N   UNL     1      -6.518  -1.148   2.135  0.00  0.00    -0.267 N 
ATOM     10  C   UNL     1      -5.804  -0.724   3.200  0.00  0.00    +0.267 A 
ATOM     11  O   UNL     1      -6.278  -0.770   4.322  0.00  0.00    -0.267 OA
ATOM     12  C   UNL     1      -6.159  -1.489  -1.609  0.00  0.00    +0.047 C 
ENDROOT
BRANCH   1  17
ATOM     13  N   UNL     1      -2.914  -2.731   6.104  0.00  0.00    -0.255 N 
ATOM     14  C   UNL     1      -3.419  -2.086   5.066  0.00  0.00    +0.258 C 
ATOM     15  O   UNL     1      -3.985  -2.687   4.170  0.00  0.00    -0.269 OA
ATOM     16  C   UNL     1      -3.281  -0.669   5.025  0.00  0.00    +0.077 C 
ATOM     17  C   UNL     1      -3.706   0.217   4.079  0.00  0.00    +0.037 C 
ATOM     18  S   UNL     1      -2.391  -0.369   6.546  0.00  0.00    -0.061 S 
ATOM     19  C   UNL     1      -2.285  -2.065   7.098  0.00  0.00    +0.121 C 
ATOM     20  S   UNL     1      -1.563  -2.688   8.519  0.00  0.00    -0.027 S 
BRANCH  13  21
ATOM     21  C   UNL     1      -3.039  -4.189   6.178  0.00  0.00    +0.115 C 
BRANCH  21  23
ATOM     22  C   UNL     1      -1.959  -6.362   5.583  0.00  0.00    +0.005 C 
ATOM     23  C   UNL     1      -1.829  -4.840   5.505  0.00  0.00    +0.016 C 
ENDBRANCH  21  23
ENDBRANCH  13  21
ENDBRANCH   1  17
BRANCH   2  24
ATOM     24  N   UNL     1      -2.723   0.281   1.422  0.00  0.00    -0.324 N 
ATOM     25  H   UNL     1      -2.097   0.639   2.253  0.00  0.00    +0.148 HD
BRANCH  24  26
ATOM     26  C   UNL     1      -2.206   0.310   0.051  0.00  0.00    +0.138 C 
BRANCH  26  27
ATOM     27  C   UNL     1      -0.807   0.871   0.054  0.00  0.00    -0.027 A 
ATOM     28  C   UNL     1      -0.610   2.233  -0.082  0.00  0.00    +0.009 A 
ATOM     29  C   UNL     1       0.672   2.751  -0.086  0.00  0.00    +0.050 A 
ATOM     30  C   UNL     1       1.762   1.907   0.052  0.00  0.00    +0.166 A 
ATOM     31  C   UNL     1       1.562   0.536   0.195  0.00  0.00    +0.167 A 
ATOM     32  C   UNL     1       0.275   0.024   0.198  0.00  0.00    +0.054 A 
ATOM     33  O   UNL     1       2.779  -0.072   0.312  0.00  0.00    -0.453 OA
ATOM     34  C   UNL     1       3.703   0.980   0.649  0.00  0.00    +0.466 C 
ATOM     35  O   UNL     1       3.103   2.158   0.080  0.00  0.00    -0.453 OA
ENDBRANCH  26  27
ENDBRANCH  24  26
ENDBRANCH   2  24
TORSDOF 6
