REMARK  Name = ZINC04069988
REMARK  6 active torsions:
REMARK  status: ('A' for Active; 'I' for Inactive)
REMARK    1  A    between atoms: C_1  and  C_2
REMARK    2  A    between atoms: C_8  and  C_27
REMARK    3  A    between atoms: C_9  and  N_11
REMARK    4  A    between atoms: C_12  and  C_14
REMARK    5  A    between atoms: C_19  and  O_20
REMARK    6  A    between atoms: O_20  and  C_21
REMARK                            x       y       z     vdW  Elec       q    Type
REMARK                         _______ _______ _______ _____ _____    ______ ____
ROOT
ATOM      1  N   UNL     1      -0.166   9.363  -0.267  0.00  0.00    -0.275 N 
ATOM      2  C   UNL     1      -0.099   8.020  -0.169  0.00  0.00    +0.252 C 
ATOM      3  O   UNL     1       0.983   7.470  -0.088  0.00  0.00    -0.270 OA
ATOM      4  H   UNL     1      -1.029   9.802  -0.331  0.00  0.00    +0.156 HD
ENDROOT
BRANCH   1  12
ATOM      5  C   UNL     1       4.613  15.220  -0.216  0.00  0.00    +0.008 C 
ATOM      6  C   UNL     1       4.217  13.766   0.048  0.00  0.00    -0.009 C 
ATOM      7  C   UNL     1       5.184  12.835  -0.689  0.00  0.00    +0.009 C 
ATOM      8  C   UNL     1       4.941  11.394  -0.215  0.00  0.00    +0.043 C 
ATOM      9  C   UNL     1       3.468  11.128  -0.252  0.00  0.00    -0.004 A 
ATOM     10  C   UNL     1       2.477  12.041  -0.354  0.00  0.00    -0.018 A 
ATOM     11  C   UNL     1       1.132  11.494  -0.373  0.00  0.00    +0.084 A 
ATOM     12  C   UNL     1       0.998  10.117  -0.275  0.00  0.00    +0.090 A 
ATOM     13  S   UNL     1       2.638   9.567  -0.173  0.00  0.00    -0.077 S 
ATOM     14  C   UNL     1       2.789  13.530  -0.446  0.00  0.00    +0.040 C 
BRANCH  11  15
ATOM     15  C   UNL     1      -0.014  12.345  -0.485  0.00  0.00    +0.102 C 
ATOM     16  N   UNL     1      -0.923  13.021  -0.574  0.00  0.00    -0.191 NA
ENDBRANCH  11  15
ENDBRANCH   1  12
BRANCH   2  17
ATOM     17  C   UNL     1      -1.336   7.218  -0.160  0.00  0.00    +0.079 A 
ATOM     18  C   UNL     1      -2.581   7.846  -0.252  0.00  0.00    +0.017 A 
ATOM     19  C   UNL     1      -3.734   7.092  -0.243  0.00  0.00    +0.001 A 
ATOM     20  C   UNL     1      -3.665   5.711  -0.142  0.00  0.00    +0.004 A 
ATOM     21  C   UNL     1      -2.442   5.077  -0.056  0.00  0.00    +0.047 A 
ATOM     22  C   UNL     1      -1.271   5.822  -0.059  0.00  0.00    +0.141 A 
BRANCH  22  23
ATOM     23  O   UNL     1      -0.069   5.201   0.031  0.00  0.00    -0.455 OA
BRANCH  23  24
ATOM     24  C   UNL     1      -0.052   3.842   0.045  0.00  0.00    +0.128 A 
ATOM     25  C   UNL     1       0.124   3.161   1.241  0.00  0.00    +0.046 A 
ATOM     26  C   UNL     1       0.140   1.780   1.253  0.00  0.00    +0.004 A 
ATOM     27  C   UNL     1      -0.018   1.076   0.073  0.00  0.00    +0.000 A 
ATOM     28  C   UNL     1      -0.188   1.752  -1.121  0.00  0.00    +0.004 A 
ATOM     29  C   UNL     1      -0.210   3.133  -1.137  0.00  0.00    +0.046 A 
ENDBRANCH  23  24
ENDBRANCH  22  23
ENDBRANCH   2  17
TORSDOF 5
