REMARK  Name = ZINC39494707
REMARK  11 active torsions:
REMARK  status: ('A' for Active; 'I' for Inactive)
REMARK    1  A    between atoms: C_1  and  C_2
REMARK    2  A    between atoms: C_2  and  C_3
REMARK    3  A    between atoms: C_3  and  C_5
REMARK    4  A    between atoms: C_3  and  C_26
REMARK    5  A    between atoms: C_5  and  C_7
REMARK    6  A    between atoms: C_5  and  N_13
REMARK    7  A    between atoms: C_14  and  S_16
REMARK    8  A    between atoms: S_16  and  O_19
REMARK    9  A    between atoms: O_19  and  C_20
REMARK   10  A    between atoms: C_26  and  C_28
REMARK   11  A    between atoms: C_33  and  O_34
REMARK                            x       y       z     vdW  Elec       q    Type
REMARK                         _______ _______ _______ _____ _____    ______ ____
ROOT
ATOM      1  C   UNL     1      -1.413  -2.059   0.130  0.00  0.00    +0.115 C 
ENDROOT
BRANCH   1   2
ATOM      2  C   UNL     1      -0.568  -2.637  -0.976  0.00  0.00    -0.026 A 
ATOM      3  C   UNL     1       0.809  -2.650  -0.858  0.00  0.00    +0.005 A 
ATOM      4  C   UNL     1       1.585  -3.179  -1.872  0.00  0.00    +0.000 A 
ATOM      5  C   UNL     1       0.983  -3.697  -3.004  0.00  0.00    +0.000 A 
ATOM      6  C   UNL     1      -0.395  -3.685  -3.121  0.00  0.00    +0.000 A 
ATOM      7  C   UNL     1      -1.170  -3.159  -2.105  0.00  0.00    +0.005 A 
ENDBRANCH   1   2
BRANCH   1   8
ATOM      8  N   UNL     1      -0.849  -2.442   1.427  0.00  0.00    -0.286 N 
ATOM      9  C   UNL     1      -1.170  -3.629   1.978  0.00  0.00    +0.391 C 
ATOM     10  O   UNL     1      -1.926  -4.381   1.399  0.00  0.00    -0.246 OA
ATOM     11  H   UNL     1      -0.245  -1.840   1.889  0.00  0.00    +0.151 HD
BRANCH   9  12
ATOM     12  S   UNL     1      -0.492  -4.089   3.537  0.00  0.00    +0.203 S 
ATOM     13  O   UNL     1      -0.842  -5.451   3.747  0.00  0.00    -0.127 OA
ATOM     14  O   UNL     1       0.856  -3.640   3.542  0.00  0.00    -0.127 OA
BRANCH  12  15
ATOM     15  O   UNL     1      -1.223  -3.284   4.601  0.00  0.00    -0.339 OA
BRANCH  15  16
ATOM     16  C   UNL     1      -2.483  -3.723   4.858  0.00  0.00    +0.157 A 
ATOM     17  C   UNL     1      -3.555  -3.218   4.136  0.00  0.00    +0.048 A 
ATOM     18  C   UNL     1      -4.835  -3.666   4.399  0.00  0.00    +0.004 A 
ATOM     19  C   UNL     1      -5.049  -4.616   5.380  0.00  0.00    +0.000 A 
ATOM     20  C   UNL     1      -3.982  -5.120   6.101  0.00  0.00    +0.004 A 
ATOM     21  C   UNL     1      -2.700  -4.680   5.838  0.00  0.00    +0.048 A 
ENDBRANCH  15  16
ENDBRANCH  12  15
ENDBRANCH   9  12
ENDBRANCH   1   8
BRANCH   1  22
ATOM     22  C   UNL     1      -1.433  -0.534   0.013  0.00  0.00    +0.085 C 
BRANCH  22  24
ATOM     23  C   UNL     1      -0.019   1.526   0.010  0.00  0.00    +0.004 C 
ATOM     24  C   UNL     1       0.002  -0.004   0.002  0.00  0.00    +0.010 C 
ENDBRANCH  22  24
BRANCH  22  25
ATOM     25  C   UNL     1      -2.125  -0.137  -1.266  0.00  0.00    +0.172 C 
ATOM     26  O   UNL     1      -2.155  -0.907  -2.203  0.00  0.00    -0.292 OA
BRANCH  25  27
ATOM     27  C   UNL     1      -2.761   1.181  -1.378  0.00  0.00    +0.059 A 
ATOM     28  C   UNL     1      -2.724   2.075  -0.302  0.00  0.00    +0.015 A 
ATOM     29  C   UNL     1      -3.323   3.310  -0.415  0.00  0.00    +0.001 A 
ATOM     30  C   UNL     1      -3.964   3.672  -1.590  0.00  0.00    +0.004 A 
ATOM     31  C   UNL     1      -4.009   2.801  -2.659  0.00  0.00    +0.046 A 
ATOM     32  C   UNL     1      -3.407   1.555  -2.568  0.00  0.00    +0.127 A 
BRANCH  32  33
ATOM     33  O   UNL     1      -3.446   0.700  -3.620  0.00  0.00    -0.506 OA
ATOM     34  H   UNL     1      -4.214   0.113  -3.622  0.00  0.00    +0.292 HD
ENDBRANCH  32  33
ENDBRANCH  25  27
ENDBRANCH  22  25
ENDBRANCH   1  22
TORSDOF 10
