REMARK  Name = ZINC50361839
REMARK  7 active torsions:
REMARK  status: ('A' for Active; 'I' for Inactive)
REMARK    1  A    between atoms: C_1  and  C_2
REMARK    2  A    between atoms: C_2  and  N_3
REMARK    3  A    between atoms: N_3  and  C_4
REMARK    4  A    between atoms: N_3  and  C_9
REMARK    5  A    between atoms: C_9  and  C_11
REMARK    6  A    between atoms: C_9  and  C_13
REMARK    7  A    between atoms: C_11  and  N_12
REMARK                            x       y       z     vdW  Elec       q    Type
REMARK                         _______ _______ _______ _____ _____    ______ ____
ROOT
ATOM      1  C   UNL     1      -1.847  -0.236   0.952  0.00  0.00    +0.106 C 
ENDROOT
BRANCH   1   2
ATOM      2  C   UNL     1      -1.479   0.209   2.345  0.00  0.00    +0.123 A 
ATOM      3  C   UNL     1      -1.739   1.415   2.879  0.00  0.00    +0.062 A 
ATOM      4  C   UNL     1      -1.223   1.400   4.196  0.00  0.00    +0.070 A 
ATOM      5  C   UNL     1      -0.678   0.183   4.387  0.00  0.00    +0.184 A 
ATOM      6  O   UNL     1      -0.841  -0.535   3.263  0.00  0.00    -0.450 OA
ATOM      7 BR   UNL     1       0.168  -0.415   5.969  0.00  0.00    -0.007 Br
ATOM      8 BR   UNL     1      -1.286   2.816   5.448  0.00  0.00    -0.046 Br
ENDBRANCH   1   2
BRANCH   1   9
ATOM      9  N   UNL     1      -0.676  -0.843   0.306  0.00  0.00    -0.292 NA
BRANCH   9  10
ATOM     10  C   UNL     1      -0.467  -2.218   0.781  0.00  0.00    +0.057 C 
ATOM     11  C   UNL     1       0.258  -2.203   2.142  0.00  0.00    +0.019 C 
ATOM     12  C   UNL     1       1.212  -3.421   2.078  0.00  0.00    +0.002 C 
ATOM     13  C   UNL     1       1.696  -3.400   0.607  0.00  0.00    +0.002 C 
ATOM     14  C   UNL     1       0.447  -2.979  -0.195  0.00  0.00    +0.019 C 
ENDBRANCH   9  10
BRANCH   9  16
ATOM     15  C   UNL     1       0.444   1.235  -0.346  0.00  0.00    +0.020 C 
ATOM     16  C   UNL     1       0.526  -0.025   0.518  0.00  0.00    +0.082 C 
ENDBRANCH   9  16
ENDBRANCH   1   9
BRANCH   1  17
ATOM     17  C   UNL     1      -2.978  -1.263   1.028  0.00  0.00    -0.059 C 
BRANCH  17  18
ATOM     18  N   UNL     1      -3.420  -1.605  -0.331  0.00  0.00    +0.379 N 
ATOM     19  H   UNL     1      -2.618  -1.840  -0.896  0.00  0.00    -0.090 HD
ATOM     20  H   UNL     1      -4.047  -2.395  -0.292  0.00  0.00    -0.090 HD
ATOM     21  H   UNL     1      -3.898  -0.815  -0.738  0.00  0.00    -0.090 HD
ENDBRANCH  17  18
ENDBRANCH   1  17
TORSDOF 6
