REMARK  Name = ZINC63908309
REMARK  11 active torsions:
REMARK  status: ('A' for Active; 'I' for Inactive)
REMARK    1  A    between atoms: C_1  and  C_2
REMARK    2  A    between atoms: C_2  and  C_3
REMARK    3  A    between atoms: C_2  and  N_4
REMARK    4  A    between atoms: C_5  and  C_7
REMARK    5  A    between atoms: C_7  and  S_8
REMARK    6  A    between atoms: S_8  and  C_9
REMARK    7  A    between atoms: C_14  and  C_15
REMARK    8  A    between atoms: N_17  and  C_18
REMARK    9  A    between atoms: C_18  and  C_19
REMARK   10  A    between atoms: C_19  and  C_21
REMARK   11  A    between atoms: C_19  and  C_28
REMARK                            x       y       z     vdW  Elec       q    Type
REMARK                         _______ _______ _______ _____ _____    ______ ____
ROOT
ATOM      1  C   UNL     1       7.489  -1.534  -2.700  0.00  0.00    +0.245 C 
ATOM      2  O   UNL     1       7.032  -1.133  -1.647  0.00  0.00    -0.270 OA
ATOM      3  N   UNL     1       8.820  -1.689  -2.841  0.00  0.00    -0.310 N 
ATOM      4  H   UNL     1       9.184  -2.009  -3.682  0.00  0.00    +0.149 HD
ENDROOT
BRANCH   1  10
ATOM      5  C   UNL     1       5.198  -1.692  -3.678  0.00  0.00    +0.020 A 
ATOM      6  C   UNL     1       4.359  -1.990  -4.746  0.00  0.00    +0.015 A 
ATOM      7  C   UNL     1       4.888  -2.445  -5.935  0.00  0.00    +0.001 A 
ATOM      8  C   UNL     1       6.258  -2.609  -6.077  0.00  0.00    +0.001 A 
ATOM      9  C   UNL     1       7.106  -2.320  -5.031  0.00  0.00    +0.014 A 
ATOM     10  C   UNL     1       6.586  -1.852  -3.821  0.00  0.00    +0.050 A 
BRANCH   5  11
ATOM     11  S   UNL     1       4.525  -1.111  -2.157  0.00  0.00    -0.115 S 
BRANCH  11  12
ATOM     12  C   UNL     1       2.736  -1.073  -2.455  0.00  0.00    +0.170 C 
BRANCH  12  14
ATOM     13  N   UNL     1       0.688  -0.476  -1.203  0.00  0.00    -0.312 N 
ATOM     14  C   UNL     1       2.031  -0.587  -1.215  0.00  0.00    +0.223 C 
ATOM     15  O   UNL     1       2.672  -0.295  -0.228  0.00  0.00    -0.275 OA
ATOM     16  H   UNL     1       0.175  -0.710  -1.993  0.00  0.00    +0.149 HD
BRANCH  13  18
ATOM     17  C   UNL     1      -0.019   1.526   0.010  0.00  0.00    +0.027 C 
ATOM     18  C   UNL     1       0.002  -0.004   0.002  0.00  0.00    +0.067 C 
ATOM     19  C   UNL     1      -1.433  -0.534   0.013  0.00  0.00    +0.027 C 
ENDBRANCH  13  18
ENDBRANCH  12  14
ENDBRANCH  11  12
ENDBRANCH   5  11
ENDBRANCH   1  10
BRANCH   3  20
ATOM     20  C   UNL     1       9.717  -1.373  -1.727  0.00  0.00    +0.117 C 
BRANCH  20  21
ATOM     21  C   UNL     1      11.165  -1.634  -2.148  0.00  0.00    +0.066 C 
BRANCH  21  22
ATOM     22  C   UNL     1      12.076  -1.428  -0.966  0.00  0.00    -0.033 C 
ATOM     23  C   UNL     1      12.904  -2.341  -0.408  0.00  0.00    -0.000 A 
ATOM     24  C   UNL     1      13.191  -3.745  -0.722  0.00  0.00    +0.010 A 
ATOM     25  C   UNL     1      14.089  -4.416   0.035  0.00  0.00    +0.001 A 
ATOM     26  C   UNL     1      14.751  -3.805   1.109  0.00  0.00    +0.002 A 
ATOM     27  C   UNL     1      14.540  -2.518   1.458  0.00  0.00    +0.026 A 
ATOM     28  C   UNL     1      13.616  -1.718   0.731  0.00  0.00    +0.043 A 
ATOM     29  N   UNL     1      13.244  -0.469   0.871  0.00  0.00    -0.380 N 
ATOM     30  C   UNL     1      12.256  -0.156  -0.167  0.00  0.00    +0.145 C 
ATOM     31  H   UNL     1      13.569   0.146   1.547  0.00  0.00    +0.160 HD
ENDBRANCH  21  22
BRANCH  21  32
ATOM     32  C   UNL     1      11.547  -0.680  -3.250  0.00  0.00    -0.020 A 
ATOM     33  C   UNL     1      11.509   0.684  -3.027  0.00  0.00    +0.006 A 
ATOM     34  C   UNL     1      11.860   1.559  -4.038  0.00  0.00    +0.000 A 
ATOM     35  C   UNL     1      12.249   1.071  -5.272  0.00  0.00    +0.001 A 
ATOM     36  C   UNL     1      12.287  -0.292  -5.495  0.00  0.00    +0.020 A 
ATOM     37  C   UNL     1      11.941  -1.169  -4.482  0.00  0.00    +0.045 A 
ATOM     38 CL   UNL     1      11.995  -2.881  -4.760  0.00  0.00    -0.083 Cl
ENDBRANCH  21  32
ENDBRANCH  20  21
ENDBRANCH   3  20
TORSDOF 9
