REMARK  Name = ZINC39674453
REMARK  9 active torsions:
REMARK  status: ('A' for Active; 'I' for Inactive)
REMARK    1  A    between atoms: C_1  and  C_2
REMARK    2  A    between atoms: C_4  and  C_9
REMARK    3  A    between atoms: C_5  and  C_8
REMARK    4  A    between atoms: C_9  and  C_11
REMARK    5  A    between atoms: C_9  and  N_12
REMARK    6  A    between atoms: C_13  and  C_15
REMARK    7  A    between atoms: C_26  and  C_28
REMARK    8  A    between atoms: C_32  and  O_33
REMARK    9  A    between atoms: O_33  and  C_34
REMARK                            x       y       z     vdW  Elec       q    Type
REMARK                         _______ _______ _______ _____ _____    ______ ____
ROOT
ATOM      1  C   UNL     1      -3.509  -0.995  -5.611  0.00  0.00    +0.100 C 
ATOM      2  C   UNL     1      -4.318  -2.227  -5.147  0.00  0.00    +0.121 C 
ATOM      3  N   UNL     1      -5.151  -2.590  -6.318  0.00  0.00    -0.296 N 
ATOM      4  C   UNL     1      -4.259  -2.382  -7.484  0.00  0.00    +0.115 C 
ATOM      5  C   UNL     1      -3.472  -1.101  -7.144  0.00  0.00    -0.004 C 
ATOM      6  C   UNL     1      -2.031  -1.223  -7.631  0.00  0.00    -0.010 C 
ATOM      7  C   UNL     1      -2.016  -1.268  -9.161  0.00  0.00    -0.082 C 
ATOM      8  N   UNL     1      -2.632  -0.047  -9.695  0.00  0.00    +0.379 N 
ATOM      9  C   UNL     1      -4.044   0.015  -9.299  0.00  0.00    -0.082 C 
ATOM     10  C   UNL     1      -4.145   0.115  -7.774  0.00  0.00    -0.010 C 
ATOM     11  C   UNL     1      -6.431  -3.013  -6.322  0.00  0.00    +0.251 C 
ATOM     12  O   UNL     1      -7.060  -3.057  -5.281  0.00  0.00    -0.270 OA
ATOM     13  H   UNL     1      -2.146   0.759  -9.332  0.00  0.00    -0.086 HD
ATOM     14  H   UNL     1      -2.566  -0.051 -10.702  0.00  0.00    -0.086 HD
ENDROOT
BRANCH  11  15
ATOM     15  C   UNL     1      -7.066  -3.421  -7.583  0.00  0.00    +0.087 A 
ATOM     16  C   UNL     1      -6.345  -4.014  -8.596  0.00  0.00    +0.063 A 
ATOM     17  S   UNL     1      -7.476  -4.291  -9.803  0.00  0.00    -0.081 S 
ATOM     18  C   UNL     1      -8.935  -3.638  -9.021  0.00  0.00    +0.120 A 
ATOM     19  C   UNL     1      -8.479  -3.223  -7.818  0.00  0.00    +0.158 A 
ATOM     20 CL   UNL     1     -10.552  -3.558  -9.648  0.00  0.00    -0.072 Cl
BRANCH  19  21
ATOM     21  O   UNL     1      -9.295  -2.653  -6.889  0.00  0.00    -0.492 OA
ATOM     22  C   UNL     1      -9.442  -1.232  -6.940  0.00  0.00    +0.277 C 
ENDBRANCH  19  21
ENDBRANCH  11  15
BRANCH   1  24
ATOM     23  N   UNL     1      -1.443   0.103  -4.808  0.00  0.00    -0.309 N 
ATOM     24  C   UNL     1      -2.112  -1.042  -5.047  0.00  0.00    +0.219 C 
ATOM     25  O   UNL     1      -1.590  -2.110  -4.809  0.00  0.00    -0.275 OA
ATOM     26  H   UNL     1      -1.861   0.958  -4.998  0.00  0.00    +0.149 HD
BRANCH  23  27
ATOM     27  C   UNL     1      -0.085   0.057  -4.260  0.00  0.00    +0.100 C 
ATOM     28  C   UNL     1       0.919  -0.119  -5.401  0.00  0.00    +0.033 C 
BRANCH  27  31
ATOM     29  C   UNL     1       1.028   2.987  -5.236  0.00  0.00    +0.039 C 
ATOM     30  C   UNL     1       0.085   2.764  -4.052  0.00  0.00    +0.154 C 
ATOM     31  C   UNL     1       0.206   1.343  -3.530  0.00  0.00    -0.001 C 
ATOM     32  C   UNL     1       0.628   1.497  -2.273  0.00  0.00    +0.063 C 
ATOM     33  N   UNL     1       0.776   2.806  -1.973  0.00  0.00    -0.159 NA
ATOM     34  N   UNL     1       0.496   3.581  -2.897  0.00  0.00    -0.180 NA
ATOM     35  C   UNL     1       0.903   0.364  -1.317  0.00  0.00    +0.067 C 
ENDBRANCH  27  31
ENDBRANCH  23  27
ENDBRANCH   1  24
TORSDOF 5
