REMARK  Name = ZINC38670519
REMARK  6 active torsions:
REMARK  status: ('A' for Active; 'I' for Inactive)
REMARK    1  A    between atoms: C_1  and  N_2
REMARK    2  A    between atoms: C_10  and  C_12
REMARK    3  A    between atoms: C_12  and  C_14
REMARK    4  A    between atoms: C_12  and  N_32
REMARK    5  A    between atoms: C_14  and  N_15
REMARK    6  A    between atoms: C_16  and  C_18
REMARK                            x       y       z     vdW  Elec       q    Type
REMARK                         _______ _______ _______ _____ _____    ______ ____
ROOT
ATOM      1  C   UNL     1       5.156  -2.845  -1.995  0.00  0.00    +0.093 C 
ENDROOT
BRANCH   1   2
ATOM      2  N   UNL     1       4.115  -3.685  -2.593  0.00  0.00    -0.316 N 
ATOM      3  C   UNL     1       4.050  -3.827  -3.932  0.00  0.00    +0.225 C 
ATOM      4  O   UNL     1       4.853  -3.259  -4.642  0.00  0.00    -0.275 OA
ATOM      5  H   UNL     1       3.473  -4.140  -2.026  0.00  0.00    +0.149 HD
BRANCH   3   6
ATOM      6  C   UNL     1       2.980  -4.691  -4.547  0.00  0.00    +0.142 C 
ATOM      7  C   UNL     1       3.108  -6.093  -4.017  0.00  0.00    +0.011 A 
ATOM      8  C   UNL     1       2.635  -6.386  -2.749  0.00  0.00    +0.008 A 
ATOM      9  C   UNL     1       2.743  -7.668  -2.245  0.00  0.00    +0.001 A 
ATOM     10  C   UNL     1       3.325  -8.664  -3.007  0.00  0.00    +0.004 A 
ATOM     11  C   UNL     1       3.798  -8.379  -4.272  0.00  0.00    +0.046 A 
ATOM     12  C   UNL     1       3.691  -7.090  -4.782  0.00  0.00    +0.133 A 
ATOM     13  O   UNL     1       4.160  -6.829  -6.026  0.00  0.00    -0.455 OA
ATOM     14  C   UNL     1       3.712  -5.747  -6.707  0.00  0.00    +0.133 A 
ATOM     15  C   UNL     1       3.130  -4.679  -6.044  0.00  0.00    +0.011 A 
ATOM     16  C   UNL     1       2.680  -3.585  -6.762  0.00  0.00    +0.008 A 
ATOM     17  C   UNL     1       2.808  -3.555  -8.137  0.00  0.00    +0.001 A 
ATOM     18  C   UNL     1       3.388  -4.620  -8.802  0.00  0.00    +0.004 A 
ATOM     19  C   UNL     1       3.840  -5.714  -8.091  0.00  0.00    +0.046 A 
ENDBRANCH   3   6
ENDBRANCH   1   2
BRANCH   1  20
ATOM     20  C   UNL     1       4.926  -2.746  -0.486  0.00  0.00    -0.020 C 
BRANCH  20  30
ATOM     21  C   UNL     1       0.101   1.471   0.743  0.00  0.00    +0.129 C 
ATOM     22  N   UNL     1       0.079   0.024   0.518  0.00  0.00    -0.333 N 
ATOM     23  C   UNL     1      -1.189  -0.717   0.543  0.00  0.00    +0.105 C 
ATOM     24  C   UNL     1      -0.970  -1.995   1.363  0.00  0.00    +0.024 C 
ATOM     25  C   UNL     1       0.068  -2.865   0.654  0.00  0.00    +0.038 C 
ATOM     26  C   UNL     1       1.300  -2.061   0.335  0.00  0.00    -0.026 A 
ATOM     27  C   UNL     1       1.266  -0.675   0.270  0.00  0.00    +0.033 A 
ATOM     28  C   UNL     1       2.420   0.037  -0.037  0.00  0.00    +0.023 A 
ATOM     29  C   UNL     1       3.602  -0.633  -0.282  0.00  0.00    +0.004 A 
ATOM     30  C   UNL     1       3.636  -2.014  -0.221  0.00  0.00    -0.059 A 
ATOM     31  C   UNL     1       2.491  -2.726   0.095  0.00  0.00    +0.007 A 
ENDBRANCH  20  30
BRANCH  20  32
ATOM     32  N   UNL     1       6.041  -2.014   0.132  0.00  0.00    +0.385 N 
ATOM     33  C   UNL     1       5.839  -1.918   1.600  0.00  0.00    -0.078 C 
ATOM     34  C   UNL     1       7.269  -1.665   2.139  0.00  0.00    -0.020 C 
ATOM     35  C   UNL     1       8.146  -2.545   1.219  0.00  0.00    -0.020 C 
ATOM     36  C   UNL     1       7.305  -2.759  -0.053  0.00  0.00    -0.078 C 
ATOM     37  H   UNL     1       6.118  -1.092  -0.271  0.00  0.00    -0.081 HD
ENDBRANCH  20  32
ENDBRANCH   1  20
TORSDOF 5
