REMARK  Name = ZINC18241241
REMARK  4 active torsions:
REMARK  status: ('A' for Active; 'I' for Inactive)
REMARK    1  A    between atoms: C_3  and  C_6
REMARK    2  A    between atoms: C_6  and  O_8
REMARK    3  A    between atoms: O_8  and  C_9
REMARK    4  A    between atoms: C_12  and  N_15
REMARK                            x       y       z     vdW  Elec       q    Type
REMARK                         _______ _______ _______ _____ _____    ______ ____
ROOT
ATOM      1  C   UNL     1       6.018   1.078  -0.085  0.00  0.00    +0.132 A 
ATOM      2  C   UNL     1       6.394   2.412  -0.039  0.00  0.00    +0.048 A 
ATOM      3  C   UNL     1       7.731   2.755  -0.085  0.00  0.00    +0.027 A 
ATOM      4  C   UNL     1       8.699   1.764  -0.176  0.00  0.00    +0.044 A 
ATOM      5  C   UNL     1       8.322   0.428  -0.222  0.00  0.00    +0.027 A 
ATOM      6  C   UNL     1       6.985   0.086  -0.171  0.00  0.00    +0.048 A 
ENDROOT
BRANCH   4   7
ATOM      7  N   UNL     1      10.057   2.111  -0.224  0.00  0.00    -0.210 N 
ATOM      8  C   UNL     1      10.492   3.386  -0.178  0.00  0.00    +0.230 C 
ATOM      9  O   UNL     1       9.831   4.361   0.106  0.00  0.00    -0.274 OA
ATOM     10  C   UNL     1      11.983   3.372  -0.553  0.00  0.00    +0.092 C 
ATOM     11  C   UNL     1      12.004   3.495  -2.079  0.00  0.00    +0.040 C 
ATOM     12  C   UNL     1      13.113   2.733  -2.718  0.00  0.00    -0.030 C 
ATOM     13  C   UNL     1      13.783   1.787  -2.148  0.00  0.00    -0.030 C 
ATOM     14  C   UNL     1      13.560   1.361  -0.732  0.00  0.00    +0.040 C 
ATOM     15  C   UNL     1      12.333   1.946  -0.096  0.00  0.00    +0.092 C 
ATOM     16  C   UNL     1      11.050   1.198  -0.313  0.00  0.00    +0.230 C 
ATOM     17  O   UNL     1      10.929   0.011  -0.528  0.00  0.00    -0.274 OA
ENDBRANCH   4   7
BRANCH   1  18
ATOM     18  O   UNL     1       4.702   0.741  -0.039  0.00  0.00    -0.422 OA
BRANCH  18  19
ATOM     19  C   UNL     1       3.970   0.894  -1.162  0.00  0.00    +0.351 C 
ATOM     20  O   UNL     1       4.468   1.406  -2.147  0.00  0.00    -0.244 OA
BRANCH  19  23
ATOM     21  C   UNL     1       0.415   0.001  -1.966  0.00  0.00    +0.008 A 
ATOM     22  C   UNL     1       1.662   0.509  -2.236  0.00  0.00    +0.022 A 
ATOM     23  C   UNL     1       2.577   0.445  -1.195  0.00  0.00    +0.097 A 
ATOM     24  S   UNL     1       1.615  -0.328   0.091  0.00  0.00    -0.090 S 
ATOM     25  C   UNL     1       0.165  -0.516  -0.736  0.00  0.00    +0.046 A 
ENDBRANCH  19  23
ENDBRANCH  18  19
ENDBRANCH   1  18
TORSDOF 4
