REMARK  Name = ZINC44909926
REMARK  8 active torsions:
REMARK  status: ('A' for Active; 'I' for Inactive)
REMARK    1  A    between atoms: C_1  and  C_2
REMARK    2  A    between atoms: C_3  and  C_12
REMARK    3  A    between atoms: C_12  and  CA_13
REMARK    4  A    between atoms: CA_13  and  C_15
REMARK    5  A    between atoms: CA_13  and  N_18
REMARK    6  A    between atoms: C_19  and  O_21
REMARK    7  A    between atoms: O_21  and  C_22
REMARK    8  A    between atoms: C_22  and  C_23
REMARK                            x       y       z     vdW  Elec       q    Type
REMARK                         _______ _______ _______ _____ _____    ______ ____
ROOT
ATOM      1  N   UNL     1       2.104  -1.401  -3.058  0.00  0.00    -0.267 N 
ATOM      2  C   UNL     1       3.446  -1.468  -2.960  0.00  0.00    +0.401 C 
ATOM      3  O   UNL     1       4.099  -0.450  -2.839  0.00  0.00    -0.226 OA
ATOM      4  H   UNL     1       1.583  -2.213  -3.154  0.00  0.00    +0.153 HD
ENDROOT
BRANCH   1   5
ATOM      5  CA  UNL     1       1.431  -0.100  -3.018  0.00  0.00    +0.193 C 
BRANCH   5   6
ATOM      6  C   UNL     1       1.418   0.501  -4.400  0.00  0.00    +0.376 C 
ATOM      7  O   UNL     1       1.432   1.712  -4.539  0.00  0.00    -0.244 OA
ATOM      8  OXT UNL     1       1.393  -0.225  -5.380  0.00  0.00    -0.244 OA
ENDBRANCH   5   6
BRANCH   5   9
ATOM      9  C   UNL     1      -0.006  -0.284  -2.528  0.00  0.00    +0.071 C 
BRANCH   9  12
ATOM     10  C   UNL     1      -0.018   1.503   0.010  0.00  0.00    +0.063 C 
ATOM     11  C   UNL     1       0.002  -0.004   0.002  0.00  0.00    +0.017 A 
ATOM     12  C   UNL     1       0.007  -0.769  -1.101  0.00  0.00    -0.017 A 
ATOM     13  C   UNL     1       0.029  -2.164  -0.655  0.00  0.00    +0.003 A 
ATOM     14  C   UNL     1       0.043  -3.394  -1.316  0.00  0.00    +0.010 A 
ATOM     15  C   UNL     1       0.063  -4.552  -0.593  0.00  0.00    +0.001 A 
ATOM     16  C   UNL     1       0.070  -4.517   0.795  0.00  0.00    +0.002 A 
ATOM     17  C   UNL     1       0.056  -3.315   1.468  0.00  0.00    +0.026 A 
ATOM     18  C   UNL     1       0.036  -2.122   0.751  0.00  0.00    +0.047 A 
ATOM     19  N   UNL     1       0.024  -0.795   1.118  0.00  0.00    -0.358 N 
ATOM     20  H   UNL     1       0.029  -0.470   2.032  0.00  0.00    +0.166 HD
ENDBRANCH   9  12
ENDBRANCH   5   9
ENDBRANCH   1   5
BRANCH   2  21
ATOM     21  O   UNL     1       4.064  -2.664  -2.996  0.00  0.00    -0.449 OA
BRANCH  21  22
ATOM     22  C   UNL     1       5.489  -2.661  -2.887  0.00  0.00    +0.246 C 
BRANCH  22  23
ATOM     23  C   UNL     1       6.008  -4.099  -2.948  0.00  0.00    +0.088 C 
ATOM     24  C   UNL     1       5.795  -4.670  -4.328  0.00  0.00    -0.029 A 
ATOM     25  C   UNL     1       4.656  -4.892  -5.072  0.00  0.00    +0.005 A 
ATOM     26  C   UNL     1       4.753  -5.441  -6.339  0.00  0.00    +0.000 A 
ATOM     27  C   UNL     1       5.991  -5.768  -6.861  0.00  0.00    +0.001 A 
ATOM     28  C   UNL     1       7.136  -5.550  -6.123  0.00  0.00    +0.009 A 
ATOM     29  C   UNL     1       7.046  -4.996  -4.844  0.00  0.00    -0.014 A 
ATOM     30  C   UNL     1       8.095  -4.660  -3.849  0.00  0.00    -0.014 A 
ATOM     31  C   UNL     1       7.499  -4.124  -2.711  0.00  0.00    -0.029 A 
ATOM     32  C   UNL     1       8.273  -3.732  -1.640  0.00  0.00    +0.005 A 
ATOM     33  C   UNL     1       9.648  -3.870  -1.692  0.00  0.00    +0.000 A 
ATOM     34  C   UNL     1      10.250  -4.401  -2.818  0.00  0.00    +0.001 A 
ATOM     35  C   UNL     1       9.483  -4.796  -3.895  0.00  0.00    +0.009 A 
ENDBRANCH  22  23
ENDBRANCH  21  22
ENDBRANCH   2  21
TORSDOF 7
