REMARK  Name = ZINC03909441
REMARK  2 active torsions:
REMARK  status: ('A' for Active; 'I' for Inactive)
REMARK    1  A    between atoms: N_11  and  N_12
REMARK    2  A    between atoms: C_13  and  C_14
REMARK                            x       y       z     vdW  Elec       q    Type
REMARK                         _______ _______ _______ _____ _____    ______ ____
ROOT
ATOM      1  C   UNL     1       7.253  -7.573  -0.109  0.00  0.00    +0.002 A 
ATOM      2  C   UNL     1       7.893  -6.343  -0.108  0.00  0.00    +0.002 A 
ATOM      3  C   UNL     1       7.164  -5.175  -0.095  0.00  0.00    +0.030 A 
ATOM      4  C   UNL     1       5.767  -5.229  -0.082  0.00  0.00    +0.091 A 
ATOM      5  C   UNL     1       5.124  -6.478  -0.083  0.00  0.00    +0.067 A 
ATOM      6  C   UNL     1       5.875  -7.644  -0.096  0.00  0.00    +0.028 A 
ATOM      7  N   UNL     1       3.765  -6.212  -0.069  0.00  0.00    -0.325 N 
ATOM      8  H   UNL     1       3.028  -6.888  -0.066  0.00  0.00    +0.169 HD
ATOM      9  C   UNL     1       3.619  -4.853  -0.059  0.00  0.00    +0.214 A 
ATOM     10  N   UNL     1       4.797  -4.279  -0.073  0.00  0.00    -0.213 NA
ATOM     11  N   UNL     1       2.412  -4.186  -0.044  0.00  0.00    -0.207 N 
ATOM     12  H   UNL     1       1.581  -4.687  -0.040  0.00  0.00    +0.177 HD
ENDROOT
BRANCH  11  13
ATOM     13  N   UNL     1       2.386  -2.785  -0.036  0.00  0.00    -0.188 NA
ATOM     14  C   UNL     1       1.250  -2.157  -0.022  0.00  0.00    +0.139 C 
BRANCH  14  15
ATOM     15  C   UNL     1       1.223  -0.683  -0.013  0.00  0.00    +0.013 A 
ATOM     16  C   UNL     1       0.002  -0.004   0.002  0.00  0.00    +0.012 A 
ATOM     17  C   UNL     1      -0.017   1.375   0.010  0.00  0.00    +0.021 A 
ATOM     18  C   UNL     1       1.171   2.087   0.002  0.00  0.00    +0.042 A 
ATOM     19  C   UNL     1       2.385   1.421  -0.013  0.00  0.00    +0.040 A 
ATOM     20  C   UNL     1       2.418   0.041  -0.021  0.00  0.00    +0.051 A 
ATOM     21 CL   UNL     1       3.941  -0.792  -0.040  0.00  0.00    -0.083 Cl
ATOM     22 CL   UNL     1       1.138   3.823   0.011  0.00  0.00    -0.083 Cl
ENDBRANCH  14  15
ENDBRANCH  11  13
TORSDOF 2
