REMARK  Name = ZINC12778954
REMARK  7 active torsions:
REMARK  status: ('A' for Active; 'I' for Inactive)
REMARK    1  A    between atoms: C_1  and  C_2
REMARK    2  A    between atoms: C_2  and  C_4
REMARK    3  A    between atoms: C_2  and  S_19
REMARK    4  A    between atoms: N_6  and  C_7
REMARK    5  A    between atoms: S_19  and  C_20
REMARK    6  A    between atoms: N_30  and  C_31
REMARK    7  A    between atoms: C_31  and  C_32
REMARK                            x       y       z     vdW  Elec       q    Type
REMARK                         _______ _______ _______ _____ _____    ______ ____
ROOT
ATOM      1  C   UNL     1       5.493   4.391   1.148  0.00  0.00    +0.029 C 
ATOM      2  C   UNL     1       4.854   4.246  -0.235  0.00  0.00    +0.137 C 
ENDROOT
BRANCH   2   3
ATOM      3  C   UNL     1       3.564   3.478  -0.113  0.00  0.00    +0.230 C 
ATOM      4  O   UNL     1       2.505   4.069  -0.100  0.00  0.00    -0.274 OA
ATOM      5  N   UNL     1       3.586   2.134  -0.019  0.00  0.00    -0.285 N 
ATOM      6  H   UNL     1       4.433   1.666   0.047  0.00  0.00    +0.155 HD
BRANCH   5   7
ATOM      7  C   UNL     1       2.385   1.412  -0.018  0.00  0.00    +0.035 A 
ATOM      8  C   UNL     1       2.280   0.241   0.724  0.00  0.00    +0.025 A 
ATOM      9  C   UNL     1       1.101  -0.475   0.729  0.00  0.00    +0.029 A 
ATOM     10  C   UNL     1       0.015  -0.025  -0.007  0.00  0.00    +0.067 A 
ATOM     11  C   UNL     1       0.117   1.151  -0.753  0.00  0.00    +0.069 A 
ATOM     12  C   UNL     1       1.303   1.867  -0.757  0.00  0.00    +0.051 A 
ATOM     13  N   UNL     1      -1.115   1.341  -1.375  0.00  0.00    -0.306 N 
ATOM     14  H   UNL     1      -1.347   2.078  -1.961  0.00  0.00    +0.170 HD
ATOM     15  C   UNL     1      -1.929   0.328  -1.024  0.00  0.00    +0.325 A 
ATOM     16  O   UNL     1      -3.080   0.193  -1.396  0.00  0.00    -0.247 OA
ATOM     17  N   UNL     1      -1.277  -0.513  -0.200  0.00  0.00    -0.306 N 
ATOM     18  H   UNL     1      -1.644  -1.321   0.193  0.00  0.00    +0.170 HD
ENDBRANCH   5   7
ENDBRANCH   2   3
BRANCH   2  19
ATOM     19  S   UNL     1       4.518   5.888  -0.919  0.00  0.00    -0.075 S 
BRANCH  19  20
ATOM     20  C   UNL     1       6.164   6.491  -1.091  0.00  0.00    +0.173 A 
ATOM     21  N   UNL     1       7.155   5.716  -0.725  0.00  0.00    -0.223 NA
ATOM     22  C   UNL     1       8.444   6.115  -0.835  0.00  0.00    +0.080 A 
ATOM     23  C   UNL     1       9.502   5.288  -0.449  0.00  0.00    +0.048 A 
ATOM     24  C   UNL     1      10.798   5.739  -0.575  0.00  0.00    +0.043 A 
ATOM     25  C   UNL     1      11.064   7.007  -1.080  0.00  0.00    +0.021 A 
ATOM     26  C   UNL     1      10.046   7.834  -1.463  0.00  0.00    +0.017 A 
ATOM     27  C   UNL     1       8.725   7.403  -1.347  0.00  0.00    +0.065 A 
ATOM     28  C   UNL     1       7.594   8.252  -1.744  0.00  0.00    +0.263 A 
ATOM     29  O   UNL     1       7.772   9.370  -2.192  0.00  0.00    -0.267 OA
ATOM     30  N   UNL     1       6.348   7.747  -1.595  0.00  0.00    -0.283 N 
ATOM     31 CL   UNL     1      12.114   4.712  -0.098  0.00  0.00    -0.083 Cl
BRANCH  30  32
ATOM     32  C   UNL     1       5.186   8.554  -1.976  0.00  0.00    +0.154 C 
BRANCH  32  33
ATOM     33  C   UNL     1       4.729   9.367  -0.793  0.00  0.00    -0.013 C 
ATOM     34  C   UNL     1       4.617  10.668  -0.895  0.00  0.00    +0.005 C 
ENDBRANCH  32  33
ENDBRANCH  30  32
ENDBRANCH  19  20
ENDBRANCH   2  19
TORSDOF 6
