REMARK  Name = ZINC05043121
REMARK  3 active torsions:
REMARK  status: ('A' for Active; 'I' for Inactive)
REMARK    1  A    between atoms: C_1  and  C_2
REMARK    2  A    between atoms: C_2  and  C_3
REMARK    3  A    between atoms: C_6  and  C_9
REMARK                            x       y       z     vdW  Elec       q    Type
REMARK                         _______ _______ _______ _____ _____    ______ ____
ROOT
ATOM      1  C   UNL     1      -1.194   3.742   0.035  0.00  0.00    +0.143 A 
ATOM      2  N   UNL     1      -1.192   2.379   0.021  0.00  0.00    -0.333 N 
ATOM      3  H   UNL     1      -2.031   1.892   0.021  0.00  0.00    +0.168 HD
ATOM      4  C   UNL     1      -0.021   1.708   0.011  0.00  0.00    +0.094 A 
ATOM      5  S   UNL     1       0.002  -0.004   0.002  0.00  0.00    -0.032 S 
ATOM      6  C   UNL     1       1.176   2.438   0.004  0.00  0.00    +0.050 A 
ATOM      7  C   UNL     1       1.120   3.816   0.013  0.00  0.00    +0.228 A 
ATOM      8  N   UNL     1      -0.073   4.429   0.029  0.00  0.00    -0.194 NA
ATOM      9  O   UNL     1       2.246   4.559   0.006  0.00  0.00    -0.437 OA
ATOM     10  C   UNL     1       3.425   4.012   0.388  0.00  0.00    +0.134 A 
ATOM     11  C   UNL     1       4.467   4.848   0.774  0.00  0.00    +0.048 A 
ATOM     12  C   UNL     1       5.677   4.312   1.167  0.00  0.00    +0.023 A 
ATOM     13  C   UNL     1       5.855   2.940   1.177  0.00  0.00    +0.041 A 
ATOM     14  C   UNL     1       4.821   2.106   0.793  0.00  0.00    +0.027 A 
ATOM     15  C   UNL     1       3.606   2.639   0.399  0.00  0.00    +0.001 A 
ATOM     16  C   UNL     1       2.493   1.714  -0.015  0.00  0.00    +0.082 C 
ATOM     17 CL   UNL     1       7.376   2.265   1.671  0.00  0.00    -0.084 Cl
ENDROOT
BRANCH   1  21
ATOM     18  C   UNL     1      -4.901   5.815   0.082  0.00  0.00    -0.048 A 
ATOM     19  C   UNL     1      -3.714   6.526   0.075  0.00  0.00    +0.004 A 
ATOM     20  C   UNL     1      -2.506   5.859   0.060  0.00  0.00    +0.012 A 
ATOM     21  C   UNL     1      -2.484   4.463   0.051  0.00  0.00    +0.017 A 
ATOM     22  C   UNL     1      -3.685   3.752   0.052  0.00  0.00    +0.012 A 
ATOM     23  C   UNL     1      -4.885   4.431   0.073  0.00  0.00    +0.004 A 
BRANCH  18  25
ATOM     24  C   UNL     1      -6.674   6.808  -1.339  0.00  0.00    +0.009 C 
ATOM     25  C   UNL     1      -6.216   6.550   0.098  0.00  0.00    +0.032 C 
ENDBRANCH  18  25
ENDBRANCH   1  21
TORSDOF 2
