REMARK  Name = ZINC01762237
REMARK  5 active torsions:
REMARK  status: ('A' for Active; 'I' for Inactive)
REMARK    1  A    between atoms: C_1  and  C_2
REMARK    2  A    between atoms: C_9  and  N_11
REMARK    3  A    between atoms: N_11  and  C_12
REMARK    4  A    between atoms: C_12  and  C_13
REMARK    5  A    between atoms: C_12  and  C_20
REMARK                            x       y       z     vdW  Elec       q    Type
REMARK                         _______ _______ _______ _____ _____    ______ ____
ROOT
ATOM      1  N   UNL     1      -3.516  -4.759   0.011  0.00  0.00    -0.317 N 
ATOM      2  H   UNL     1      -3.523  -5.729   0.005  0.00  0.00    +0.148 HD
ENDROOT
BRANCH   1  11
ATOM      3  C   UNL     1      -0.018   1.503   0.010  0.00  0.00    +0.109 C 
ATOM      4  C   UNL     1       0.002  -0.004   0.002  0.00  0.00    +0.216 C 
ATOM      5  O   UNL     1       1.060  -0.596  -0.011  0.00  0.00    -0.276 OA
ATOM      6  N   UNL     1      -1.156  -0.694   0.009  0.00  0.00    -0.255 N 
ATOM      7  C   UNL     1      -1.137  -2.085   0.002  0.00  0.00    +0.225 A 
ATOM      8  N   UNL     1       0.028  -2.711  -0.013  0.00  0.00    -0.197 NA
ATOM      9  C   UNL     1       0.089  -4.043  -0.021  0.00  0.00    +0.148 A 
ATOM     10  C   UNL     1      -1.098  -4.770  -0.013  0.00  0.00    +0.109 A 
ATOM     11  C   UNL     1      -2.307  -4.074   0.003  0.00  0.00    +0.148 A 
ATOM     12  N   UNL     1      -2.285  -2.743   0.015  0.00  0.00    -0.197 NA
ATOM     13  N   UNL     1      -0.813  -6.147  -0.023  0.00  0.00    -0.323 N 
ATOM     14  C   UNL     1       0.654  -6.280  -0.038  0.00  0.00    +0.208 C 
ATOM     15  N   UNL     1       1.176  -4.908  -0.035  0.00  0.00    -0.312 N 
ATOM     16  H   UNL     1      -2.002  -0.220   0.020  0.00  0.00    +0.158 HD
ATOM     17  H   UNL     1      -1.225  -6.595  -0.828  0.00  0.00    +0.148 HD
ATOM     18  H   UNL     1       2.111  -4.651  -0.043  0.00  0.00    +0.149 HD
ENDBRANCH   1  11
BRANCH   1  19
ATOM     19  C   UNL     1      -4.779  -4.017   0.027  0.00  0.00    +0.132 C 
BRANCH  19  20
ATOM     20  C   UNL     1      -5.870  -4.869  -0.568  0.00  0.00    -0.023 A 
ATOM     21  C   UNL     1      -5.921  -6.222  -0.286  0.00  0.00    +0.007 A 
ATOM     22  C   UNL     1      -6.925  -7.003  -0.827  0.00  0.00    +0.020 A 
ATOM     23  C   UNL     1      -7.873  -6.433  -1.659  0.00  0.00    +0.041 A 
ATOM     24  C   UNL     1      -7.818  -5.081  -1.945  0.00  0.00    +0.020 A 
ATOM     25  C   UNL     1      -6.816  -4.300  -1.399  0.00  0.00    +0.007 A 
ATOM     26 CL   UNL     1      -9.130  -7.415  -2.344  0.00  0.00    -0.084 Cl
ENDBRANCH  19  20
BRANCH  19  27
ATOM     27  C   UNL     1      -5.136  -3.664   1.448  0.00  0.00    -0.023 A 
ATOM     28  C   UNL     1      -4.930  -4.582   2.461  0.00  0.00    +0.007 A 
ATOM     29  C   UNL     1      -5.252  -4.257   3.765  0.00  0.00    +0.020 A 
ATOM     30  C   UNL     1      -5.790  -3.016   4.055  0.00  0.00    +0.041 A 
ATOM     31  C   UNL     1      -6.000  -2.099   3.041  0.00  0.00    +0.020 A 
ATOM     32  C   UNL     1      -5.673  -2.424   1.738  0.00  0.00    +0.007 A 
ATOM     33 CL   UNL     1      -6.200  -2.609   5.692  0.00  0.00    -0.084 Cl
ENDBRANCH  19  27
ENDBRANCH   1  19
TORSDOF 4
