REMARK  Name = ZINC39426640
REMARK  12 active torsions:
REMARK  status: ('A' for Active; 'I' for Inactive)
REMARK    1  A    between atoms: C_1  and  C_2
REMARK    2  A    between atoms: C_2  and  C_4
REMARK    3  A    between atoms: C_2  and  S_16
REMARK    4  A    between atoms: N_6  and  C_7
REMARK    5  A    between atoms: C_10  and  C_13
REMARK    6  A    between atoms: C_13  and  C_15
REMARK    7  A    between atoms: S_16  and  C_17
REMARK    8  A    between atoms: C_20  and  C_21
REMARK    9  A    between atoms: C_24  and  N_27
REMARK   10  A    between atoms: N_27  and  C_28
REMARK   11  A    between atoms: N_27  and  C_29
REMARK   12  A    between atoms: N_32  and  C_33
REMARK                            x       y       z     vdW  Elec       q    Type
REMARK                         _______ _______ _______ _____ _____    ______ ____
ROOT
ATOM      1  C   UNL     1       3.401  -0.489  -1.072  0.00  0.00    +0.169 C 
ATOM      2  N   UNL     1       3.823   0.419  -0.232  0.00  0.00    -0.220 NA
ATOM      3  C   UNL     1       5.148   0.664  -0.462  0.00  0.00    +0.129 C 
ATOM      4  C   UNL     1       5.957   1.551   0.211  0.00  0.00    +0.041 C 
ATOM      5  C   UNL     1       5.535  -0.218  -1.578  0.00  0.00    +0.275 C 
ATOM      6  O   UNL     1       6.632  -0.313  -2.097  0.00  0.00    -0.268 OA
ATOM      7  N   UNL     1       4.416  -0.902  -1.902  0.00  0.00    -0.214 N 
ENDROOT
BRANCH   4   8
ATOM      8  C   UNL     1       7.313   1.820  -0.273  0.00  0.00    -0.023 A 
ATOM      9  C   UNL     1       8.357   2.031   0.638  0.00  0.00    +0.010 A 
ATOM     10  C   UNL     1       9.620   2.280   0.182  0.00  0.00    +0.023 A 
ATOM     11  C   UNL     1       9.871   2.326  -1.187  0.00  0.00    +0.029 A 
ATOM     12  C   UNL     1       8.838   2.118  -2.097  0.00  0.00    +0.023 A 
ATOM     13  C   UNL     1       7.572   1.862  -1.651  0.00  0.00    +0.010 A 
BRANCH  11  14
ATOM     14  N   UNL     1      11.159   2.581  -1.648  0.00  0.00    -0.336 N 
ATOM     15  C   UNL     1      12.271   2.674  -0.699  0.00  0.00    +0.129 C 
ATOM     16  C   UNL     1      11.404   2.756  -3.082  0.00  0.00    +0.129 C 
ENDBRANCH  11  14
ENDBRANCH   4   8
BRANCH   7  17
ATOM     17  C   UNL     1       4.307  -1.866  -2.914  0.00  0.00    +0.044 A 
ATOM     18  C   UNL     1       3.510  -1.622  -4.024  0.00  0.00    +0.024 A 
ATOM     19  C   UNL     1       3.405  -2.574  -5.019  0.00  0.00    +0.002 A 
ATOM     20  C   UNL     1       4.093  -3.769  -4.910  0.00  0.00    +0.000 A 
ATOM     21  C   UNL     1       4.887  -4.015  -3.805  0.00  0.00    +0.002 A 
ATOM     22  C   UNL     1       5.000  -3.064  -2.810  0.00  0.00    +0.024 A 
ENDBRANCH   7  17
BRANCH   1  23
ATOM     23  S   UNL     1       1.752  -1.106  -1.129  0.00  0.00    -0.077 S 
BRANCH  23  25
ATOM     24  C   UNL     1       0.852   1.293  -0.172  0.00  0.00    +0.029 C 
ATOM     25  C   UNL     1       0.896  -0.194   0.185  0.00  0.00    +0.137 C 
BRANCH  25  26
ATOM     26  C   UNL     1      -0.509  -0.719   0.327  0.00  0.00    +0.230 C 
ATOM     27  O   UNL     1      -1.021  -1.337  -0.582  0.00  0.00    -0.274 OA
ATOM     28  N   UNL     1      -1.198  -0.500   1.465  0.00  0.00    -0.285 N 
ATOM     29  H   UNL     1      -0.768  -0.061   2.215  0.00  0.00    +0.155 HD
BRANCH  28  30
ATOM     30  C   UNL     1      -2.527  -0.907   1.564  0.00  0.00    +0.033 A 
ATOM     31  C   UNL     1      -3.438  -0.134   2.279  0.00  0.00    +0.024 A 
ATOM     32  C   UNL     1      -4.746  -0.529   2.378  0.00  0.00    +0.013 A 
ATOM     33  C   UNL     1      -5.167  -1.713   1.759  0.00  0.00    +0.017 A 
ATOM     34  C   UNL     1      -4.247  -2.487   1.040  0.00  0.00    +0.013 A 
ATOM     35  C   UNL     1      -2.942  -2.081   0.942  0.00  0.00    +0.024 A 
BRANCH  33  36
ATOM     36  C   UNL     1      -6.568  -2.141   1.863  0.00  0.00    +0.160 C 
ATOM     37  O   UNL     1      -7.363  -1.469   2.486  0.00  0.00    -0.292 OA
ATOM     38  C   UNL     1      -7.018  -3.414   1.195  0.00  0.00    +0.091 C 
ENDBRANCH  33  36
ENDBRANCH  28  30
ENDBRANCH  25  26
ENDBRANCH  23  25
ENDBRANCH   1  23
TORSDOF 8
