REMARK  Name = ZINC39635097
REMARK  12 active torsions:
REMARK  status: ('A' for Active; 'I' for Inactive)
REMARK    1  A    between atoms: C_1  and  C_2
REMARK    2  A    between atoms: C_2  and  C_3
REMARK    3  A    between atoms: C_3  and  C_4
REMARK    4  A    between atoms: C_4  and  C_5
REMARK    5  A    between atoms: C_5  and  C_7
REMARK    6  A    between atoms: C_5  and  C_8
REMARK    7  A    between atoms: C_12  and  C_21
REMARK    8  A    between atoms: N_23  and  C_24
REMARK    9  A    between atoms: C_24  and  C_25
REMARK   10  A    between atoms: C_25  and  C_26
REMARK   11  A    between atoms: C_29  and  O_32
REMARK   12  A    between atoms: O_32  and  C_33
REMARK                            x       y       z     vdW  Elec       q    Type
REMARK                         _______ _______ _______ _____ _____    ______ ____
ROOT
ATOM      1  C   UNL     1      -2.788  -3.990   0.444  0.00  0.00    +0.218 C 
ATOM      2  O   UNL     1      -1.786  -4.626   0.692  0.00  0.00    -0.275 OA
ATOM      3  N   UNL     1      -3.963  -4.627   0.266  0.00  0.00    -0.300 N 
ATOM      4  C   UNL     1      -5.259  -4.042  -0.152  0.00  0.00    +0.121 C 
ATOM      5  C   UNL     1      -5.869  -5.089  -1.110  0.00  0.00    +0.100 C 
ATOM      6  C   UNL     1      -5.205  -6.418  -0.713  0.00  0.00    -0.004 C 
ATOM      7  C   UNL     1      -4.249  -6.071   0.438  0.00  0.00    +0.115 C 
ATOM      8  C   UNL     1      -6.259  -7.416  -0.243  0.00  0.00    -0.010 C 
ATOM      9  C   UNL     1      -5.581  -8.748   0.091  0.00  0.00    -0.082 C 
ATOM     10  N   UNL     1      -4.891  -9.259  -1.098  0.00  0.00    +0.379 N 
ATOM     11  C   UNL     1      -3.817  -8.338  -1.489  0.00  0.00    -0.082 C 
ATOM     12  C   UNL     1      -4.420  -6.989  -1.890  0.00  0.00    -0.010 C 
ATOM     13  H   UNL     1      -4.497 -10.165  -0.893  0.00  0.00    -0.086 HD
ATOM     14  H   UNL     1      -5.550  -9.346  -1.857  0.00  0.00    -0.086 HD
ENDROOT
BRANCH   5  15
ATOM     15  C   UNL     1      -5.544  -4.744  -2.541  0.00  0.00    +0.218 C 
ATOM     16  O   UNL     1      -4.557  -4.087  -2.797  0.00  0.00    -0.275 OA
ATOM     17  N   UNL     1      -6.349  -5.166  -3.535  0.00  0.00    -0.315 N 
ATOM     18  H   UNL     1      -7.139  -5.691  -3.330  0.00  0.00    +0.149 HD
BRANCH  17  19
ATOM     19  C   UNL     1      -6.033  -4.831  -4.926  0.00  0.00    +0.109 C 
BRANCH  19  20
ATOM     20  C   UNL     1      -7.099  -5.426  -5.849  0.00  0.00    +0.054 C 
BRANCH  20  21
ATOM     21  C   UNL     1      -6.773  -5.081  -7.279  0.00  0.00    -0.046 A 
ATOM     22  C   UNL     1      -7.264  -3.915  -7.837  0.00  0.00    +0.007 A 
ATOM     23  C   UNL     1      -6.968  -3.597  -9.148  0.00  0.00    +0.046 A 
ATOM     24  C   UNL     1      -6.177  -4.448  -9.905  0.00  0.00    +0.120 A 
ATOM     25  C   UNL     1      -5.685  -5.617  -9.344  0.00  0.00    +0.046 A 
ATOM     26  C   UNL     1      -5.980  -5.928  -8.030  0.00  0.00    +0.007 A 
BRANCH  24  27
ATOM     27  O   UNL     1      -5.884  -4.138 -11.196  0.00  0.00    -0.495 OA
ATOM     28  C   UNL     1      -5.064  -5.061 -11.915  0.00  0.00    +0.277 C 
ENDBRANCH  24  27
ENDBRANCH  20  21
ENDBRANCH  19  20
ENDBRANCH  17  19
ENDBRANCH   5  15
BRANCH   1  29
ATOM     29  C   UNL     1      -2.721  -2.488   0.335  0.00  0.00    +0.072 C 
ATOM     30  C   UNL     1      -1.376  -2.081  -0.270  0.00  0.00    +0.017 C 
BRANCH  29  31
ATOM     31  C   UNL     1      -2.862  -1.869   1.727  0.00  0.00    +0.012 C 
BRANCH  31  32
ATOM     32  C   UNL     1      -2.919  -0.345   1.605  0.00  0.00    +0.000 C 
BRANCH  32  34
ATOM     33  C   UNL     1      -3.117   1.798   2.874  0.00  0.00    +0.004 C 
ATOM     34  C   UNL     1      -3.060   0.274   2.997  0.00  0.00    -0.003 C 
ENDBRANCH  32  34
ENDBRANCH  31  32
ENDBRANCH  29  31
ENDBRANCH   1  29
TORSDOF 9
