REMARK  Name = ZINC59996827
REMARK  9 active torsions:
REMARK  status: ('A' for Active; 'I' for Inactive)
REMARK    1  A    between atoms: C_1  and  C_2
REMARK    2  A    between atoms: N_4  and  C_5
REMARK    3  A    between atoms: C_5  and  C_12
REMARK    4  A    between atoms: C_14  and  C_17
REMARK    5  A    between atoms: C_17  and  C_18
REMARK    6  A    between atoms: C_18  and  C_19
REMARK    7  A    between atoms: N_21  and  C_22
REMARK    8  A    between atoms: C_22  and  C_23
REMARK    9  A    between atoms: C_23  and  C_29
REMARK                            x       y       z     vdW  Elec       q    Type
REMARK                         _______ _______ _______ _____ _____    ______ ____
ROOT
ATOM      1  C   UNL     1       2.372  -1.710   4.484  0.00  0.00    +0.105 C 
ENDROOT
BRANCH   1   2
ATOM      2  C   UNL     1       3.710  -1.555   5.159  0.00  0.00    +0.214 C 
ATOM      3  O   UNL     1       4.629  -2.288   4.859  0.00  0.00    -0.276 OA
ATOM      4  N   UNL     1       3.886  -0.603   6.096  0.00  0.00    -0.314 N 
ATOM      5  H   UNL     1       3.152  -0.017   6.337  0.00  0.00    +0.149 HD
BRANCH   4   6
ATOM      6  C   UNL     1       5.188  -0.452   6.752  0.00  0.00    +0.115 C 
BRANCH   6   7
ATOM      7  C   UNL     1       5.156   0.767   7.675  0.00  0.00    +0.011 C 
ATOM      8  C   UNL     1       6.537   0.971   8.300  0.00  0.00    +0.013 C 
ATOM      9  C   UNL     1       6.920  -0.270   9.108  0.00  0.00    +0.001 C 
ATOM     10  C   UNL     1       5.888  -0.496  10.215  0.00  0.00    +0.000 C 
ATOM     11  C   UNL     1       4.506  -0.699   9.591  0.00  0.00    +0.001 C 
ATOM     12  C   UNL     1       4.124   0.542   8.782  0.00  0.00    +0.013 C 
BRANCH   7  13
ATOM     13  C   UNL     1       4.779   1.990   6.879  0.00  0.00    -0.040 A 
ATOM     14  C   UNL     1       3.705   2.767   7.272  0.00  0.00    +0.007 A 
ATOM     15  C   UNL     1       3.359   3.888   6.543  0.00  0.00    +0.038 A 
ATOM     16  C   UNL     1       4.089   4.235   5.418  0.00  0.00    +0.123 A 
ATOM     17  C   UNL     1       5.164   3.457   5.026  0.00  0.00    +0.038 A 
ATOM     18  C   UNL     1       5.512   2.338   5.759  0.00  0.00    +0.007 A 
ATOM     19  F   UNL     1       3.751   5.331   4.704  0.00  0.00    -0.205 F 
ENDBRANCH   7  13
ENDBRANCH   6   7
ENDBRANCH   4   6
ENDBRANCH   1   2
BRANCH   1  20
ATOM     20  C   UNL     1       2.441  -2.854   3.471  0.00  0.00    +0.108 C 
BRANCH  20  23
ATOM     21  C   UNL     1      -0.524  -2.773   1.387  0.00  0.00    +0.195 A 
ATOM     22  N   UNL     1       0.722  -2.405   1.704  0.00  0.00    -0.194 NA
ATOM     23  C   UNL     1       1.102  -3.009   2.796  0.00  0.00    +0.228 A 
ATOM     24  O   UNL     1       0.098  -3.790   3.215  0.00  0.00    -0.338 OA
ATOM     25  N   UNL     1      -0.957  -3.615   2.280  0.00  0.00    -0.059 NA
BRANCH  21  26
ATOM     26  C   UNL     1      -1.304  -2.286   0.192  0.00  0.00    +0.097 C 
ATOM     27  C   UNL     1      -0.649  -2.768  -1.074  0.00  0.00    +0.034 C 
ATOM     28  C   UNL     1      -0.782  -1.757  -2.228  0.00  0.00    +0.003 C 
ATOM     29  C   UNL     1      -2.181  -1.116  -2.304  0.00  0.00    +0.000 C 
ATOM     30  C   UNL     1      -3.284  -2.114  -2.072  0.00  0.00    +0.000 C 
ATOM     31  C   UNL     1      -3.665  -2.084  -0.577  0.00  0.00    +0.003 C 
ATOM     32  C   UNL     1      -2.739  -2.848   0.246  0.00  0.00    +0.034 C 
BRANCH  26  36
ATOM     33  C   UNL     1      -0.247   1.393   0.159  0.00  0.00    +0.109 C 
ATOM     34  C   UNL     1      -0.202  -0.113   0.154  0.00  0.00    +0.211 C 
ATOM     35  O   UNL     1       0.865  -0.688   0.112  0.00  0.00    -0.276 OA
ATOM     36  N   UNL     1      -1.348  -0.822   0.197  0.00  0.00    -0.303 N 
ATOM     37  H   UNL     1      -2.201  -0.362   0.230  0.00  0.00    +0.150 HD
ENDBRANCH  26  36
ENDBRANCH  21  26
ENDBRANCH  20  23
ENDBRANCH   1  20
TORSDOF 8
