REMARK  Name = ZINC59359385
REMARK  6 active torsions:
REMARK  status: ('A' for Active; 'I' for Inactive)
REMARK    1  A    between atoms: C_1  and  C_2
REMARK    2  A    between atoms: C_3  and  C_7
REMARK    3  A    between atoms: N_9  and  C_10
REMARK    4  A    between atoms: C_10  and  C_11
REMARK    5  A    between atoms: N_16  and  S_19
REMARK    6  A    between atoms: S_19  and  C_22
REMARK                            x       y       z     vdW  Elec       q    Type
REMARK                         _______ _______ _______ _____ _____    ______ ____
ROOT
ATOM      1  C   UNL     1      -5.768  -2.152   0.018  0.00  0.00    +0.233 C 
ATOM      2  O   UNL     1      -5.269  -3.257   0.009  0.00  0.00    -0.274 OA
ATOM      3  N   UNL     1      -7.109  -2.018   0.026  0.00  0.00    -0.298 N 
ATOM      4  C   UNL     1      -7.727  -0.685   0.031  0.00  0.00    +0.125 C 
ATOM      5  C   UNL     1      -8.692  -0.588  -1.158  0.00  0.00    +0.128 C 
ATOM      6  N   UNL     1      -9.562  -1.772  -1.155  0.00  0.00    -0.174 NA
ATOM      7  C   UNL     1      -8.943  -3.105  -1.160  0.00  0.00    +0.128 C 
ATOM      8  C   UNL     1      -7.979  -3.203   0.023  0.00  0.00    +0.125 C 
ENDROOT
BRANCH   6   9
ATOM      9  S   UNL     1     -11.209  -1.608  -1.146  0.00  0.00    +0.061 S 
ATOM     10  O   UNL     1     -11.734  -2.808  -0.594  0.00  0.00    -0.153 OA
ATOM     11  O   UNL     1     -11.487  -0.329  -0.592  0.00  0.00    -0.153 OA
BRANCH   9  12
ATOM     12  C   UNL     1     -11.737  -1.553  -2.826  0.00  0.00    +0.106 A 
ATOM     13  C   UNL     1     -11.817  -0.326  -3.481  0.00  0.00    +0.029 A 
ATOM     14  C   UNL     1     -12.221  -0.249  -4.779  0.00  0.00    +0.010 A 
ATOM     15  C   UNL     1     -12.563  -1.423  -5.471  0.00  0.00    -0.018 A 
ATOM     16  C   UNL     1     -12.984  -1.383  -6.811  0.00  0.00    +0.008 A 
ATOM     17  C   UNL     1     -13.307  -2.540  -7.450  0.00  0.00    +0.001 A 
ATOM     18  C   UNL     1     -13.227  -3.768  -6.795  0.00  0.00    +0.001 A 
ATOM     19  C   UNL     1     -12.824  -3.845  -5.498  0.00  0.00    +0.008 A 
ATOM     20  C   UNL     1     -12.482  -2.671  -4.805  0.00  0.00    -0.016 A 
ATOM     21  C   UNL     1     -12.055  -2.711  -3.467  0.00  0.00    +0.037 A 
ENDBRANCH   9  12
ENDBRANCH   6   9
BRANCH   1  22
ATOM     22  C   UNL     1      -4.888  -0.928   0.021  0.00  0.00    +0.200 C 
BRANCH  22  25
ATOM     23  C   UNL     1      -2.508  -0.405   0.012  0.00  0.00    +0.248 C 
ATOM     24  O   UNL     1      -2.798   0.776   0.021  0.00  0.00    -0.270 OA
ATOM     25  N   UNL     1      -3.482  -1.337   0.011  0.00  0.00    -0.303 N 
ATOM     26  H   UNL     1      -3.251  -2.280   0.005  0.00  0.00    +0.150 HD
BRANCH  23  29
ATOM     27  C   UNL     1      -0.018   1.503   0.010  0.00  0.00    +0.087 C 
ATOM     28  C   UNL     1       0.002  -0.004   0.002  0.00  0.00    +0.114 A 
ATOM     29  C   UNL     1      -1.093  -0.817   0.003  0.00  0.00    +0.077 A 
ATOM     30  C   UNL     1      -0.567  -2.190  -0.008  0.00  0.00    +0.054 A 
ATOM     31  C   UNL     1       0.769  -2.073  -0.014  0.00  0.00    +0.196 A 
ATOM     32  O   UNL     1       1.097  -0.771  -0.013  0.00  0.00    -0.467 OA
ENDBRANCH  23  29
ENDBRANCH  22  25
ENDBRANCH   1  22
TORSDOF 5
