REMARK  Name = ZINC12873085
REMARK  10 active torsions:
REMARK  status: ('A' for Active; 'I' for Inactive)
REMARK    1  A    between atoms: C_1  and  C_2
REMARK    2  A    between atoms: C_2  and  C_3
REMARK    3  A    between atoms: C_2  and  C_4
REMARK    4  A    between atoms: C_4  and  C_5
REMARK    5  A    between atoms: C_5  and  C_7
REMARK    6  A    between atoms: C_5  and  N_19
REMARK    7  A    between atoms: N_9  and  C_10
REMARK    8  A    between atoms: C_10  and  C_11
REMARK    9  A    between atoms: C_11  and  C_12
REMARK   10  A    between atoms: C_22  and  C_38
REMARK                            x       y       z     vdW  Elec       q    Type
REMARK                         _______ _______ _______ _____ _____    ______ ____
ROOT
ATOM      1  N   UNL     1       1.988   0.422  -0.213  0.00  0.00    -0.212 N 
ATOM      2  C   UNL     1       1.181   1.505  -0.161  0.00  0.00    +0.253 C 
ATOM      3  O   UNL     1       1.514   2.670  -0.192  0.00  0.00    -0.272 OA
ATOM      4  C   UNL     1      -0.222   0.957  -0.056  0.00  0.00    +0.153 C 
ATOM      5  C   UNL     1      -0.925   1.463   1.180  0.00  0.00    +0.053 A 
ATOM      6  C   UNL     1      -1.461   0.640   2.110  0.00  0.00    -0.015 A 
ATOM      7  C   UNL     1      -2.058   1.494   3.123  0.00  0.00    +0.003 A 
ATOM      8  C   UNL     1      -2.754   1.212   4.302  0.00  0.00    +0.010 A 
ATOM      9  C   UNL     1      -3.186   2.288   5.038  0.00  0.00    +0.001 A 
ATOM     10  C   UNL     1      -2.948   3.594   4.642  0.00  0.00    +0.002 A 
ATOM     11  C   UNL     1      -2.262   3.900   3.480  0.00  0.00    +0.026 A 
ATOM     12  C   UNL     1      -1.813   2.828   2.712  0.00  0.00    +0.047 A 
ATOM     13  N   UNL     1      -1.123   2.770   1.536  0.00  0.00    -0.356 N 
ATOM     14  H   UNL     1      -0.818   3.538   1.029  0.00  0.00    +0.166 HD
ATOM     15  C   UNL     1      -1.436  -0.867   2.092  0.00  0.00    +0.056 C 
ATOM     16  C   UNL     1      -1.035  -1.377   0.699  0.00  0.00    +0.115 C 
ATOM     17  N   UNL     1       0.007  -0.487   0.184  0.00  0.00    -0.266 N 
ATOM     18  C   UNL     1       1.295  -0.719  -0.075  0.00  0.00    +0.313 C 
ATOM     19  O   UNL     1       1.781  -1.829  -0.173  0.00  0.00    -0.252 OA
ATOM     20  C   UNL     1      -1.032   1.209  -1.330  0.00  0.00    +0.048 C 
ENDROOT
BRANCH   1  21
ATOM     21  C   UNL     1       3.440   0.486  -0.398  0.00  0.00    +0.171 C 
BRANCH  21  22
ATOM     22  C   UNL     1       3.807  -0.142  -1.717  0.00  0.00    +0.234 C 
ATOM     23  O   UNL     1       2.941  -0.599  -2.433  0.00  0.00    -0.274 OA
ATOM     24  N   UNL     1       5.098  -0.198  -2.102  0.00  0.00    -0.313 N 
ATOM     25  H   UNL     1       5.790   0.168  -1.529  0.00  0.00    +0.149 HD
BRANCH  24  26
ATOM     26  C   UNL     1       5.454  -0.809  -3.385  0.00  0.00    +0.109 C 
BRANCH  26  27
ATOM     27  C   UNL     1       6.971  -0.742  -3.577  0.00  0.00    +0.056 C 
BRANCH  27  28
ATOM     28  C   UNL     1       7.338  -1.371  -4.897  0.00  0.00    -0.011 A 
ATOM     29  C   UNL     1       7.593  -0.572  -5.996  0.00  0.00    +0.006 A 
ATOM     30  C   UNL     1       7.930  -1.149  -7.206  0.00  0.00    +0.000 A 
ATOM     31  C   UNL     1       8.013  -2.524  -7.319  0.00  0.00    +0.003 A 
ATOM     32  C   UNL     1       7.758  -3.324  -6.221  0.00  0.00    +0.038 A 
ATOM     33  C   UNL     1       7.425  -2.748  -5.007  0.00  0.00    +0.127 A 
ATOM     34  F   UNL     1       7.181  -3.529  -3.932  0.00  0.00    -0.205 F 
ENDBRANCH  27  28
ENDBRANCH  26  27
ENDBRANCH  24  26
ENDBRANCH  21  22
BRANCH  21  35
ATOM     35  C   UNL     1       4.132  -0.270   0.738  0.00  0.00    +0.035 C 
BRANCH  35  37
ATOM     36  C   UNL     1       4.422  -0.402   3.216  0.00  0.00    +0.007 C 
ATOM     37  C   UNL     1       3.834   0.423   2.069  0.00  0.00    -0.015 C 
ATOM     38  C   UNL     1       4.462   1.818   2.069  0.00  0.00    +0.007 C 
ENDBRANCH  35  37
ENDBRANCH  21  35
ENDBRANCH   1  21
TORSDOF 7
