REMARK  Name = ZINC48795930
REMARK  6 active torsions:
REMARK  status: ('A' for Active; 'I' for Inactive)
REMARK    1  A    between atoms: C_3  and  C_18
REMARK    2  A    between atoms: C_4  and  O_8
REMARK    3  A    between atoms: O_8  and  C_9
REMARK    4  A    between atoms: C_15  and  O_17
REMARK    5  A    between atoms: C_18  and  N_19
REMARK    6  A    between atoms: N_19  and  C_20
REMARK                            x       y       z     vdW  Elec       q    Type
REMARK                         _______ _______ _______ _____ _____    ______ ____
ROOT
ATOM      1  C   UNL     1      -0.017   1.378   0.010  0.00  0.00    +0.002 A 
ATOM      2  C   UNL     1       1.170   2.088   0.002  0.00  0.00    +0.005 A 
ATOM      3  C   UNL     1       2.378   1.418  -0.013  0.00  0.00    -0.022 A 
ATOM      4  C   UNL     1       2.400   0.031  -0.021  0.00  0.00    +0.136 A 
ATOM      5  C   UNL     1       1.208  -0.680  -0.013  0.00  0.00    +0.060 A 
ATOM      6  C   UNL     1       0.002  -0.004   0.002  0.00  0.00    +0.019 A 
ATOM      7 BR   UNL     1       1.233  -2.571  -0.024  0.00  0.00    -0.047 Br
ENDROOT
BRANCH   4   8
ATOM      8  O   UNL     1       3.587  -0.631  -0.037  0.00  0.00    -0.485 OA
BRANCH   8   9
ATOM      9  C   UNL     1       4.167  -0.953   1.229  0.00  0.00    +0.202 C 
ATOM     10  C   UNL     1       3.671  -2.329   1.681  0.00  0.00    +0.047 C 
ATOM     11  C   UNL     1       4.292  -2.674   3.036  0.00  0.00    +0.004 C 
ATOM     12  C   UNL     1       5.816  -2.698   2.908  0.00  0.00    +0.003 C 
ATOM     13  C   UNL     1       6.312  -1.323   2.455  0.00  0.00    +0.035 C 
ATOM     14  C   UNL     1       5.691  -0.977   1.100  0.00  0.00    +0.155 C 
BRANCH  14  15
ATOM     15  O   UNL     1       6.154   0.307   0.678  0.00  0.00    -0.388 OA
ATOM     16  H   UNL     1       7.114   0.365   0.575  0.00  0.00    +0.210 HD
ENDBRANCH  14  15
ENDBRANCH   8   9
ENDBRANCH   4   8
BRANCH   3  17
ATOM     17  C   UNL     1       3.670   2.193  -0.023  0.00  0.00    -0.043 C 
BRANCH  17  18
ATOM     18  N   UNL     1       4.200   2.245  -1.392  0.00  0.00    +0.384 N 
ATOM     19  H   UNL     1       4.368   1.307  -1.724  0.00  0.00    -0.085 HD
ATOM     20  H   UNL     1       3.531   2.700  -1.994  0.00  0.00    -0.085 HD
BRANCH  18  21
ATOM     21  C   UNL     1       5.460   3.001  -1.401  0.00  0.00    -0.072 C 
ATOM     22  C   UNL     1       5.496   4.305  -2.200  0.00  0.00    -0.017 C 
ATOM     23  C   UNL     1       6.233   3.069  -2.719  0.00  0.00    -0.017 C 
ENDBRANCH  18  21
ENDBRANCH  17  18
ENDBRANCH   3  17
TORSDOF 6
