REMARK  Name = ZINC14031713
REMARK  8 active torsions:
REMARK  status: ('A' for Active; 'I' for Inactive)
REMARK    1  A    between atoms: C_1  and  C_2
REMARK    2  A    between atoms: C_2  and  C_4
REMARK    3  A    between atoms: C_2  and  O_20
REMARK    4  A    between atoms: N_6  and  N_7
REMARK    5  A    between atoms: N_7  and  C_8
REMARK    6  A    between atoms: C_8  and  N_10
REMARK    7  A    between atoms: C_11  and  C_13
REMARK    8  A    between atoms: O_20  and  C_21
REMARK                            x       y       z     vdW  Elec       q    Type
REMARK                         _______ _______ _______ _____ _____    ______ ____
ROOT
ATOM      1  C   UNL     1      -3.377  -0.699   0.947  0.00  0.00    +0.270 C 
ATOM      2  O   UNL     1      -3.096  -1.798   1.374  0.00  0.00    -0.270 OA
ATOM      3  N   UNL     1      -4.591  -0.169   1.197  0.00  0.00    -0.232 N 
ATOM      4  H   UNL     1      -4.816   0.711   0.855  0.00  0.00    +0.173 HD
ENDROOT
BRANCH   1   6
ATOM      5  C   UNL     1      -2.943   0.359  -1.254  0.00  0.00    +0.062 C 
ATOM      6  C   UNL     1      -2.370   0.076   0.136  0.00  0.00    +0.257 C 
BRANCH   6   7
ATOM      7  O   UNL     1      -1.171  -0.691   0.010  0.00  0.00    -0.480 OA
BRANCH   7   8
ATOM      8  C   UNL     1      -0.020  -0.003  -0.215  0.00  0.00    +0.122 A 
ATOM      9  C   UNL     1      -0.072   1.379  -0.423  0.00  0.00    +0.046 A 
ATOM     10  C   UNL     1       1.062   2.094  -0.651  0.00  0.00    +0.012 A 
ATOM     11  C   UNL     1       2.306   1.439  -0.678  0.00  0.00    -0.018 A 
ATOM     12  C   UNL     1       3.497   2.148  -0.911  0.00  0.00    +0.008 A 
ATOM     13  C   UNL     1       4.684   1.482  -0.932  0.00  0.00    +0.001 A 
ATOM     14  C   UNL     1       4.738   0.105  -0.725  0.00  0.00    +0.001 A 
ATOM     15  C   UNL     1       3.605  -0.614  -0.497  0.00  0.00    +0.008 A 
ATOM     16  C   UNL     1       2.361   0.039  -0.468  0.00  0.00    -0.014 A 
ATOM     17  C   UNL     1       1.171  -0.671  -0.236  0.00  0.00    +0.054 A 
ENDBRANCH   7   8
ENDBRANCH   6   7
ENDBRANCH   1   6
BRANCH   3  18
ATOM     18  N   UNL     1      -5.528  -0.889   1.950  0.00  0.00    -0.245 N 
ATOM     19  H   UNL     1      -5.303  -1.768   2.292  0.00  0.00    +0.172 HD
BRANCH  18  20
ATOM     20  C   UNL     1      -6.742  -0.359   2.200  0.00  0.00    +0.153 C 
ATOM     21  S   UNL     1      -7.886  -1.239   3.121  0.00  0.00    -0.017 S 
BRANCH  20  22
ATOM     22  N   UNL     1      -7.055   0.863   1.726  0.00  0.00    -0.263 N 
ATOM     23  C   UNL     1      -8.268   1.392   1.976  0.00  0.00    +0.251 C 
ATOM     24  O   UNL     1      -9.081   0.768   2.630  0.00  0.00    -0.270 OA
ATOM     25  H   UNL     1      -6.406   1.361   1.204  0.00  0.00    +0.157 HD
BRANCH  23  26
ATOM     26  C   UNL     1      -8.611   2.732   1.456  0.00  0.00    +0.055 A 
ATOM     27  C   UNL     1      -7.678   3.454   0.709  0.00  0.00    +0.014 A 
ATOM     28  C   UNL     1      -8.007   4.702   0.222  0.00  0.00    +0.001 A 
ATOM     29  C   UNL     1      -9.254   5.244   0.481  0.00  0.00    +0.001 A 
ATOM     30  C   UNL     1     -10.182   4.537   1.223  0.00  0.00    +0.021 A 
ATOM     31  C   UNL     1      -9.869   3.284   1.713  0.00  0.00    +0.053 A 
ATOM     32 CL   UNL     1     -11.034   2.398   2.647  0.00  0.00    -0.083 Cl
ENDBRANCH  23  26
ENDBRANCH  20  22
ENDBRANCH  18  20
ENDBRANCH   3  18
TORSDOF 7
