REMARK  Name = ZINC63027700
REMARK  8 active torsions:
REMARK  status: ('A' for Active; 'I' for Inactive)
REMARK    1  A    between atoms: C_1  and  C_2
REMARK    2  A    between atoms: C_2  and  C_4
REMARK    3  A    between atoms: C_2  and  N_19
REMARK    4  A    between atoms: C_4  and  C_6
REMARK    5  A    between atoms: C_4  and  C_16
REMARK    6  A    between atoms: C_7  and  N_13
REMARK    7  A    between atoms: C_16  and  C_17
REMARK    8  A    between atoms: C_16  and  C_18
REMARK                            x       y       z     vdW  Elec       q    Type
REMARK                         _______ _______ _______ _____ _____    ______ ____
ROOT
ATOM      1  C   UNL     1      -1.742  -0.865   0.271  0.00  0.00    +0.028 C 
ENDROOT
BRANCH   1   2
ATOM      2  C   UNL     1      -2.225  -0.162  -0.971  0.00  0.00    +0.073 A 
ATOM      3  C   UNL     1      -1.857  -0.641  -2.214  0.00  0.00    +0.149 A 
ATOM      4  C   UNL     1      -2.307   0.012  -3.350  0.00  0.00    +0.051 A 
ATOM      5  C   UNL     1      -3.114   1.129  -3.194  0.00  0.00    +0.038 A 
ATOM      6  C   UNL     1      -3.441   1.550  -1.918  0.00  0.00    +0.126 A 
ATOM      7  N   UNL     1      -2.999   0.900  -0.859  0.00  0.00    -0.256 NA
ATOM      8 BR   UNL     1      -3.760   2.065  -4.705  0.00  0.00    -0.049 Br
BRANCH   3   9
ATOM      9  N   UNL     1      -0.993  -1.837  -2.330  0.00  0.00    +0.058 N 
ATOM     10  O   UNL     1      -0.780  -2.327  -3.415  0.00  0.00    -0.126 OA
ATOM     11  O   UNL     1      -0.499  -2.325  -1.340  0.00  0.00    -0.126 OA
ENDBRANCH   3   9
ENDBRANCH   1   2
BRANCH   1  12
ATOM     12  C   UNL     1      -2.863  -0.889   1.313  0.00  0.00    -0.010 C 
ATOM     13  C   UNL     1      -4.050  -1.684   0.765  0.00  0.00    +0.008 C 
ATOM     14  C   UNL     1      -2.354  -1.551   2.595  0.00  0.00    +0.008 C 
ENDBRANCH   1  12
BRANCH   1  16
ATOM     15  C   UNL     1       0.620  -0.175  -0.164  0.00  0.00    -0.014 C 
ATOM     16  C   UNL     1      -0.533  -0.121   0.841  0.00  0.00    -0.069 C 
BRANCH  16  17
ATOM     17  N   UNL     1      -0.895   1.280   1.095  0.00  0.00    +0.380 N 
ATOM     18  H   UNL     1      -1.230   1.701   0.241  0.00  0.00    -0.090 HD
ATOM     19  H   UNL     1      -1.620   1.318   1.795  0.00  0.00    -0.090 HD
ATOM     20  H   UNL     1      -0.084   1.783   1.423  0.00  0.00    -0.090 HD
ENDBRANCH  16  17
ENDBRANCH   1  16
TORSDOF 5
