REMARK  Name = ZINC44225380
REMARK  3 active torsions:
REMARK  status: ('A' for Active; 'I' for Inactive)
REMARK    1  A    between atoms: C_4  and  C_7
REMARK    2  A    between atoms: N_11  and  S_13
REMARK    3  A    between atoms: S_13  and  C_16
REMARK                            x       y       z     vdW  Elec       q    Type
REMARK                         _______ _______ _______ _____ _____    ______ ____
ROOT
ATOM      1  C   UNL     1       3.711  -0.707  -0.038  0.00  0.00    +0.036 C 
ATOM      2  C   UNL     1       3.808  -1.687   1.162  0.00  0.00    +0.026 C 
ATOM      3  C   UNL     1       4.792  -2.751   0.615  0.00  0.00    +0.110 C 
ATOM      4  N   UNL     1       4.446  -2.887  -0.811  0.00  0.00    -0.176 NA
ATOM      5  C   UNL     1       3.797  -1.643  -1.261  0.00  0.00    +0.117 C 
ENDROOT
BRANCH   1   9
ATOM      6  C   UNL     1      -0.017   1.378   0.010  0.00  0.00    +0.000 A 
ATOM      7  C   UNL     1       1.171   2.086   0.002  0.00  0.00    +0.000 A 
ATOM      8  C   UNL     1       2.377   1.411  -0.013  0.00  0.00    +0.004 A 
ATOM      9  C   UNL     1       2.396   0.029  -0.020  0.00  0.00    -0.043 A 
ATOM     10  C   UNL     1       1.208  -0.679  -0.012  0.00  0.00    +0.004 A 
ATOM     11  C   UNL     1       0.002  -0.004   0.002  0.00  0.00    +0.000 A 
ENDBRANCH   1   9
BRANCH   4  12
ATOM     12  S   UNL     1       4.744  -4.215  -1.754  0.00  0.00    +0.064 S 
ATOM     13  O   UNL     1       4.788  -3.757  -3.099  0.00  0.00    -0.153 OA
ATOM     14  O   UNL     1       5.826  -4.909  -1.149  0.00  0.00    -0.153 OA
BRANCH  12  15
ATOM     15  C   UNL     1       3.337  -5.269  -1.628  0.00  0.00    +0.140 A 
ATOM     16  C   UNL     1       2.557  -5.517  -2.742  0.00  0.00    +0.031 A 
ATOM     17  C   UNL     1       1.453  -6.343  -2.643  0.00  0.00    +0.002 A 
ATOM     18  C   UNL     1       1.129  -6.924  -1.430  0.00  0.00    +0.003 A 
ATOM     19  C   UNL     1       1.908  -6.678  -0.316  0.00  0.00    +0.040 A 
ATOM     20  C   UNL     1       3.017  -5.854  -0.415  0.00  0.00    +0.150 A 
ATOM     21  F   UNL     1       3.782  -5.617   0.673  0.00  0.00    -0.203 F 
ENDBRANCH  12  15
ENDBRANCH   4  12
TORSDOF 3
