REMARK  Name = ZINC00784500
REMARK  3 active torsions:
REMARK  status: ('A' for Active; 'I' for Inactive)
REMARK    1  A    between atoms: C_1  and  C_2
REMARK    2  A    between atoms: C_7  and  N_8
REMARK    3  A    between atoms: C_11  and  C_14
REMARK                            x       y       z     vdW  Elec       q    Type
REMARK                         _______ _______ _______ _____ _____    ______ ____
ROOT
ATOM      1  N   UNL     1      -3.869  -2.329   0.008  0.00  0.00    -0.278 N 
ATOM      2  C   UNL     1      -3.651  -0.959   0.015  0.00  0.00    +0.164 A 
ATOM      3  N   UNL     1      -2.510  -0.296   0.013  0.00  0.00    -0.224 NA
ATOM      4  C   UNL     1      -2.487   1.035   0.019  0.00  0.00    +0.087 A 
ATOM      5  C   UNL     1      -3.669   1.724   0.034  0.00  0.00    +0.077 A 
ATOM      6  S   UNL     1      -4.842   0.374   0.027  0.00  0.00    -0.060 S 
ATOM      7  H   UNL     1      -3.116  -2.939   0.001  0.00  0.00    +0.155 HD
ENDROOT
BRANCH   4   8
ATOM      8  C   UNL     1      -1.197   1.762   0.017  0.00  0.00    +0.086 A 
ATOM      9  C   UNL     1      -0.013   1.076   0.008  0.00  0.00    +0.028 A 
ATOM     10  C   UNL     1       1.234   1.844   0.000  0.00  0.00    +0.018 A 
ATOM     11  C   UNL     1       2.472   1.190  -0.014  0.00  0.00    +0.011 A 
ATOM     12  C   UNL     1       3.626   1.922  -0.021  0.00  0.00    +0.001 A 
ATOM     13  C   UNL     1       3.579   3.308  -0.014  0.00  0.00    +0.004 A 
ATOM     14  C   UNL     1       2.370   3.971   0.000  0.00  0.00    +0.047 A 
ATOM     15  C   UNL     1       1.183   3.249   0.008  0.00  0.00    +0.139 A 
ATOM     16  O   UNL     1      -0.004   3.893   0.022  0.00  0.00    -0.422 OA
ATOM     17  C   UNL     1      -1.169   3.228   0.030  0.00  0.00    +0.347 A 
ATOM     18  O   UNL     1      -2.215   3.849   0.043  0.00  0.00    -0.244 OA
ENDBRANCH   4   8
BRANCH   1  25
ATOM     19  C   UNL     1      -4.212  -5.153  -0.018  0.00  0.00    +0.047 C 
ATOM     20  C   UNL     1      -5.380  -4.201   0.000  0.00  0.00    -0.010 A 
ATOM     21  C   UNL     1      -6.677  -4.683   0.010  0.00  0.00    +0.008 A 
ATOM     22  C   UNL     1      -7.723  -3.769   0.020  0.00  0.00    +0.020 A 
ATOM     23  C   UNL     1      -7.440  -2.418   0.026  0.00  0.00    +0.113 A 
ATOM     24  N   UNL     1      -6.193  -1.987   0.022  0.00  0.00    -0.240 NA
ATOM     25  C   UNL     1      -5.169  -2.827   0.012  0.00  0.00    +0.127 A 
ENDBRANCH   1  25
TORSDOF 2
