REMARK  Name = ZINC59104241
REMARK  7 active torsions:
REMARK  status: ('A' for Active; 'I' for Inactive)
REMARK    1  A    between atoms: C_1  and  C_2
REMARK    2  A    between atoms: C_5  and  N_8
REMARK    3  A    between atoms: C_9  and  C_10
REMARK    4  A    between atoms: N_14  and  C_15
REMARK    5  A    between atoms: C_18  and  N_21
REMARK    6  A    between atoms: N_21  and  C_22
REMARK    7  A    between atoms: N_21  and  C_23
REMARK                            x       y       z     vdW  Elec       q    Type
REMARK                         _______ _______ _______ _____ _____    ______ ____
ROOT
ATOM      1  C   UNL     1       0.889  -6.206   0.765  0.00  0.00    +0.065 A 
ATOM      2  C   UNL     1       0.111  -7.029  -0.028  0.00  0.00    +0.029 A 
ATOM      3  C   UNL     1       0.453  -8.348   0.289  0.00  0.00    +0.020 A 
ATOM      4  C   UNL     1       1.409  -8.313   1.247  0.00  0.00    +0.092 A 
ATOM      5  N   UNL     1       1.689  -7.016   1.542  0.00  0.00    -0.315 N 
ENDROOT
BRANCH   5   6
ATOM      6  C   UNL     1       2.632  -6.574   2.482  0.00  0.00    +0.047 A 
ATOM      7  C   UNL     1       3.563  -5.607   2.129  0.00  0.00    +0.028 A 
ATOM      8  C   UNL     1       4.491  -5.172   3.054  0.00  0.00    +0.025 A 
ATOM      9  C   UNL     1       4.493  -5.703   4.338  0.00  0.00    +0.029 A 
ATOM     10  C   UNL     1       3.561  -6.671   4.690  0.00  0.00    +0.025 A 
ATOM     11  C   UNL     1       2.630  -7.101   3.767  0.00  0.00    +0.028 A 
BRANCH   9  12
ATOM     12  N   UNL     1       5.433  -5.264   5.275  0.00  0.00    -0.336 N 
ATOM     13  C   UNL     1       6.416  -4.243   4.903  0.00  0.00    +0.129 C 
ATOM     14  C   UNL     1       5.435  -5.824   6.629  0.00  0.00    +0.129 C 
ENDBRANCH   9  12
ENDBRANCH   5   6
BRANCH   1  16
ATOM     15  N   UNL     1       0.057  -4.141  -0.021  0.00  0.00    -0.254 NA
ATOM     16  C   UNL     1       0.870  -4.789   0.772  0.00  0.00    +0.137 C 
BRANCH  15  21
ATOM     17  C   UNL     1      -0.018   1.503   0.010  0.00  0.00    +0.044 C 
ATOM     18  C   UNL     1       0.002  -0.004   0.002  0.00  0.00    -0.050 A 
ATOM     19  C   UNL     1       0.006  -0.686  -1.202  0.00  0.00    +0.005 A 
ATOM     20  C   UNL     1       0.024  -2.065  -1.217  0.00  0.00    +0.028 A 
ATOM     21  C   UNL     1       0.039  -2.773  -0.013  0.00  0.00    +0.064 A 
ATOM     22  C   UNL     1       0.036  -2.078   1.199  0.00  0.00    +0.028 A 
ATOM     23  C   UNL     1       0.023  -0.699   1.198  0.00  0.00    +0.005 A 
ENDBRANCH  15  21
ENDBRANCH   1  16
TORSDOF 4
