REMARK  Name = ZINC24283715
REMARK  10 active torsions:
REMARK  status: ('A' for Active; 'I' for Inactive)
REMARK    1  A    between atoms: C_1  and  C_2
REMARK    2  A    between atoms: C_3  and  C_34
REMARK    3  A    between atoms: N_4  and  C_28
REMARK    4  A    between atoms: C_5  and  N_9
REMARK    5  A    between atoms: C_6  and  C_7
REMARK    6  A    between atoms: C_10  and  C_12
REMARK    7  A    between atoms: C_12  and  N_13
REMARK    8  A    between atoms: N_16  and  C_19
REMARK    9  A    between atoms: C_19  and  C_20
REMARK   10  A    between atoms: C_21  and  C_22
REMARK                            x       y       z     vdW  Elec       q    Type
REMARK                         _______ _______ _______ _____ _____    ______ ____
ROOT
ATOM      1  N   UNL     1       0.389  -3.478   1.432  0.00  0.00    -0.270 N 
ATOM      2  C   UNL     1       0.488  -4.671   0.813  0.00  0.00    +0.232 C 
ATOM      3  O   UNL     1       0.871  -4.728  -0.336  0.00  0.00    -0.274 OA
ATOM      4  H   UNL     1       0.160  -3.437   2.374  0.00  0.00    +0.156 HD
ENDROOT
BRANCH   1   9
ATOM      5  C   UNL     1       0.704  -0.033  -2.253  0.00  0.00    +0.047 C 
ATOM      6  C   UNL     1       0.769  -0.730  -0.918  0.00  0.00    -0.011 A 
ATOM      7  C   UNL     1       1.193  -0.202   0.242  0.00  0.00    +0.022 A 
ATOM      8  N   UNL     1       1.101  -1.146   1.230  0.00  0.00    -0.329 N 
ATOM      9  C   UNL     1       0.614  -2.307   0.722  0.00  0.00    +0.124 A 
ATOM     10  C   UNL     1       0.376  -2.115  -0.632  0.00  0.00    +0.095 A 
ATOM     11  C   UNL     1       1.691   1.208   0.428  0.00  0.00    +0.064 C 
BRANCH   8  12
ATOM     12  C   UNL     1       1.475  -0.934   2.630  0.00  0.00    +0.089 C 
ATOM     13  C   UNL     1       2.477  -2.008   3.059  0.00  0.00    +0.025 C 
ATOM     14  C   UNL     1       2.867  -1.787   4.521  0.00  0.00    +0.002 C 
ATOM     15  C   UNL     1       1.618  -1.873   5.401  0.00  0.00    +0.000 C 
ATOM     16  C   UNL     1       0.617  -0.799   4.973  0.00  0.00    +0.002 C 
ATOM     17  C   UNL     1       0.226  -1.021   3.510  0.00  0.00    +0.025 C 
ENDBRANCH   8  12
BRANCH  10  18
ATOM     18  C   UNL     1      -0.144  -3.073  -1.560  0.00  0.00    +0.103 C 
ATOM     19  N   UNL     1      -0.557  -3.832  -2.297  0.00  0.00    -0.191 NA
ENDBRANCH  10  18
ENDBRANCH   1   9
BRANCH   2  20
ATOM     20  C   UNL     1       0.122  -5.934   1.550  0.00  0.00    +0.180 C 
BRANCH  20  21
ATOM     21  N   UNL     1       0.188  -7.075   0.627  0.00  0.00    -0.298 NA
ATOM     22  C   UNL     1      -0.938  -7.053  -0.318  0.00  0.00    +0.066 C 
ATOM     23  C   UNL     1      -0.801  -8.221  -1.297  0.00  0.00    -0.063 C 
ATOM     24  N   UNL     1      -0.790  -9.487  -0.551  0.00  0.00    +0.384 N 
ATOM     25  C   UNL     1       0.354  -9.504   0.370  0.00  0.00    -0.063 C 
ATOM     26  C   UNL     1       0.227  -8.346   1.363  0.00  0.00    +0.066 C 
ATOM     27  H   UNL     1      -1.647  -9.575  -0.025  0.00  0.00    -0.081 HD
BRANCH  24  28
ATOM     28  C   UNL     1      -0.677 -10.608  -1.493  0.00  0.00    -0.051 C 
BRANCH  28  29
ATOM     29  C   UNL     1      -0.788 -11.909  -0.740  0.00  0.00    -0.045 C 
ATOM     30  C   UNL     1      -1.699 -12.805  -1.095  0.00  0.00    +0.002 C 
BRANCH  30  31
ATOM     31  C   UNL     1      -1.808 -14.081  -0.357  0.00  0.00    -0.025 A 
ATOM     32  C   UNL     1      -0.959 -14.343   0.718  0.00  0.00    +0.008 A 
ATOM     33  C   UNL     1      -1.066 -15.536   1.403  0.00  0.00    +0.001 A 
ATOM     34  C   UNL     1      -2.013 -16.471   1.026  0.00  0.00    +0.000 A 
ATOM     35  C   UNL     1      -2.858 -16.217  -0.040  0.00  0.00    +0.001 A 
ATOM     36  C   UNL     1      -2.765 -15.025  -0.729  0.00  0.00    +0.008 A 
ENDBRANCH  30  31
ENDBRANCH  28  29
ENDBRANCH  24  28
ENDBRANCH  20  21
ENDBRANCH   2  20
TORSDOF 8
