REMARK  Name = ZINC60391897
REMARK  4 active torsions:
REMARK  status: ('A' for Active; 'I' for Inactive)
REMARK    1  A    between atoms: C_1  and  C_2
REMARK    2  A    between atoms: C_5  and  C_7
REMARK    3  A    between atoms: N_9  and  C_10
REMARK    4  A    between atoms: C_11  and  C_19
REMARK                            x       y       z     vdW  Elec       q    Type
REMARK                         _______ _______ _______ _____ _____    ______ ____
ROOT
ATOM      1  C   UNL     1       0.185  -3.905   3.070  0.00  0.00    +0.083 A 
ATOM      2  C   UNL     1       0.642  -4.745   4.072  0.00  0.00    +0.049 A 
ATOM      3  C   UNL     1      -0.151  -5.917   4.393  0.00  0.00    -0.025 A 
ATOM      4  C   UNL     1      -1.283  -6.088   3.671  0.00  0.00    -0.005 A 
ATOM      5  S   UNL     1      -1.328  -4.704   2.566  0.00  0.00    -0.077 S 
ATOM      6  C   UNL     1      -2.276  -7.202   3.793  0.00  0.00    +0.043 C 
ATOM      7  C   UNL     1      -1.637  -8.335   4.608  0.00  0.00    +0.005 C 
ATOM      8  C   UNL     1      -0.993  -7.735   5.862  0.00  0.00    +0.005 C 
ATOM      9  C   UNL     1       0.241  -6.920   5.474  0.00  0.00    +0.037 C 
ENDROOT
BRANCH   2  10
ATOM     10  C   UNL     1       1.895  -4.456   4.791  0.00  0.00    +0.142 A 
ATOM     11  N   UNL     1       2.506  -5.301   5.681  0.00  0.00    -0.338 N 
ATOM     12  H   UNL     1       2.195  -6.181   5.946  0.00  0.00    +0.167 HD
ATOM     13  C   UNL     1       3.649  -4.663   6.131  0.00  0.00    +0.066 A 
ATOM     14  C   UNL     1       4.653  -5.008   7.023  0.00  0.00    +0.028 A 
ATOM     15  C   UNL     1       5.688  -4.129   7.266  0.00  0.00    +0.002 A 
ATOM     16  C   UNL     1       5.732  -2.900   6.623  0.00  0.00    +0.002 A 
ATOM     17  C   UNL     1       4.745  -2.540   5.735  0.00  0.00    +0.030 A 
ATOM     18  C   UNL     1       3.688  -3.419   5.477  0.00  0.00    +0.089 A 
ATOM     19  N   UNL     1       2.598  -3.354   4.672  0.00  0.00    -0.228 NA
ENDBRANCH   2  10
BRANCH   1  22
ATOM     20  C   UNL     1       0.213  -2.110   1.521  0.00  0.00    +0.221 C 
ATOM     21  O   UNL     1      -0.775  -2.568   0.988  0.00  0.00    -0.275 OA
ATOM     22  N   UNL     1       0.757  -2.734   2.585  0.00  0.00    -0.279 N 
ATOM     23  H   UNL     1       1.547  -2.368   3.011  0.00  0.00    +0.155 HD
BRANCH  20  27
ATOM     24  C   UNL     1       0.179   1.350  -0.276  0.00  0.00    +0.008 C 
ATOM     25  C   UNL     1       0.170  -0.179  -0.214  0.00  0.00    -0.002 C 
ATOM     26  C   UNL     1       1.509  -0.900  -0.377  0.00  0.00    +0.017 C 
ATOM     27  C   UNL     1       0.833  -0.841   0.995  0.00  0.00    +0.078 C 
ENDBRANCH  20  27
ENDBRANCH   1  22
TORSDOF 3
