REMARK  Name = ZINC28055541
REMARK  5 active torsions:
REMARK  status: ('A' for Active; 'I' for Inactive)
REMARK    1  A    between atoms: C_1  and  C_2
REMARK    2  A    between atoms: C_5  and  C_8
REMARK    3  A    between atoms: C_25  and  C_27
REMARK    4  A    between atoms: C_30  and  O_33
REMARK    5  A    between atoms: O_33  and  C_34
REMARK                            x       y       z     vdW  Elec       q    Type
REMARK                         _______ _______ _______ _____ _____    ______ ____
ROOT
ATOM      1  C   UNL     1       2.434   1.336  -0.023  0.00  0.00    +0.234 C 
ATOM      2  C   UNL     1       1.021   1.873   0.019  0.00  0.00    +0.025 C 
ATOM      3  C   UNL     1       0.002   1.015   0.106  0.00  0.00    +0.050 C 
ATOM      4  C   UNL     1       0.304  -0.435   0.167  0.00  0.00    +0.038 A 
ATOM      5  C   UNL     1      -0.669  -1.392  -0.091  0.00  0.00    +0.013 A 
ATOM      6  C   UNL     1      -0.342  -2.733  -0.020  0.00  0.00    +0.001 A 
ATOM      7  C   UNL     1       0.946  -3.121   0.307  0.00  0.00    +0.004 A 
ATOM      8  C   UNL     1       1.921  -2.174   0.565  0.00  0.00    +0.046 A 
ATOM      9  C   UNL     1       1.608  -0.830   0.495  0.00  0.00    +0.131 A 
ATOM     10  O   UNL     1       2.536   0.131   0.735  0.00  0.00    -0.479 OA
ATOM     11  N   UNL     1      -1.331   1.440   0.149  0.00  0.00    -0.282 N 
ATOM     12  C   UNL     1      -1.561   2.786   0.382  0.00  0.00    +0.240 A 
ATOM     13  N   UNL     1      -2.647   3.429   0.702  0.00  0.00    -0.092 NA
ATOM     14  N   UNL     1      -2.397   4.687   0.835  0.00  0.00    -0.021 NA
ATOM     15  N   UNL     1      -1.146   4.925   0.607  0.00  0.00    -0.042 NA
ATOM     16  N   UNL     1      -0.558   3.699   0.301  0.00  0.00    -0.201 N 
ATOM     17  C   UNL     1       0.816   3.366  -0.045  0.00  0.00    +0.174 C 
ATOM     18  H   UNL     1      -2.145   0.715   0.002  0.00  0.00    +0.155 HD
ENDROOT
BRANCH   1  23
ATOM     19  C   UNL     1       3.906   0.266  -5.507  0.00  0.00    +0.044 C 
ATOM     20  C   UNL     1       3.522   0.545  -4.077  0.00  0.00    -0.050 A 
ATOM     21  C   UNL     1       4.038   1.650  -3.426  0.00  0.00    +0.004 A 
ATOM     22  C   UNL     1       3.686   1.906  -2.114  0.00  0.00    +0.008 A 
ATOM     23  C   UNL     1       2.818   1.057  -1.453  0.00  0.00    -0.003 A 
ATOM     24  C   UNL     1       2.306  -0.051  -2.103  0.00  0.00    +0.008 A 
ATOM     25  C   UNL     1       2.654  -0.304  -3.416  0.00  0.00    +0.004 A 
ENDBRANCH   1  23
BRANCH  17  26
ATOM     26  C   UNL     1       1.111   3.851  -1.442  0.00  0.00    -0.018 A 
ATOM     27  C   UNL     1       0.384   3.361  -2.510  0.00  0.00    +0.009 A 
ATOM     28  C   UNL     1       0.649   3.808  -3.791  0.00  0.00    +0.046 A 
ATOM     29  C   UNL     1       1.653   4.741  -4.004  0.00  0.00    +0.120 A 
ATOM     30  C   UNL     1       2.385   5.227  -2.931  0.00  0.00    +0.046 A 
ATOM     31  C   UNL     1       2.112   4.781  -1.652  0.00  0.00    +0.009 A 
BRANCH  29  32
ATOM     32  O   UNL     1       1.918   5.179  -5.263  0.00  0.00    -0.495 OA
ATOM     33  C   UNL     1       1.125   4.635  -6.320  0.00  0.00    +0.277 C 
ENDBRANCH  29  32
ENDBRANCH  17  26
TORSDOF 3
