REMARK  Name = ZINC06691180
REMARK  6 active torsions:
REMARK  status: ('A' for Active; 'I' for Inactive)
REMARK    1  A    between atoms: C_1  and  C_2
REMARK    2  A    between atoms: C_2  and  N_19
REMARK    3  A    between atoms: C_3  and  C_4
REMARK    4  A    between atoms: C_4  and  C_6
REMARK    5  A    between atoms: C_7  and  O_18
REMARK    6  A    between atoms: N_14  and  C_17
REMARK                            x       y       z     vdW  Elec       q    Type
REMARK                         _______ _______ _______ _____ _____    ______ ____
ROOT
ATOM      1  C   UNL     1       0.993  -2.206  -1.349  0.00  0.00    +0.128 A 
ATOM      2  C   UNL     1       2.287  -2.247  -0.826  0.00  0.00    +0.142 A 
ATOM      3  C   UNL     1       2.542  -1.570   0.450  0.00  0.00    +0.041 A 
ATOM      4  C   UNL     1       3.821  -1.581   1.019  0.00  0.00    +0.013 A 
ATOM      5  C   UNL     1       4.042  -0.947   2.208  0.00  0.00    +0.001 A 
ATOM      6  C   UNL     1       3.006  -0.290   2.858  0.00  0.00    +0.002 A 
ATOM      7  C   UNL     1       1.739  -0.266   2.317  0.00  0.00    +0.026 A 
ATOM      8  C   UNL     1       1.490  -0.906   1.105  0.00  0.00    +0.055 A 
ATOM      9  N   UNL     1       0.224  -0.888   0.557  0.00  0.00    -0.310 N 
ATOM     10  C   UNL     1      -0.051  -1.500  -0.607  0.00  0.00    +0.266 A 
ATOM     11  O   UNL     1      -1.184  -1.464  -1.052  0.00  0.00    -0.267 OA
ATOM     12  C   UNL     1      -0.850  -0.188   1.266  0.00  0.00    +0.152 C 
ENDROOT
BRANCH   1  13
ATOM     13  C   UNL     1       0.683  -2.868  -2.625  0.00  0.00    +0.196 C 
ATOM     14  O   UNL     1       0.747  -4.082  -2.713  0.00  0.00    -0.287 OA
BRANCH  13  17
ATOM     15  C   UNL     1      -0.259  -1.883  -6.151  0.00  0.00    +0.060 C 
ATOM     16  C   UNL     1      -0.005  -2.705  -4.913  0.00  0.00    +0.007 C 
ATOM     17  C   UNL     1       0.311  -2.095  -3.751  0.00  0.00    +0.070 C 
BRANCH  16  18
ATOM     18  N   UNL     1      -0.095  -4.068  -4.968  0.00  0.00    -0.333 N 
ATOM     19  C   UNL     1      -1.255  -4.765  -4.395  0.00  0.00    +0.105 C 
ATOM     20  C   UNL     1      -1.859  -5.677  -5.473  0.00  0.00    +0.019 C 
ATOM     21  C   UNL     1      -0.771  -6.607  -6.014  0.00  0.00    +0.003 C 
ATOM     22  C   UNL     1       0.342  -5.775  -6.655  0.00  0.00    +0.019 C 
ATOM     23  C   UNL     1       0.968  -4.864  -5.595  0.00  0.00    +0.105 C 
ENDBRANCH  16  18
ENDBRANCH  13  17
ENDBRANCH   1  13
BRANCH   2  24
ATOM     24  O   UNL     1       3.277  -2.892  -1.478  0.00  0.00    -0.505 OA
ATOM     25  H   UNL     1       2.984  -3.366  -2.268  0.00  0.00    +0.292 HD
ENDBRANCH   2  24
TORSDOF 4
