REMARK  Name = ZINC67462088
REMARK  8 active torsions:
REMARK  status: ('A' for Active; 'I' for Inactive)
REMARK    1  A    between atoms: C_1  and  C_2
REMARK    2  A    between atoms: C_2  and  C_4
REMARK    3  A    between atoms: C_2  and  N_19
REMARK    4  A    between atoms: N_6  and  C_7
REMARK    5  A    between atoms: C_7  and  C_8
REMARK    6  A    between atoms: C_8  and  C_9
REMARK    7  A    between atoms: C_25  and  O_29
REMARK    8  A    between atoms: O_29  and  C_30
REMARK                            x       y       z     vdW  Elec       q    Type
REMARK                         _______ _______ _______ _____ _____    ______ ____
ROOT
ATOM      1  C   UNL     1       0.707  -0.490  -1.238  0.00  0.00    +0.199 C 
ATOM      2  O   UNL     1       1.704  -1.174  -1.140  0.00  0.00    -0.278 OA
ATOM      3  N   UNL     1       0.231  -0.164  -2.456  0.00  0.00    -0.316 N 
ATOM      4  H   UNL     1      -0.566   0.383  -2.534  0.00  0.00    +0.149 HD
ENDROOT
BRANCH   1   6
ATOM      5  C   UNL     1      -0.019   1.526   0.010  0.00  0.00    -0.004 C 
ATOM      6  C   UNL     1       0.002  -0.004   0.002  0.00  0.00    +0.017 C 
BRANCH   6   7
ATOM      7  N   UNL     1       0.713  -0.491   1.192  0.00  0.00    +0.390 N 
ATOM      8  C   UNL     1       0.724  -1.962   1.192  0.00  0.00    -0.073 C 
ATOM      9  C   UNL     1       1.716  -2.442   2.252  0.00  0.00    +0.017 C 
ATOM     10  C   UNL     1       1.429  -1.760   3.565  0.00  0.00    -0.048 A 
ATOM     11  C   UNL     1       1.973  -2.295   4.723  0.00  0.00    +0.007 A 
ATOM     12  C   UNL     1       1.737  -1.699   5.945  0.00  0.00    +0.046 A 
ATOM     13  C   UNL     1       0.951  -0.557   6.014  0.00  0.00    +0.120 A 
ATOM     14  C   UNL     1       0.408  -0.025   4.856  0.00  0.00    +0.047 A 
ATOM     15  C   UNL     1       0.646  -0.627   3.631  0.00  0.00    -0.057 A 
ATOM     16  C   UNL     1       0.028  -0.019   2.399  0.00  0.00    -0.042 C 
ATOM     17  H   UNL     1       1.660  -0.145   1.185  0.00  0.00    -0.080 HD
BRANCH  13  18
ATOM     18  O   UNL     1       0.716   0.036   7.213  0.00  0.00    -0.495 OA
ATOM     19  C   UNL     1       1.308  -0.569   8.364  0.00  0.00    +0.277 C 
ENDBRANCH  13  18
ENDBRANCH   6   7
ENDBRANCH   1   6
BRANCH   3  20
ATOM     20  C   UNL     1       0.917  -0.637  -3.661  0.00  0.00    +0.109 C 
BRANCH  20  21
ATOM     21  C   UNL     1       0.177  -0.130  -4.901  0.00  0.00    +0.056 C 
BRANCH  21  22
ATOM     22  C   UNL     1       0.882  -0.616  -6.141  0.00  0.00    -0.021 A 
ATOM     23  C   UNL     1       1.805   0.054  -6.849  0.00  0.00    +0.087 A 
ATOM     24  N   UNL     1       2.220  -0.704  -7.909  0.00  0.00    -0.360 N 
ATOM     25  H   UNL     1       2.883  -0.432  -8.563  0.00  0.00    +0.165 HD
ATOM     26  C   UNL     1       1.558  -1.911  -7.909  0.00  0.00    +0.047 A 
ATOM     27  C   UNL     1       0.695  -1.911  -6.798  0.00  0.00    +0.003 A 
ATOM     28  C   UNL     1      -0.108  -3.024  -6.540  0.00  0.00    +0.010 A 
ATOM     29  C   UNL     1      -0.049  -4.110  -7.367  0.00  0.00    +0.001 A 
ATOM     30  C   UNL     1       0.803  -4.116  -8.463  0.00  0.00    +0.002 A 
ATOM     31  C   UNL     1       1.598  -3.025  -8.741  0.00  0.00    +0.026 A 
ENDBRANCH  21  22
ENDBRANCH  20  21
ENDBRANCH   3  20
TORSDOF 6
