REMARK  Name = ZINC15975309
REMARK  5 active torsions:
REMARK  status: ('A' for Active; 'I' for Inactive)
REMARK    1  A    between atoms: C_5  and  O_7
REMARK    2  A    between atoms: O_7  and  C_8
REMARK    3  A    between atoms: C_8  and  C_9
REMARK    4  A    between atoms: N_11  and  N_12
REMARK    5  A    between atoms: N_12  and  C_13
REMARK                            x       y       z     vdW  Elec       q    Type
REMARK                         _______ _______ _______ _____ _____    ______ ____
ROOT
ATOM      1  C   UNL     1      -0.647   1.653   1.251  0.00  0.00    +0.267 C 
ATOM      2  O   UNL     1      -1.698   2.250   1.143  0.00  0.00    -0.271 OA
ATOM      3  N   UNL     1      -0.175   1.337   2.474  0.00  0.00    -0.234 N 
ATOM      4  H   UNL     1       0.665   0.859   2.560  0.00  0.00    +0.173 HD
ENDROOT
BRANCH   3   5
ATOM      5  N   UNL     1      -0.897   1.698   3.618  0.00  0.00    -0.259 N 
ATOM      6  H   UNL     1      -1.697   2.241   3.536  0.00  0.00    +0.170 HD
BRANCH   5   7
ATOM      7  C   UNL     1      -0.465   1.274   4.882  0.00  0.00    +0.121 A 
ATOM      8  C   UNL     1       0.118   0.022   5.034  0.00  0.00    +0.186 A 
ATOM      9  C   UNL     1       0.550  -0.393   6.283  0.00  0.00    +0.198 A 
ATOM     10  C   UNL     1       0.390   0.435   7.383  0.00  0.00    +0.199 A 
ATOM     11  C   UNL     1      -0.196   1.682   7.234  0.00  0.00    +0.198 A 
ATOM     12  C   UNL     1      -0.624   2.103   5.986  0.00  0.00    +0.186 A 
ATOM     13  F   UNL     1      -1.196   3.318   5.842  0.00  0.00    -0.200 F 
ATOM     14  F   UNL     1      -0.351   2.488   8.308  0.00  0.00    -0.199 F 
ATOM     15  F   UNL     1       0.806   0.026   8.601  0.00  0.00    -0.199 F 
ATOM     16  F   UNL     1       1.123  -1.608   6.430  0.00  0.00    -0.199 F 
ATOM     17  F   UNL     1       0.269  -0.788   3.963  0.00  0.00    -0.200 F 
ENDBRANCH   5   7
ENDBRANCH   3   5
BRANCH   1  18
ATOM     18  C   UNL     1       0.129   1.264   0.020  0.00  0.00    +0.326 C 
BRANCH  18  19
ATOM     19  O   UNL     1      -0.571   1.707  -1.145  0.00  0.00    -0.480 OA
BRANCH  19  24
ATOM     20  C   UNL     1       1.784   0.480  -3.632  0.00  0.00    +0.004 A 
ATOM     21  C   UNL     1       1.159   0.880  -4.799  0.00  0.00    +0.003 A 
ATOM     22  C   UNL     1      -0.045   1.557  -4.745  0.00  0.00    +0.042 A 
ATOM     23  C   UNL     1      -0.628   1.835  -3.522  0.00  0.00    +0.165 A 
ATOM     24  C   UNL     1      -0.002   1.434  -2.348  0.00  0.00    +0.156 A 
ATOM     25  C   UNL     1       1.209   0.760  -2.408  0.00  0.00    +0.048 A 
ATOM     26  F   UNL     1      -1.805   2.497  -3.468  0.00  0.00    -0.202 F 
ENDBRANCH  19  24
ENDBRANCH  18  19
ENDBRANCH   1  18
TORSDOF 5
