REMARK  Name = ZINC14019707
REMARK  5 active torsions:
REMARK  status: ('A' for Active; 'I' for Inactive)
REMARK    1  A    between atoms: C_4  and  C_7
REMARK    2  A    between atoms: N_16  and  C_17
REMARK    3  A    between atoms: C_17  and  C_18
REMARK    4  A    between atoms: N_23  and  C_26
REMARK    5  A    between atoms: C_26  and  C_27
REMARK                            x       y       z     vdW  Elec       q    Type
REMARK                         _______ _______ _______ _____ _____    ______ ____
ROOT
ATOM      1  C   UNL     1       3.387  -1.411  -2.303  0.00  0.00    +0.020 C 
ENDROOT
BRANCH   1  10
ATOM      2  C   UNL     1       3.711  -0.707  -0.038  0.00  0.00    -0.005 C 
ATOM      3  C   UNL     1       4.047  -1.188   1.371  0.00  0.00    -0.047 A 
ATOM      4  C   UNL     1       3.840  -0.433   2.522  0.00  0.00    +0.010 A 
ATOM      5  C   UNL     1       4.166  -0.943   3.733  0.00  0.00    +0.045 A 
ATOM      6  S   UNL     1       4.799  -2.556   3.297  0.00  0.00    -0.101 S 
ATOM      7  C   UNL     1       4.584  -2.429   1.545  0.00  0.00    -0.010 A 
ATOM      8  C   UNL     1       4.902  -3.416   0.470  0.00  0.00    +0.024 C 
ATOM      9  C   UNL     1       4.843  -2.672  -0.875  0.00  0.00    -0.072 C 
ATOM     10  N   UNL     1       3.612  -1.871  -0.926  0.00  0.00    +0.393 N 
ATOM     11  H   UNL     1       2.833  -2.444  -0.637  0.00  0.00    -0.080 HD
BRANCH   2  15
ATOM     12  C   UNL     1      -0.017   1.378   0.010  0.00  0.00    +0.000 A 
ATOM     13  C   UNL     1       1.171   2.086   0.002  0.00  0.00    +0.000 A 
ATOM     14  C   UNL     1       2.377   1.411  -0.013  0.00  0.00    +0.002 A 
ATOM     15  C   UNL     1       2.396   0.029  -0.020  0.00  0.00    -0.057 A 
ATOM     16  C   UNL     1       1.208  -0.679  -0.012  0.00  0.00    +0.002 A 
ATOM     17  C   UNL     1       0.002  -0.004   0.002  0.00  0.00    +0.000 A 
ENDBRANCH   2  15
ENDBRANCH   1  10
BRANCH   1  18
ATOM     18  C   UNL     1       3.162  -2.601  -3.200  0.00  0.00    +0.199 C 
ATOM     19  O   UNL     1       3.187  -3.722  -2.737  0.00  0.00    -0.278 OA
ATOM     20  N   UNL     1       2.934  -2.420  -4.515  0.00  0.00    -0.301 N 
ATOM     21  C   UNL     1       2.906  -1.069  -5.097  0.00  0.00    +0.123 C 
ATOM     22  C   UNL     1       3.839  -1.044  -6.312  0.00  0.00    +0.104 C 
ATOM     23  N   UNL     1       3.468  -2.125  -7.234  0.00  0.00    -0.291 NA
ATOM     24  C   UNL     1       3.647  -3.443  -6.610  0.00  0.00    +0.104 C 
ATOM     25  C   UNL     1       2.712  -3.567  -5.408  0.00  0.00    +0.123 C 
BRANCH  23  26
ATOM     26  C   UNL     1       4.224  -2.030  -8.490  0.00  0.00    +0.180 C 
BRANCH  26  27
ATOM     27  C   UNL     1       3.650  -2.993  -9.497  0.00  0.00    +0.230 C 
ATOM     28  O   UNL     1       2.704  -3.690  -9.198  0.00  0.00    -0.274 OA
ATOM     29  N   UNL     1       4.188  -3.080 -10.729  0.00  0.00    -0.296 N 
ATOM     30  C   UNL     1       5.341  -2.249 -11.113  0.00  0.00    +0.136 C 
ATOM     31  C   UNL     1       6.414  -3.161 -11.719  0.00  0.00    +0.179 C 
ATOM     32  O   UNL     1       5.829  -3.952 -12.755  0.00  0.00    -0.377 OA
ATOM     33  C   UNL     1       4.797  -4.835 -12.307  0.00  0.00    +0.179 C 
ATOM     34  C   UNL     1       3.645  -4.013 -11.729  0.00  0.00    +0.136 C 
ENDBRANCH  26  27
ENDBRANCH  23  26
ENDBRANCH   1  18
TORSDOF 5
