REMARK  Name = ZINC05813198
REMARK  6 active torsions:
REMARK  status: ('A' for Active; 'I' for Inactive)
REMARK    1  A    between atoms: C_4  and  C_7
REMARK    2  A    between atoms: C_9  and  C_32
REMARK    3  A    between atoms: C_11  and  C_25
REMARK    4  A    between atoms: C_11  and  O_31
REMARK    5  A    between atoms: C_12  and  O_24
REMARK    6  A    between atoms: C_15  and  O_23
REMARK                            x       y       z     vdW  Elec       q    Type
REMARK                         _______ _______ _______ _____ _____    ______ ____
ROOT
ATOM      1  C   UNL     1      -1.232  -0.660   0.252  0.00  0.00    +0.039 C 
ATOM      2  C   UNL     1      -0.061  -1.694   0.246  0.00  0.00    +0.066 C 
ATOM      3  C   UNL     1       1.153  -0.965   0.903  0.00  0.00    +0.131 C 
ATOM      4  C   UNL     1       0.592   0.334   1.348  0.00  0.00    +0.130 C 
ATOM      5  C   UNL     1      -0.492   0.672   0.260  0.00  0.00    +0.069 C 
ATOM      6  C   UNL     1      -1.086   1.879   0.984  0.00  0.00    +0.152 C 
ATOM      7  C   UNL     1       0.181   2.584   1.484  0.00  0.00    -0.013 A 
ATOM      8  C   UNL     1       1.201   1.623   1.658  0.00  0.00    -0.007 A 
ATOM      9  C   UNL     1       2.455   2.046   2.063  0.00  0.00    +0.007 A 
ATOM     10  C   UNL     1       2.707   3.380   2.307  0.00  0.00    +0.000 A 
ATOM     11  C   UNL     1       1.705   4.318   2.148  0.00  0.00    +0.000 A 
ATOM     12  C   UNL     1       0.451   3.913   1.730  0.00  0.00    +0.006 A 
ENDROOT
BRANCH   1  16
ATOM     13  C   UNL     1      -3.620  -1.050  -3.268  0.00  0.00    +0.000 A 
ATOM     14  C   UNL     1      -3.890  -1.831  -2.160  0.00  0.00    +0.000 A 
ATOM     15  C   UNL     1      -3.117  -1.705  -1.021  0.00  0.00    +0.004 A 
ATOM     16  C   UNL     1      -2.074  -0.798  -0.990  0.00  0.00    -0.043 A 
ATOM     17  C   UNL     1      -1.808  -0.013  -2.096  0.00  0.00    +0.004 A 
ATOM     18  C   UNL     1      -2.577  -0.143  -3.237  0.00  0.00    +0.000 A 
ENDBRANCH   1  16
BRANCH   3  19
ATOM     19  C   UNL     1       1.667  -1.751   2.081  0.00  0.00    -0.012 A 
ATOM     20  C   UNL     1       3.023  -1.800   2.341  0.00  0.00    +0.006 A 
ATOM     21  C   UNL     1       3.494  -2.518   3.425  0.00  0.00    +0.000 A 
ATOM     22  C   UNL     1       2.609  -3.193   4.244  0.00  0.00    +0.000 A 
ATOM     23  C   UNL     1       1.253  -3.149   3.981  0.00  0.00    +0.000 A 
ATOM     24  C   UNL     1       0.781  -2.428   2.900  0.00  0.00    +0.006 A 
ENDBRANCH   3  19
BRANCH   2  25
ATOM     25  C   UNL     1       0.275  -2.093  -1.168  0.00  0.00    -0.041 A 
ATOM     26  C   UNL     1       0.738  -1.146  -2.062  0.00  0.00    +0.004 A 
ATOM     27  C   UNL     1       1.050  -1.514  -3.357  0.00  0.00    +0.000 A 
ATOM     28  C   UNL     1       0.890  -2.826  -3.762  0.00  0.00    +0.000 A 
ATOM     29  C   UNL     1       0.423  -3.772  -2.869  0.00  0.00    +0.000 A 
ATOM     30  C   UNL     1       0.114  -3.405  -1.572  0.00  0.00    +0.004 A 
ENDBRANCH   2  25
BRANCH   6  31
ATOM     31  O   UNL     1      -1.814   2.713   0.080  0.00  0.00    -0.387 OA
ATOM     32  H   UNL     1      -2.209   3.492   0.495  0.00  0.00    +0.210 HD
ENDBRANCH   6  31
BRANCH   4  33
ATOM     33  O   UNL     1      -0.221   0.021   2.481  0.00  0.00    -0.380 OA
ATOM     34  H   UNL     1       0.266  -0.018   3.316  0.00  0.00    +0.211 HD
ENDBRANCH   4  33
BRANCH   3  35
ATOM     35  O   UNL     1       2.195  -0.760  -0.054  0.00  0.00    -0.380 OA
ATOM     36  H   UNL     1       2.597  -1.577  -0.379  0.00  0.00    +0.211 HD
ENDBRANCH   3  35
TORSDOF 6
