REMARK  Name = ZINC01428871
REMARK  5 active torsions:
REMARK  status: ('A' for Active; 'I' for Inactive)
REMARK    1  A    between atoms: C_1  and  C_2
REMARK    2  A    between atoms: C_4  and  C_29
REMARK    3  A    between atoms: C_14  and  C_17
REMARK    4  A    between atoms: C_23  and  C_27
REMARK    5  A    between atoms: C_24  and  N_26
REMARK                            x       y       z     vdW  Elec       q    Type
REMARK                         _______ _______ _______ _____ _____    ______ ____
ROOT
ATOM      1  C   UNL     1      -4.399   1.714   2.478  0.00  0.00    +0.044 C 
ATOM      2  C   UNL     1      -2.892   1.712   2.456  0.00  0.00    -0.036 A 
ATOM      3  C   UNL     1      -2.174   1.339   1.333  0.00  0.00    +0.027 A 
ATOM      4  C   UNL     1      -0.791   1.333   1.314  0.00  0.00    +0.040 A 
ATOM      5  N   UNL     1      -0.067   1.694   2.366  0.00  0.00    -0.245 NA
ATOM      6  C   UNL     1      -0.707   2.061   3.453  0.00  0.00    +0.113 A 
ATOM      7  C   UNL     1      -2.122   2.099   3.581  0.00  0.00    +0.053 A 
ATOM      8  C   UNL     1      -2.628   2.537   4.871  0.00  0.00    +0.151 A 
ATOM      9  C   UNL     1      -1.706   2.862   5.811  0.00  0.00    +0.046 A 
ATOM     10  S   UNL     1      -0.135   2.603   5.035  0.00  0.00    -0.069 S 
ATOM     11  C   UNL     1      -2.002   3.336   7.198  0.00  0.00    +0.045 C 
ATOM     12  C   UNL     1      -1.170   4.578   7.520  0.00  0.00    +0.018 C 
ATOM     13  C   UNL     1      -1.506   5.067   8.931  0.00  0.00    +0.009 C 
ATOM     14  C   UNL     1      -1.190   3.963   9.942  0.00  0.00    +0.019 C 
ATOM     15  C   UNL     1      -2.027   2.724   9.620  0.00  0.00    +0.009 C 
ATOM     16  C   UNL     1      -1.692   2.233   8.210  0.00  0.00    +0.018 C 
ATOM     17  C   UNL     1      -3.471   3.684   7.268  0.00  0.00    +0.097 C 
ATOM     18  C   UNL     1      -4.322   3.320   6.282  0.00  0.00    +0.199 C 
ATOM     19  O   UNL     1      -3.968   2.637   5.182  0.00  0.00    -0.440 OA
ATOM     20  C   UNL     1      -0.083   0.907   0.053  0.00  0.00    +0.065 C 
ENDROOT
BRANCH  14  21
ATOM     21  C   UNL     1      -1.519   4.445  11.331  0.00  0.00    -0.044 A 
ATOM     22  C   UNL     1      -0.503   4.815  12.193  0.00  0.00    +0.004 A 
ATOM     23  C   UNL     1      -0.805   5.261  13.466  0.00  0.00    +0.000 A 
ATOM     24  C   UNL     1      -2.122   5.329  13.880  0.00  0.00    +0.000 A 
ATOM     25  C   UNL     1      -3.137   4.955  13.020  0.00  0.00    +0.000 A 
ATOM     26  C   UNL     1      -2.836   4.513  11.746  0.00  0.00    +0.004 A 
ENDBRANCH  14  21
BRANCH  18  27
ATOM     27  N   UNL     1      -5.642   3.675   6.414  0.00  0.00    -0.328 N 
ATOM     28  H   UNL     1      -5.935   4.170   7.196  0.00  0.00    +0.145 HD
ATOM     29  H   UNL     1      -6.281   3.431   5.727  0.00  0.00    +0.145 HD
ENDBRANCH  18  27
BRANCH  17  30
ATOM     30  C   UNL     1      -3.970   4.410   8.397  0.00  0.00    +0.101 C 
ATOM     31  N   UNL     1      -4.365   4.986   9.293  0.00  0.00    -0.191 NA
ENDBRANCH  17  30
TORSDOF 3
