REMARK  Name = ZINC09542734
REMARK  12 active torsions:
REMARK  status: ('A' for Active; 'I' for Inactive)
REMARK    1  A    between atoms: C_1  and  C_2
REMARK    2  A    between atoms: C_2  and  O_3
REMARK    3  A    between atoms: O_3  and  C_4
REMARK    4  A    between atoms: C_9  and  C_10
REMARK    5  A    between atoms: C_12  and  C_25
REMARK    6  A    between atoms: C_15  and  C_17
REMARK    7  A    between atoms: C_20  and  O_23
REMARK    8  A    between atoms: O_23  and  C_24
REMARK    9  A    between atoms: C_29  and  O_32
REMARK   10  A    between atoms: C_30  and  O_31
REMARK   11  A    between atoms: O_32  and  C_33
REMARK   12  A    between atoms: C_33  and  C_34
REMARK                            x       y       z     vdW  Elec       q    Type
REMARK                         _______ _______ _______ _____ _____    ______ ____
ROOT
ATOM      1  C   UNL     1      -2.334  -2.854  -0.632  0.00  0.00    +0.084 C 
ATOM      2  C   UNL     1      -1.293  -0.775   0.011  0.00  0.00    -0.028 C 
ATOM      3  C   UNL     1      -1.835  -0.859   1.441  0.00  0.00    +0.044 C 
ATOM      4  C   UNL     1      -2.937  -1.880   1.500  0.00  0.00    +0.040 C 
ATOM      5  N   UNL     1      -3.135  -2.749   0.581  0.00  0.00    -0.298 NA
ATOM      6  N   UNL     1      -1.053  -2.148  -0.474  0.00  0.00    +0.401 N 
ATOM      7  H   UNL     1      -0.571  -2.111  -1.380  0.00  0.00    -0.081 HD
ATOM      8  H   UNL     1      -0.469  -2.652   0.203  0.00  0.00    -0.081 HD
ENDROOT
BRANCH   1  14
ATOM      9  C   UNL     1      -4.479  -2.352  -1.830  0.00  0.00    +0.124 A 
ATOM     10  C   UNL     1      -5.178  -1.794  -2.891  0.00  0.00    +0.046 A 
ATOM     11  C   UNL     1      -4.495  -1.139  -3.898  0.00  0.00    +0.004 A 
ATOM     12  C   UNL     1      -3.117  -1.039  -3.849  0.00  0.00    +0.000 A 
ATOM     13  C   UNL     1      -2.419  -1.589  -2.791  0.00  0.00    +0.007 A 
ATOM     14  C   UNL     1      -3.096  -2.250  -1.784  0.00  0.00    +0.001 A 
BRANCH   9  15
ATOM     15  O   UNL     1      -5.148  -2.996  -0.838  0.00  0.00    -0.492 OA
BRANCH  15  17
ATOM     16  C   UNL     1      -7.144  -3.819   0.248  0.00  0.00    +0.048 C 
ATOM     17  C   UNL     1      -6.571  -3.062  -0.952  0.00  0.00    +0.225 C 
ENDBRANCH  15  17
ENDBRANCH   9  15
ENDBRANCH   1  14
BRANCH   4  18
ATOM     18  C   UNL     1      -3.831  -1.881   2.672  0.00  0.00    -0.004 A 
ATOM     19  C   UNL     1      -3.642  -0.951   3.699  0.00  0.00    +0.013 A 
ATOM     20  C   UNL     1      -4.484  -0.951   4.789  0.00  0.00    +0.046 A 
ATOM     21  C   UNL     1      -5.513  -1.881   4.875  0.00  0.00    +0.120 A 
ATOM     22  C   UNL     1      -5.700  -2.812   3.860  0.00  0.00    +0.046 A 
ATOM     23  C   UNL     1      -4.867  -2.815   2.763  0.00  0.00    +0.013 A 
BRANCH  21  24
ATOM     24  O   UNL     1      -6.337  -1.882   5.954  0.00  0.00    -0.495 OA
ATOM     25  C   UNL     1      -6.088  -0.898   6.960  0.00  0.00    +0.277 C 
ENDBRANCH  21  24
ENDBRANCH   4  18
BRANCH   2  26
ATOM     26  C   UNL     1       0.002  -0.004   0.002  0.00  0.00    -0.016 A 
ATOM     27  C   UNL     1       1.209  -0.679  -0.013  0.00  0.00    +0.006 A 
ATOM     28  C   UNL     1       2.398   0.025  -0.021  0.00  0.00    +0.004 A 
ATOM     29  C   UNL     1       2.386   1.408  -0.014  0.00  0.00    +0.049 A 
ATOM     30  C   UNL     1       1.181   2.090   0.002  0.00  0.00    +0.162 A 
ATOM     31  C   UNL     1      -0.017   1.381   0.010  0.00  0.00    +0.160 A 
BRANCH  31  32
ATOM     32  O   UNL     1      -1.203   2.046   0.019  0.00  0.00    -0.503 OA
ATOM     33  H   UNL     1      -1.542   2.234   0.905  0.00  0.00    +0.292 HD
ENDBRANCH  31  32
BRANCH  30  34
ATOM     34  O   UNL     1       1.168   3.450   0.009  0.00  0.00    -0.489 OA
BRANCH  34  35
ATOM     35  C   UNL     1       2.434   4.111   0.001  0.00  0.00    +0.226 C 
ATOM     36  C   UNL     1       2.219   5.626   0.010  0.00  0.00    +0.048 C 
ENDBRANCH  34  35
ENDBRANCH  30  34
ENDBRANCH   2  26
TORSDOF 9
