REMARK  Name = ZINC63617059
REMARK  9 active torsions:
REMARK  status: ('A' for Active; 'I' for Inactive)
REMARK    1  A    between atoms: C_1  and  C_2
REMARK    2  A    between atoms: C_5  and  C_8
REMARK    3  A    between atoms: C_8  and  C_10
REMARK    4  A    between atoms: C_8  and  N_21
REMARK    5  A    between atoms: N_12  and  C_13
REMARK    6  A    between atoms: C_16  and  O_19
REMARK    7  A    between atoms: O_19  and  C_20
REMARK    8  A    between atoms: C_22  and  C_24
REMARK    9  A    between atoms: C_24  and  C_25
REMARK                            x       y       z     vdW  Elec       q    Type
REMARK                         _______ _______ _______ _____ _____    ______ ____
ROOT
ATOM      1  C   UNL     1       0.058  -4.280  -0.025  0.00  0.00    +0.190 C 
ENDROOT
BRANCH   1   6
ATOM      2  C   UNL     1      -0.041   1.497  -0.029  0.00  0.00    +0.044 C 
ATOM      3  C   UNL     1      -0.015  -0.009  -0.028  0.00  0.00    -0.050 A 
ATOM      4  C   UNL     1      -0.008  -0.701  -1.225  0.00  0.00    +0.004 A 
ATOM      5  C   UNL     1       0.016  -2.083  -1.224  0.00  0.00    +0.006 A 
ATOM      6  C   UNL     1       0.033  -2.774  -0.026  0.00  0.00    -0.018 A 
ATOM      7  C   UNL     1       0.026  -2.082   1.170  0.00  0.00    +0.006 A 
ATOM      8  C   UNL     1       0.007  -0.700   1.169  0.00  0.00    +0.004 A 
ENDBRANCH   1   6
BRANCH   1   9
ATOM      9  C   UNL     1       1.467  -4.759   0.216  0.00  0.00    +0.242 C 
ATOM     10  O   UNL     1       1.715  -5.452   1.180  0.00  0.00    -0.273 OA
ATOM     11  N   UNL     1       2.450  -4.418  -0.640  0.00  0.00    -0.284 N 
ATOM     12  H   UNL     1       2.241  -3.921  -1.446  0.00  0.00    +0.155 HD
BRANCH  11  13
ATOM     13  C   UNL     1       3.775  -4.780  -0.365  0.00  0.00    +0.034 A 
ATOM     14  C   UNL     1       4.815  -3.929  -0.715  0.00  0.00    +0.027 A 
ATOM     15  C   UNL     1       6.121  -4.287  -0.443  0.00  0.00    +0.047 A 
ATOM     16  C   UNL     1       6.394  -5.497   0.178  0.00  0.00    +0.120 A 
ATOM     17  C   UNL     1       5.356  -6.348   0.527  0.00  0.00    +0.047 A 
ATOM     18  C   UNL     1       4.049  -5.989   0.262  0.00  0.00    +0.027 A 
BRANCH  16  19
ATOM     19  O   UNL     1       7.680  -5.849   0.445  0.00  0.00    -0.495 OA
ATOM     20  C   UNL     1       7.888  -7.109   1.087  0.00  0.00    +0.277 C 
ENDBRANCH  16  19
ENDBRANCH  11  13
ENDBRANCH   1   9
BRANCH   1  21
ATOM     21  N   UNL     1      -0.817  -4.783   1.037  0.00  0.00    -0.300 N 
ATOM     22  C   UNL     1      -2.136  -4.934   0.808  0.00  0.00    +0.218 C 
ATOM     23  O   UNL     1      -2.599  -4.654  -0.277  0.00  0.00    -0.275 OA
ATOM     24  H   UNL     1      -0.446  -5.007   1.905  0.00  0.00    +0.150 HD
BRANCH  22  25
ATOM     25  C   UNL     1      -3.036  -5.450   1.901  0.00  0.00    +0.129 C 
BRANCH  25  26
ATOM     26  C   UNL     1      -4.453  -5.525   1.391  0.00  0.00    -0.033 C 
ATOM     27  C   UNL     1      -5.074  -6.608   0.871  0.00  0.00    -0.001 A 
ATOM     28  C   UNL     1      -4.633  -7.988   0.632  0.00  0.00    +0.010 A 
ATOM     29  C   UNL     1      -5.501  -8.868   0.083  0.00  0.00    +0.001 A 
ATOM     30  C   UNL     1      -6.808  -8.496  -0.262  0.00  0.00    +0.002 A 
ATOM     31  C   UNL     1      -7.285  -7.248  -0.072  0.00  0.00    +0.026 A 
ATOM     32  C   UNL     1      -6.459  -6.241   0.498  0.00  0.00    +0.043 A 
ATOM     33  N   UNL     1      -6.685  -4.980   0.777  0.00  0.00    -0.380 N 
ATOM     34  C   UNL     1      -5.470  -4.406   1.365  0.00  0.00    +0.145 C 
ATOM     35  H   UNL     1      -7.518  -4.508   0.624  0.00  0.00    +0.160 HD
ENDBRANCH  25  26
ENDBRANCH  22  25
ENDBRANCH   1  21
TORSDOF 7
