REMARK  Name = ZINC03283238
REMARK  6 active torsions:
REMARK  status: ('A' for Active; 'I' for Inactive)
REMARK    1  A    between atoms: C_1  and  C_2
REMARK    2  A    between atoms: C_5  and  C_33
REMARK    3  A    between atoms: N_8  and  S_10
REMARK    4  A    between atoms: S_10  and  C_13
REMARK    5  A    between atoms: C_17  and  C_19
REMARK    6  A    between atoms: C_28  and  N_32
REMARK                            x       y       z     vdW  Elec       q    Type
REMARK                         _______ _______ _______ _____ _____    ______ ____
ROOT
ATOM      1  C   UNL     1       2.438   2.456   1.589  0.00  0.00    +0.106 A 
ATOM      2  C   UNL     1       3.593   3.181   1.354  0.00  0.00    +0.028 A 
ATOM      3  C   UNL     1       3.625   4.543   1.600  0.00  0.00    +0.003 A 
ATOM      4  C   UNL     1       2.503   5.186   2.081  0.00  0.00    +0.013 A 
ATOM      5  C   UNL     1       1.334   4.460   2.320  0.00  0.00    +0.040 A 
ATOM      6  C   UNL     1       1.308   3.087   2.064  0.00  0.00    +0.041 A 
ENDROOT
BRANCH   5   7
ATOM      7  C   UNL     1       0.130   5.142   2.835  0.00  0.00    +0.260 C 
ATOM      8  O   UNL     1      -0.445   4.705   3.812  0.00  0.00    -0.269 OA
ATOM      9  N   UNL     1      -0.332   6.250   2.221  0.00  0.00    -0.167 N 
ATOM     10  C   UNL     1       0.159   6.743   1.070  0.00  0.00    +0.261 C 
ATOM     11  O   UNL     1       1.074   6.268   0.428  0.00  0.00    -0.269 OA
ATOM     12  C   UNL     1      -0.603   7.958   0.718  0.00  0.00    +0.052 A 
ATOM     13  C   UNL     1      -0.550   8.864  -0.328  0.00  0.00    +0.014 A 
ATOM     14  C   UNL     1      -1.436   9.932  -0.364  0.00  0.00    +0.003 A 
ATOM     15  C   UNL     1      -2.372  10.103   0.633  0.00  0.00    +0.023 A 
ATOM     16  C   UNL     1      -2.442   9.201   1.697  0.00  0.00    +0.038 A 
ATOM     17  C   UNL     1      -1.558   8.124   1.744  0.00  0.00    +0.070 A 
ATOM     18  C   UNL     1      -1.348   7.005   2.677  0.00  0.00    +0.262 C 
ATOM     19  O   UNL     1      -1.984   6.799   3.691  0.00  0.00    -0.269 OA
BRANCH  16  20
ATOM     20  N   UNL     1      -3.385   9.375   2.700  0.00  0.00    -0.357 N 
ATOM     21  H   UNL     1      -3.999  10.126   2.663  0.00  0.00    +0.142 HD
ATOM     22  H   UNL     1      -3.431   8.747   3.437  0.00  0.00    +0.142 HD
ENDBRANCH  16  20
ENDBRANCH   5   7
BRANCH   1  23
ATOM     23  S   UNL     1       2.409   0.723   1.272  0.00  0.00    +0.061 S 
ATOM     24  O   UNL     1       1.377   0.179   2.083  0.00  0.00    -0.153 OA
ATOM     25  O   UNL     1       3.755   0.273   1.349  0.00  0.00    -0.153 OA
BRANCH  23  31
ATOM     26  C   UNL     1       0.294   2.824  -1.125  0.00  0.00    +0.009 C 
ATOM     27  C   UNL     1       0.153   1.417  -1.709  0.00  0.00    +0.002 C 
ATOM     28  C   UNL     1       1.101   1.262  -2.901  0.00  0.00    +0.009 C 
ATOM     29  C   UNL     1       2.540   1.512  -2.446  0.00  0.00    +0.002 C 
ATOM     30  C   UNL     1       2.924   0.477  -1.384  0.00  0.00    +0.112 C 
ATOM     31  N   UNL     1       1.932   0.520  -0.301  0.00  0.00    -0.176 NA
ATOM     32  C   UNL     1       0.508   0.380  -0.639  0.00  0.00    +0.112 C 
ATOM     33  C   UNL     1       3.483   1.389  -3.644  0.00  0.00    +0.009 C 
ENDBRANCH  23  31
ENDBRANCH   1  23
TORSDOF 4
