REMARK  Name = ZINC11861896
REMARK  10 active torsions:
REMARK  status: ('A' for Active; 'I' for Inactive)
REMARK    1  A    between atoms: C_1  and  C_2
REMARK    2  A    between atoms: C_5  and  O_9
REMARK    3  A    between atoms: C_7  and  C_8
REMARK    4  A    between atoms: O_9  and  C_10
REMARK    5  A    between atoms: C_13  and  C_16
REMARK    6  A    between atoms: C_16  and  C_17
REMARK    7  A    between atoms: C_17  and  N_18
REMARK    8  A    between atoms: N_18  and  S_19
REMARK    9  A    between atoms: S_19  and  C_22
REMARK   10  A    between atoms: C_25  and  N_28
REMARK                            x       y       z     vdW  Elec       q    Type
REMARK                         _______ _______ _______ _____ _____    ______ ____
ROOT
ATOM      1  C   UNL     1       1.403  -2.029  -1.295  0.00  0.00    +0.052 C 
ENDROOT
BRANCH   1   5
ATOM      2  C   UNL     1       1.219   2.124  -0.306  0.00  0.00    +0.128 A 
ATOM      3  C   UNL     1       0.074   1.456  -0.716  0.00  0.00    +0.046 A 
ATOM      4  C   UNL     1       0.136   0.114  -1.035  0.00  0.00    +0.007 A 
ATOM      5  C   UNL     1       1.338  -0.565  -0.947  0.00  0.00    -0.046 A 
ATOM      6  C   UNL     1       2.481   0.099  -0.538  0.00  0.00    +0.007 A 
ATOM      7  C   UNL     1       2.424   1.442  -0.218  0.00  0.00    +0.046 A 
BRANCH   2   8
ATOM      8  O   UNL     1       1.161   3.445   0.009  0.00  0.00    -0.456 OA
BRANCH   8  13
ATOM      9  C   UNL     1      -3.827   6.035  -0.364  0.00  0.00    +0.044 C 
ATOM     10  C   UNL     1      -2.493   5.342  -0.264  0.00  0.00    -0.047 A 
ATOM     11  C   UNL     1      -1.649   5.307  -1.360  0.00  0.00    +0.007 A 
ATOM     12  C   UNL     1      -0.423   4.677  -1.269  0.00  0.00    +0.046 A 
ATOM     13  C   UNL     1      -0.043   4.069  -0.081  0.00  0.00    +0.129 A 
ATOM     14  C   UNL     1      -0.891   4.106   1.016  0.00  0.00    +0.050 A 
ATOM     15  C   UNL     1      -2.114   4.742   0.922  0.00  0.00    -0.044 A 
ATOM     16  C   UNL     1      -3.036   4.781   2.114  0.00  0.00    +0.044 C 
ENDBRANCH   8  13
ENDBRANCH   2   8
ENDBRANCH   1   5
BRANCH   1  17
ATOM     17  C   UNL     1       1.718  -2.186  -2.784  0.00  0.00    +0.110 C 
BRANCH  17  18
ATOM     18  N   UNL     1       1.781  -3.610  -3.123  0.00  0.00    -0.190 NA
ATOM     19  H   UNL     1       1.849  -4.273  -2.419  0.00  0.00    +0.148 HD
BRANCH  18  20
ATOM     20  S   UNL     1       1.734  -4.087  -4.708  0.00  0.00    +0.058 S 
ATOM     21  O   UNL     1       1.839  -5.504  -4.709  0.00  0.00    -0.153 OA
ATOM     22  O   UNL     1       0.641  -3.403  -5.306  0.00  0.00    -0.153 OA
BRANCH  20  23
ATOM     23  C   UNL     1       3.194  -3.473  -5.480  0.00  0.00    +0.105 A 
ATOM     24  C   UNL     1       3.188  -2.224  -6.074  0.00  0.00    +0.030 A 
ATOM     25  C   UNL     1       4.332  -1.737  -6.675  0.00  0.00    +0.024 A 
ATOM     26  C   UNL     1       5.487  -2.508  -6.692  0.00  0.00    +0.025 A 
ATOM     27  C   UNL     1       5.489  -3.764  -6.099  0.00  0.00    +0.024 A 
ATOM     28  C   UNL     1       4.343  -4.243  -5.495  0.00  0.00    +0.030 A 
BRANCH  26  29
ATOM     29  N   UNL     1       6.645  -2.021  -7.303  0.00  0.00    -0.358 N 
ATOM     30  H   UNL     1       7.451  -2.561  -7.314  0.00  0.00    +0.142 HD
ATOM     31  H   UNL     1       6.643  -1.144  -7.717  0.00  0.00    +0.142 HD
ENDBRANCH  26  29
ENDBRANCH  20  23
ENDBRANCH  18  20
ENDBRANCH  17  18
ENDBRANCH   1  17
TORSDOF 8
