REMARK  Name = ZINC08751234
REMARK  8 active torsions:
REMARK  status: ('A' for Active; 'I' for Inactive)
REMARK    1  A    between atoms: C_1  and  C_2
REMARK    2  A    between atoms: C_3  and  C_21
REMARK    3  A    between atoms: C_4  and  O_13
REMARK    4  A    between atoms: N_5  and  C_7
REMARK    5  A    between atoms: O_13  and  C_14
REMARK    6  A    between atoms: C_21  and  N_54
REMARK    7  A    between atoms: C_22  and  N_54
REMARK    8  A    between atoms: C_25  and  O_28
REMARK                            x       y       z     vdW  Elec       q    Type
REMARK                         _______ _______ _______ _____ _____    ______ ____
ROOT
ATOM      1  C   UNL     1      -0.423  -1.958  -4.275  0.00  0.00    +0.068 C 
ATOM      2  C   UNL     1       0.020  -0.772  -5.093  0.00  0.00    +0.065 A 
ATOM      3  C   UNL     1      -0.044   0.566  -4.694  0.00  0.00    +0.020 A 
ATOM      4  C   UNL     1       0.443   1.329  -5.708  0.00  0.00    +0.225 A 
ATOM      5  N   UNL     1       0.812   0.487  -6.711  0.00  0.00    -0.200 N 
ATOM      6  N   UNL     1       0.531  -0.821  -6.297  0.00  0.00    -0.168 NA
ENDROOT
BRANCH   5   7
ATOM      7  C   UNL     1       1.367   0.862  -7.942  0.00  0.00    +0.069 A 
ATOM      8  C   UNL     1       0.875   1.970  -8.619  0.00  0.00    +0.028 A 
ATOM      9  C   UNL     1       1.427   2.340  -9.829  0.00  0.00    +0.002 A 
ATOM     10  C   UNL     1       2.463   1.602 -10.373  0.00  0.00    +0.000 A 
ATOM     11  C   UNL     1       2.952   0.495  -9.704  0.00  0.00    +0.002 A 
ATOM     12  C   UNL     1       2.407   0.123  -8.490  0.00  0.00    +0.028 A 
ENDBRANCH   5   7
BRANCH   4  13
ATOM     13  O   UNL     1       0.547   2.682  -5.717  0.00  0.00    -0.438 OA
BRANCH  13  14
ATOM     14  C   UNL     1       1.727   3.234  -5.332  0.00  0.00    +0.130 A 
ATOM     15  C   UNL     1       2.814   2.421  -5.045  0.00  0.00    +0.047 A 
ATOM     16  C   UNL     1       4.014   2.985  -4.659  0.00  0.00    +0.019 A 
ATOM     17  C   UNL     1       4.130   4.359  -4.547  0.00  0.00    +0.018 A 
ATOM     18  C   UNL     1       3.046   5.171  -4.828  0.00  0.00    +0.019 A 
ATOM     19  C   UNL     1       1.846   4.612  -5.220  0.00  0.00    +0.047 A 
ATOM     20 BR   UNL     1       5.773   5.127  -4.011  0.00  0.00    -0.050 Br
ENDBRANCH  13  14
ENDBRANCH   4  13
BRANCH   3  21
ATOM     21  C   UNL     1      -0.568   1.074  -3.375  0.00  0.00    -0.039 C 
BRANCH  21  22
ATOM     22  N   UNL     1       0.542   1.136  -2.406  0.00  0.00    +0.384 N 
ATOM     23  H   UNL     1       1.267   1.771  -2.761  0.00  0.00    -0.085 HD
ATOM     24  H   UNL     1       0.939   0.197  -2.285  0.00  0.00    -0.085 HD
BRANCH  22  25
ATOM     25  C   UNL     1       0.058   1.631  -1.103  0.00  0.00    -0.071 C 
ATOM     26  C   UNL     1       0.985   1.123   0.003  0.00  0.00    -0.013 C 
ATOM     27  C   UNL     1       0.491   1.635   1.357  0.00  0.00    +0.030 C 
ATOM     28  C   UNL     1       0.491   3.165   1.355  0.00  0.00    +0.114 C 
ATOM     29  C   UNL     1      -0.436   3.673   0.248  0.00  0.00    +0.030 C 
ATOM     30  C   UNL     1       0.058   3.161  -1.106  0.00  0.00    -0.013 C 
BRANCH  28  31
ATOM     31  O   UNL     1       1.818   3.641   1.120  0.00  0.00    -0.392 OA
ATOM     32  H   UNL     1       2.461   3.357   1.784  0.00  0.00    +0.210 HD
ENDBRANCH  28  31
ENDBRANCH  22  25
ENDBRANCH  21  22
ENDBRANCH   3  21
TORSDOF 7
