REMARK  Name = ZINC39674482
REMARK  9 active torsions:
REMARK  status: ('A' for Active; 'I' for Inactive)
REMARK    1  A    between atoms: C_1  and  C_2
REMARK    2  A    between atoms: C_4  and  C_9
REMARK    3  A    between atoms: C_5  and  C_8
REMARK    4  A    between atoms: C_9  and  C_11
REMARK    5  A    between atoms: C_9  and  N_12
REMARK    6  A    between atoms: C_13  and  C_15
REMARK    7  A    between atoms: C_26  and  C_28
REMARK    8  A    between atoms: C_31  and  O_34
REMARK    9  A    between atoms: O_34  and  C_35
REMARK                            x       y       z     vdW  Elec       q    Type
REMARK                         _______ _______ _______ _____ _____    ______ ____
ROOT
ATOM      1  C   UNL     1      -3.935   2.825  -0.894  0.00  0.00    +0.100 C 
ATOM      2  C   UNL     1      -3.564   3.935   0.115  0.00  0.00    +0.121 C 
ATOM      3  N   UNL     1      -4.670   4.916   0.017  0.00  0.00    -0.296 N 
ATOM      4  C   UNL     1      -5.889   4.084  -0.123  0.00  0.00    +0.115 C 
ATOM      5  C   UNL     1      -5.462   2.926  -1.047  0.00  0.00    -0.004 C 
ATOM      6  C   UNL     1      -6.125   1.625  -0.602  0.00  0.00    -0.010 C 
ATOM      7  C   UNL     1      -7.637   1.728  -0.819  0.00  0.00    -0.082 C 
ATOM      8  N   UNL     1      -7.914   1.981  -2.238  0.00  0.00    +0.379 N 
ATOM      9  C   UNL     1      -7.353   3.279  -2.634  0.00  0.00    -0.082 C 
ATOM     10  C   UNL     1      -5.829   3.241  -2.494  0.00  0.00    -0.010 C 
ATOM     11  C   UNL     1      -4.587   6.261   0.048  0.00  0.00    +0.248 C 
ATOM     12  O   UNL     1      -3.499   6.802   0.070  0.00  0.00    -0.270 OA
ATOM     13  H   UNL     1      -7.497   1.252  -2.796  0.00  0.00    -0.086 HD
ATOM     14  H   UNL     1      -8.912   1.988  -2.388  0.00  0.00    -0.086 HD
ENDROOT
BRANCH  11  15
ATOM     15  C   UNL     1      -5.817   7.076   0.055  0.00  0.00    +0.055 A 
ATOM     16  C   UNL     1      -7.038   6.520   0.466  0.00  0.00    +0.020 A 
ATOM     17  C   UNL     1      -8.160   7.322   0.455  0.00  0.00    +0.068 A 
ATOM     18  C   UNL     1      -8.046   8.646   0.041  0.00  0.00    +0.220 A 
ATOM     19  N   UNL     1      -6.880   9.142  -0.342  0.00  0.00    -0.220 NA
ATOM     20  C   UNL     1      -5.783   8.414  -0.342  0.00  0.00    +0.127 A 
BRANCH  18  21
ATOM     21  O   UNL     1      -9.145   9.439   0.028  0.00  0.00    -0.438 OA
BRANCH  21  22
ATOM     22  C   UNL     1      -9.018  10.698  -0.467  0.00  0.00    +0.130 A 
ATOM     23  C   UNL     1      -8.984  10.905  -1.839  0.00  0.00    +0.046 A 
ATOM     24  C   UNL     1      -8.855  12.186  -2.340  0.00  0.00    +0.004 A 
ATOM     25  C   UNL     1      -8.759  13.261  -1.475  0.00  0.00    +0.000 A 
ATOM     26  C   UNL     1      -8.793  13.057  -0.108  0.00  0.00    +0.004 A 
ATOM     27  C   UNL     1      -8.928  11.779   0.398  0.00  0.00    +0.046 A 
ENDBRANCH  21  22
ENDBRANCH  18  21
ENDBRANCH  11  15
BRANCH   1  29
ATOM     28  N   UNL     1      -3.255   0.467  -1.198  0.00  0.00    -0.309 N 
ATOM     29  C   UNL     1      -3.550   1.473  -0.352  0.00  0.00    +0.219 C 
ATOM     30  O   UNL     1      -3.506   1.290   0.847  0.00  0.00    -0.275 OA
ATOM     31  H   UNL     1      -3.291   0.613  -2.157  0.00  0.00    +0.149 HD
BRANCH  28  32
ATOM     32  C   UNL     1      -2.881  -0.848  -0.671  0.00  0.00    +0.100 C 
ATOM     33  C   UNL     1      -4.145  -1.651  -0.359  0.00  0.00    +0.033 C 
BRANCH  32  36
ATOM     34  C   UNL     1      -2.764  -0.736  -3.949  0.00  0.00    +0.039 C 
ATOM     35  C   UNL     1      -2.457  -1.977  -3.109  0.00  0.00    +0.154 C 
ATOM     36  C   UNL     1      -2.059  -1.585  -1.697  0.00  0.00    -0.001 C 
ATOM     37  C   UNL     1      -0.811  -2.044  -1.575  0.00  0.00    +0.063 C 
ATOM     38  N   UNL     1      -0.411  -2.653  -2.713  0.00  0.00    -0.159 NA
ATOM     39  N   UNL     1      -1.257  -2.666  -3.616  0.00  0.00    -0.180 NA
ATOM     40  C   UNL     1       0.036  -1.902  -0.337  0.00  0.00    +0.067 C 
ENDBRANCH  32  36
ENDBRANCH  28  32
ENDBRANCH   1  29
TORSDOF 6
