REMARK  Name = ZINC04082053
REMARK  6 active torsions:
REMARK  status: ('A' for Active; 'I' for Inactive)
REMARK    1  A    between atoms: C_1  and  C_2
REMARK    2  A    between atoms: C_2  and  O_3
REMARK    3  A    between atoms: O_3  and  C_4
REMARK    4  A    between atoms: C_6  and  C_13
REMARK    5  A    between atoms: C_8  and  N_10
REMARK    6  A    between atoms: C_18  and  C_23
REMARK                            x       y       z     vdW  Elec       q    Type
REMARK                         _______ _______ _______ _____ _____    ______ ____
ROOT
ATOM      1  C   UNL     1       1.255   3.717   0.004  0.00  0.00    +0.136 C 
ATOM      2  C   UNL     1       1.329   2.210   0.078  0.00  0.00    +0.036 C 
ATOM      3  C   UNL     1       0.282   1.369   0.076  0.00  0.00    +0.017 C 
ATOM      4  C   UNL     1       0.502  -0.134   0.149  0.00  0.00    +0.059 C 
ATOM      5  C   UNL     1       1.811  -0.504  -0.544  0.00  0.00    +0.032 C 
ATOM      6  C   UNL     1       2.945   0.237   0.175  0.00  0.00    +0.088 C 
ATOM      7  C   UNL     1       2.649   1.706   0.141  0.00  0.00    +0.163 C 
ATOM      8  O   UNL     1       3.576   2.492   0.169  0.00  0.00    -0.292 OA
ATOM      9  N   UNL     1      -1.022   1.746   0.028  0.00  0.00    -0.316 N 
ATOM     10  C   UNL     1      -1.545   2.688  -0.852  0.00  0.00    +0.052 A 
ATOM     11  C   UNL     1      -2.504   2.368  -1.797  0.00  0.00    +0.025 A 
ATOM     12  C   UNL     1      -3.041   3.372  -2.585  0.00  0.00    +0.002 A 
ATOM     13  C   UNL     1      -2.622   4.681  -2.428  0.00  0.00    +0.002 A 
ATOM     14  C   UNL     1      -1.646   4.998  -1.499  0.00  0.00    +0.025 A 
ATOM     15  C   UNL     1      -1.092   3.992  -0.721  0.00  0.00    +0.049 A 
ATOM     16  N   UNL     1      -0.074   4.260   0.191  0.00  0.00    -0.331 N 
ATOM     17  H   UNL     1      -1.634   1.327   0.653  0.00  0.00    +0.152 HD
ATOM     18  H   UNL     1      -0.258   4.818   0.962  0.00  0.00    +0.147 HD
ENDROOT
BRANCH   1  21
ATOM     19  C   UNL     1       3.374   5.339  -2.671  0.00  0.00    +0.170 A 
ATOM     20  C   UNL     1       2.903   4.935  -1.431  0.00  0.00    +0.055 A 
ATOM     21  C   UNL     1       1.765   4.155  -1.345  0.00  0.00    -0.017 A 
ATOM     22  C   UNL     1       1.097   3.772  -2.493  0.00  0.00    +0.042 A 
ATOM     23  C   UNL     1       1.558   4.177  -3.732  0.00  0.00    +0.177 A 
ATOM     24  C   UNL     1       2.698   4.958  -3.826  0.00  0.00    +0.250 A 
ATOM     25  O   UNL     1       3.156   5.352  -5.044  0.00  0.00    -0.282 OA
BRANCH  23  26
ATOM     26  N   UNL     1       0.836   3.770  -4.959  0.00  0.00    +0.060 N 
ATOM     27  O   UNL     1      -0.167   3.083  -4.876  0.00  0.00    -0.126 OA
ATOM     28  O   UNL     1       1.245   4.122  -6.051  0.00  0.00    -0.126 OA
ENDBRANCH  23  26
BRANCH  19  29
ATOM     29  O   UNL     1       4.494   6.105  -2.758  0.00  0.00    -0.488 OA
BRANCH  29  31
ATOM     30  C   UNL     1       6.368   7.314  -1.827  0.00  0.00    +0.048 C 
ATOM     31  C   UNL     1       5.136   6.457  -1.530  0.00  0.00    +0.226 C 
ENDBRANCH  29  31
ENDBRANCH  19  29
ENDBRANCH   1  21
BRANCH   5  32
ATOM     32  C   UNL     1       2.035  -1.992  -0.453  0.00  0.00    -0.044 A 
ATOM     33  C   UNL     1       2.139  -2.600   0.784  0.00  0.00    +0.004 A 
ATOM     34  C   UNL     1       2.339  -3.965   0.868  0.00  0.00    +0.000 A 
ATOM     35  C   UNL     1       2.445  -4.721  -0.285  0.00  0.00    +0.000 A 
ATOM     36  C   UNL     1       2.346  -4.111  -1.522  0.00  0.00    +0.000 A 
ATOM     37  C   UNL     1       2.141  -2.747  -1.606  0.00  0.00    +0.004 A 
ENDBRANCH   5  32
TORSDOF 5
