REMARK  Name = ZINC00863899
REMARK  7 active torsions:
REMARK  status: ('A' for Active; 'I' for Inactive)
REMARK    1  A    between atoms: C_1  and  C_2
REMARK    2  A    between atoms: C_5  and  N_8
REMARK    3  A    between atoms: C_9  and  C_29
REMARK    4  A    between atoms: C_12  and  S_13
REMARK    5  A    between atoms: S_13  and  C_14
REMARK    6  A    between atoms: C_14  and  C_15
REMARK    7  A    between atoms: N_17  and  N_18
REMARK                            x       y       z     vdW  Elec       q    Type
REMARK                         _______ _______ _______ _____ _____    ______ ____
ROOT
ATOM      1  N   UNL     1       0.037  -4.173  -0.059  0.00  0.00    -0.270 N 
ATOM      2  C   UNL     1      -0.879  -5.021   0.523  0.00  0.00    +0.169 A 
ATOM      3  N   UNL     1      -0.450  -6.246   0.326  0.00  0.00    -0.128 NA
ATOM      4  N   UNL     1       0.656  -6.224  -0.329  0.00  0.00    -0.122 NA
ATOM      5  C   UNL     1       0.999  -4.984  -0.597  0.00  0.00    +0.197 A 
ENDROOT
BRANCH   1  10
ATOM      6  C   UNL     1      -0.149   1.497  -0.214  0.00  0.00    +0.044 C 
ATOM      7  C   UNL     1      -0.100  -0.008  -0.172  0.00  0.00    -0.050 A 
ATOM      8  C   UNL     1      -0.262  -0.736  -1.337  0.00  0.00    +0.005 A 
ATOM      9  C   UNL     1      -0.217  -2.116  -1.302  0.00  0.00    +0.026 A 
ATOM     10  C   UNL     1      -0.009  -2.772  -0.097  0.00  0.00    +0.051 A 
ATOM     11  C   UNL     1       0.154  -2.039   1.070  0.00  0.00    +0.026 A 
ATOM     12  C   UNL     1       0.113  -0.659   1.029  0.00  0.00    +0.005 A 
ENDBRANCH   1  10
BRANCH   2  13
ATOM     13  C   UNL     1      -2.113  -4.627   1.235  0.00  0.00    +0.020 A 
ATOM     14  C   UNL     1      -2.647  -3.349   1.057  0.00  0.00    +0.013 A 
ATOM     15  C   UNL     1      -3.798  -2.986   1.724  0.00  0.00    +0.021 A 
ATOM     16  C   UNL     1      -4.425  -3.887   2.569  0.00  0.00    +0.041 A 
ATOM     17  C   UNL     1      -3.901  -5.156   2.750  0.00  0.00    +0.021 A 
ATOM     18  C   UNL     1      -2.753  -5.532   2.083  0.00  0.00    +0.013 A 
ATOM     19 CL   UNL     1      -5.873  -3.423   3.406  0.00  0.00    -0.084 Cl
ENDBRANCH   2  13
BRANCH   5  20
ATOM     20  S   UNL     1       2.432  -4.464  -1.480  0.00  0.00    -0.076 S 
BRANCH  20  21
ATOM     21  C   UNL     1       3.270  -6.014  -1.909  0.00  0.00    +0.174 C 
BRANCH  21  22
ATOM     22  C   UNL     1       4.529  -5.708  -2.678  0.00  0.00    +0.242 C 
ATOM     23  O   UNL     1       4.832  -4.558  -2.914  0.00  0.00    -0.273 OA
ATOM     24  N   UNL     1       5.320  -6.713  -3.104  0.00  0.00    -0.206 N 
ATOM     25  H   UNL     1       5.078  -7.633  -2.916  0.00  0.00    +0.177 HD
BRANCH  24  26
ATOM     26  N   UNL     1       6.491  -6.428  -3.820  0.00  0.00    -0.175 NA
ATOM     27  C   UNL     1       7.259  -7.406  -4.234  0.00  0.00    +0.152 C 
ATOM     28  C   UNL     1       8.527  -7.297  -4.992  0.00  0.00    +0.028 A 
ATOM     29  C   UNL     1       9.259  -6.217  -5.474  0.00  0.00    +0.012 A 
ATOM     30  C   UNL     1      10.435  -6.439  -6.162  0.00  0.00    +0.001 A 
ATOM     31  C   UNL     1      10.882  -7.733  -6.372  0.00  0.00    +0.002 A 
ATOM     32  C   UNL     1      10.163  -8.811  -5.898  0.00  0.00    +0.024 A 
ATOM     33  C   UNL     1       8.976  -8.607  -5.202  0.00  0.00    +0.043 A 
ATOM     34  N   UNL     1       8.077  -9.499  -4.629  0.00  0.00    -0.280 N 
ATOM     35  C   UNL     1       7.054  -8.856  -4.041  0.00  0.00    +0.269 C 
ATOM     36  O   UNL     1       6.121  -9.376  -3.457  0.00  0.00    -0.268 OA
ATOM     37  H   UNL     1       8.177 -10.464  -4.647  0.00  0.00    +0.155 HD
ENDBRANCH  24  26
ENDBRANCH  21  22
ENDBRANCH  20  21
ENDBRANCH   5  20
TORSDOF 6
