REMARK  Name = ZINC01495229
REMARK  2 active torsions:
REMARK  status: ('A' for Active; 'I' for Inactive)
REMARK    1  A    between atoms: C_1  and  C_2
REMARK    2  A    between atoms: C_5  and  C_8
REMARK                            x       y       z     vdW  Elec       q    Type
REMARK                         _______ _______ _______ _____ _____    ______ ____
ROOT
ATOM      1  C   UNL     1       2.481   1.070  -0.016  0.00  0.00    +0.018 A 
ATOM      2  C   UNL     1       2.525  -0.327  -0.018  0.00  0.00    +0.124 A 
ATOM      3  N   UNL     1       3.699  -0.931  -0.038  0.00  0.00    -0.222 NA
ATOM      4  C   UNL     1       4.825  -0.231  -0.045  0.00  0.00    +0.218 A 
ATOM      5  N   UNL     1       4.824   1.094  -0.038  0.00  0.00    -0.222 NA
ATOM      6  C   UNL     1       3.689   1.771  -0.024  0.00  0.00    +0.124 A 
ATOM      7  N   UNL     1       6.034  -0.903  -0.060  0.00  0.00    -0.295 N 
ATOM      8  C   UNL     1       5.828  -2.360  -0.066  0.00  0.00    +0.113 C 
ATOM      9  C   UNL     1       7.146  -3.035  -0.450  0.00  0.00    +0.054 C 
ATOM     10  C   UNL     1       8.267  -2.495   0.401  0.00  0.00    -0.041 A 
ATOM     11  C   UNL     1       9.454  -3.210   0.461  0.00  0.00    +0.004 A 
ATOM     12  C   UNL     1      10.507  -2.749   1.226  0.00  0.00    +0.000 A 
ATOM     13  C   UNL     1      10.378  -1.570   1.935  0.00  0.00    +0.000 A 
ATOM     14  C   UNL     1       9.197  -0.859   1.877  0.00  0.00    +0.005 A 
ATOM     15  C   UNL     1       8.136  -1.321   1.111  0.00  0.00    -0.027 A 
ATOM     16  C   UNL     1       6.866  -0.512   1.083  0.00  0.00    +0.143 C 
ENDROOT
BRANCH   1  21
ATOM     17  C   UNL     1      -2.554   3.865   0.046  0.00  0.00    +0.044 C 
ATOM     18  C   UNL     1      -1.236   3.134   0.030  0.00  0.00    -0.050 A 
ATOM     19  C   UNL     1      -1.216   1.751   0.017  0.00  0.00    +0.004 A 
ATOM     20  C   UNL     1      -0.013   1.076   0.008  0.00  0.00    +0.009 A 
ATOM     21  C   UNL     1       1.184   1.790   0.000  0.00  0.00    -0.015 A 
ATOM     22  C   UNL     1       1.157   3.183   0.008  0.00  0.00    +0.009 A 
ATOM     23  C   UNL     1      -0.052   3.848   0.022  0.00  0.00    +0.004 A 
ENDBRANCH   1  21
TORSDOF 1
