REMARK  Name = ZINC04136156
REMARK  8 active torsions:
REMARK  status: ('A' for Active; 'I' for Inactive)
REMARK    1  A    between atoms: C_1  and  C_2
REMARK    2  A    between atoms: C_2  and  C_3
REMARK    3  A    between atoms: C_2  and  C_4
REMARK    4  A    between atoms: C_7  and  C_10
REMARK    5  A    between atoms: C_12  and  C_27
REMARK    6  A    between atoms: C_13  and  S_22
REMARK    7  A    between atoms: S_22  and  C_23
REMARK    8  A    between atoms: C_23  and  C_24
REMARK                            x       y       z     vdW  Elec       q    Type
REMARK                         _______ _______ _______ _____ _____    ______ ____
ROOT
ATOM      1  C   UNL     1       2.547  -0.294   2.927  0.00  0.00    +0.077 C 
ATOM      2  C   UNL     1       2.325  -1.762   3.135  0.00  0.00    +0.158 C 
ATOM      3  C   UNL     1       1.279  -2.405   2.549  0.00  0.00    +0.093 C 
ATOM      4  N   UNL     1       0.405  -1.709   1.746  0.00  0.00    -0.248 NA
ATOM      5  C   UNL     1       0.767  -0.507   1.202  0.00  0.00    +0.049 C 
ATOM      6  C   UNL     1       1.784   0.209   1.728  0.00  0.00    +0.025 C 
ATOM      7  C   UNL     1       2.161   1.445   1.176  0.00  0.00    +0.162 C 
ATOM      8  O   UNL     1       3.093   2.056   1.662  0.00  0.00    -0.292 OA
ATOM      9  C   UNL     1       1.434   2.026  -0.006  0.00  0.00    +0.080 C 
ATOM     10  C   UNL     1      -0.013   1.524   0.003  0.00  0.00    +0.014 C 
ATOM     11  C   UNL     1       0.002  -0.004   0.002  0.00  0.00    +0.056 C 
ENDROOT
BRANCH   1  15
ATOM     12  C   UNL     1       1.234   1.805   6.407  0.00  0.00    -0.045 A 
ATOM     13  C   UNL     1       2.558   1.873   6.018  0.00  0.00    +0.004 A 
ATOM     14  C   UNL     1       2.983   1.193   4.892  0.00  0.00    +0.004 A 
ATOM     15  C   UNL     1       2.084   0.446   4.155  0.00  0.00    -0.038 A 
ATOM     16  C   UNL     1       0.758   0.383   4.541  0.00  0.00    +0.004 A 
ATOM     17  C   UNL     1       0.334   1.059   5.670  0.00  0.00    +0.004 A 
BRANCH  12  19
ATOM     18  C   UNL     1      -0.314   3.553   7.245  0.00  0.00    +0.012 C 
ATOM     19  C   UNL     1       0.770   2.546   7.635  0.00  0.00    +0.013 C 
ATOM     20  C   UNL     1       0.201   1.550   8.647  0.00  0.00    +0.012 C 
ENDBRANCH  12  19
ENDBRANCH   1  15
BRANCH   2  21
ATOM     21  C   UNL     1       3.232  -2.501   3.961  0.00  0.00    +0.074 C 
ATOM     22  N   UNL     1       3.951  -3.087   4.616  0.00  0.00    -0.196 NA
ENDBRANCH   2  21
BRANCH   3  23
ATOM     23  S   UNL     1       1.043  -4.130   2.819  0.00  0.00    -0.100 S 
BRANCH  23  24
ATOM     24  C   UNL     1      -0.444  -4.403   1.824  0.00  0.00    +0.171 C 
BRANCH  24  25
ATOM     25  C   UNL     1      -0.845  -5.853   1.907  0.00  0.00    +0.221 C 
ATOM     26  O   UNL     1      -0.189  -6.626   2.573  0.00  0.00    -0.275 OA
ATOM     27  N   UNL     1      -1.931  -6.292   1.241  0.00  0.00    -0.329 N 
ATOM     28  H   UNL     1      -2.455  -5.673   0.708  0.00  0.00    +0.145 HD
ATOM     29  H   UNL     1      -2.189  -7.225   1.294  0.00  0.00    +0.145 HD
ENDBRANCH  24  25
ENDBRANCH  23  24
ENDBRANCH   3  23
TORSDOF 6
