REMARK  Name = ZINC19943075
REMARK  9 active torsions:
REMARK  status: ('A' for Active; 'I' for Inactive)
REMARK    1  A    between atoms: C_1  and  C_2
REMARK    2  A    between atoms: C_2  and  O_3
REMARK    3  A    between atoms: O_3  and  C_4
REMARK    4  A    between atoms: C_7  and  S_12
REMARK    5  A    between atoms: C_8  and  C_11
REMARK    6  A    between atoms: C_9  and  C_10
REMARK    7  A    between atoms: S_12  and  N_15
REMARK    8  A    between atoms: C_17  and  C_24
REMARK    9  A    between atoms: C_20  and  C_23
REMARK                            x       y       z     vdW  Elec       q    Type
REMARK                         _______ _______ _______ _____ _____    ______ ____
ROOT
ATOM      1  C   UNL     1      -0.983   1.132   3.209  0.00  0.00    +0.124 A 
ATOM      2  C   UNL     1       0.145   0.324   3.192  0.00  0.00    +0.048 A 
ATOM      3  C   UNL     1       0.886   0.150   4.345  0.00  0.00    +0.032 A 
ATOM      4  C   UNL     1       0.505   0.781   5.515  0.00  0.00    +0.109 A 
ATOM      5  C   UNL     1      -0.618   1.586   5.535  0.00  0.00    -0.018 A 
ATOM      6  C   UNL     1      -1.359   1.768   4.383  0.00  0.00    -0.004 A 
ATOM      7  C   UNL     1      -2.580   2.651   4.404  0.00  0.00    +0.048 C 
ATOM      8  C   UNL     1      -1.031   2.271   6.812  0.00  0.00    +0.046 C 
ENDROOT
BRANCH   4   9
ATOM      9  S   UNL     1       1.454   0.557   6.983  0.00  0.00    +0.061 S 
ATOM     10  O   UNL     1       0.535   0.210   8.010  0.00  0.00    -0.153 OA
ATOM     11  O   UNL     1       2.555  -0.270   6.634  0.00  0.00    -0.153 OA
BRANCH   9  12
ATOM     12  N   UNL     1       2.082   2.035   7.390  0.00  0.00    -0.176 NA
ATOM     13  C   UNL     1       1.413   2.884   8.385  0.00  0.00    +0.112 C 
ATOM     14  C   UNL     1       2.434   3.264   9.469  0.00  0.00    +0.002 C 
ATOM     15  C   UNL     1       3.653   3.911   8.808  0.00  0.00    +0.009 C 
ATOM     16  C   UNL     1       4.311   2.909   7.856  0.00  0.00    +0.002 C 
ATOM     17  C   UNL     1       3.315   2.523   6.758  0.00  0.00    +0.112 C 
ATOM     18  C   UNL     1       4.723   1.659   8.635  0.00  0.00    +0.009 C 
ATOM     19  C   UNL     1       1.796   4.254  10.444  0.00  0.00    +0.009 C 
ENDBRANCH   9  12
ENDBRANCH   4   9
BRANCH   1  20
ATOM     20  O   UNL     1      -1.714   1.305   2.077  0.00  0.00    -0.492 OA
BRANCH  20  22
ATOM     21  C   UNL     1      -2.204   0.937  -0.261  0.00  0.00    +0.048 C 
ATOM     22  C   UNL     1      -1.263   0.624   0.904  0.00  0.00    +0.225 C 
ENDBRANCH  20  22
ENDBRANCH   1  20
TORSDOF 4
