REMARK  Name = ZINC13174264
REMARK  8 active torsions:
REMARK  status: ('A' for Active; 'I' for Inactive)
REMARK    1  A    between atoms: C_1  and  C_2
REMARK    2  A    between atoms: C_5  and  C_34
REMARK    3  A    between atoms: C_6  and  N_8
REMARK    4  A    between atoms: C_9  and  C_11
REMARK    5  A    between atoms: C_11  and  S_12
REMARK    6  A    between atoms: S_12  and  C_13
REMARK    7  A    between atoms: C_14  and  C_32
REMARK    8  A    between atoms: C_15  and  C_25
REMARK                            x       y       z     vdW  Elec       q    Type
REMARK                         _______ _______ _______ _____ _____    ______ ____
ROOT
ATOM      1  C   UNL     1       0.537  -2.770   7.657  0.00  0.00    +0.112 C 
ATOM      2  C   UNL     1       0.637  -2.182   8.906  0.00  0.00    +0.073 C 
ATOM      3  C   UNL     1       0.761  -3.108  10.103  0.00  0.00    +0.097 C 
ATOM      4  C   UNL     1       0.759  -4.593   9.792  0.00  0.00    +0.029 C 
ATOM      5  C   UNL     1       0.860  -5.487  10.789  0.00  0.00    +0.162 C 
ATOM      6  C   UNL     1       0.862  -6.967  10.516  0.00  0.00    +0.080 C 
ATOM      7  C   UNL     1       0.046  -7.249   9.251  0.00  0.00    +0.014 C 
ATOM      8  C   UNL     1       0.643  -6.451   8.089  0.00  0.00    +0.056 C 
ATOM      9  C   UNL     1       0.647  -4.983   8.445  0.00  0.00    +0.050 C 
ATOM     10  N   UNL     1       0.540  -4.094   7.489  0.00  0.00    -0.244 NA
ATOM     11  O   UNL     1       0.962  -5.050  12.060  0.00  0.00    -0.292 OA
ENDROOT
BRANCH   3  12
ATOM     12  C   UNL     1      -0.387  -2.825  11.038  0.00  0.00    -0.035 A 
ATOM     13  C   UNL     1      -1.689  -2.989  10.603  0.00  0.00    +0.006 A 
ATOM     14  C   UNL     1      -2.741  -2.729  11.460  0.00  0.00    +0.020 A 
ATOM     15  C   UNL     1      -2.492  -2.305  12.753  0.00  0.00    +0.041 A 
ATOM     16  C   UNL     1      -1.189  -2.141  13.188  0.00  0.00    +0.020 A 
ATOM     17  C   UNL     1      -0.137  -2.407  12.331  0.00  0.00    +0.006 A 
ATOM     18 CL   UNL     1      -3.814  -1.978  13.830  0.00  0.00    -0.084 Cl
ENDBRANCH   3  12
BRANCH   2  19
ATOM     19  C   UNL     1       0.627  -0.759   9.063  0.00  0.00    +0.098 C 
ATOM     20  N   UNL     1       0.618   0.370   9.188  0.00  0.00    -0.191 NA
ENDBRANCH   2  19
BRANCH   1  21
ATOM     21  S   UNL     1       0.391  -1.734   6.239  0.00  0.00    -0.096 S 
BRANCH  21  22
ATOM     22  C   UNL     1       0.280  -2.900   4.854  0.00  0.00    +0.172 C 
BRANCH  22  24
ATOM     23  N   UNL     1       0.052  -2.797   2.393  0.00  0.00    -0.285 N 
ATOM     24  C   UNL     1       0.150  -2.135   3.562  0.00  0.00    +0.227 C 
ATOM     25  O   UNL     1       0.134  -0.922   3.575  0.00  0.00    -0.275 OA
ATOM     26  H   UNL     1      -0.016  -3.765   2.388  0.00  0.00    +0.155 HD
BRANCH  23  32
ATOM     27  C   UNL     1       1.264   1.227  -0.158  0.00  0.00    +0.044 C 
ATOM     28  C   UNL     1       0.628  -0.137  -0.079  0.00  0.00    -0.049 A 
ATOM     29  C   UNL     1       0.039  -0.690  -1.201  0.00  0.00    +0.004 A 
ATOM     30  C   UNL     1      -0.546  -1.941  -1.133  0.00  0.00    +0.005 A 
ATOM     31  C   UNL     1      -0.543  -2.643   0.057  0.00  0.00    -0.029 A 
ATOM     32  C   UNL     1       0.048  -2.090   1.185  0.00  0.00    +0.037 A 
ATOM     33  C   UNL     1       0.639  -0.835   1.112  0.00  0.00    +0.027 A 
ATOM     34  C   UNL     1      -1.181  -4.006   0.131  0.00  0.00    +0.045 C 
ENDBRANCH  23  32
ENDBRANCH  22  24
ENDBRANCH  21  22
ENDBRANCH   1  21
TORSDOF 6
