REMARK  Name = ZINC13064893
REMARK  14 active torsions:
REMARK  status: ('A' for Active; 'I' for Inactive)
REMARK    1  A    between atoms: C_1  and  C_2
REMARK    2  A    between atoms: C_2  and  C_3
REMARK    3  A    between atoms: C_3  and  C_5
REMARK    4  A    between atoms: C_3  and  N_70
REMARK    5  A    between atoms: N_9  and  C_10
REMARK    6  A    between atoms: C_10  and  C_11
REMARK    7  A    between atoms: C_14  and  O_17
REMARK    8  A    between atoms: O_17  and  C_18
REMARK    9  A    between atoms: C_19  and  C_20
REMARK   10  A    between atoms: C_19  and  N_70
REMARK   11  A    between atoms: C_25  and  C_26
REMARK   12  A    between atoms: C_25  and  N_70
REMARK   13  A    between atoms: C_29  and  C_39
REMARK   14  A    between atoms: C_31  and  C_38
REMARK                            x       y       z     vdW  Elec       q    Type
REMARK                         _______ _______ _______ _____ _____    ______ ____
ROOT
ATOM      1  N   UNL     1      -0.366  -2.076  -0.842  0.00  0.00    +0.392 N 
ATOM      2  H   UNL     1       0.489  -2.632  -0.729  0.00  0.00    -0.080 HD
ENDROOT
BRANCH   1   3
ATOM      3  C   UNL     1      -0.597  -1.294   0.390  0.00  0.00    +0.003 C 
BRANCH   3   4
ATOM      4  C   UNL     1      -0.167  -2.122   1.573  0.00  0.00    +0.138 A 
ATOM      5  N   UNL     1      -0.479  -3.373   1.808  0.00  0.00    -0.115 NA
ATOM      6  N   UNL     1       0.080  -3.722   2.915  0.00  0.00    -0.023 NA
ATOM      7  N   UNL     1       0.741  -2.726   3.393  0.00  0.00    -0.044 NA
ATOM      8  N   UNL     1       0.614  -1.721   2.594  0.00  0.00    -0.226 N 
BRANCH   8   9
ATOM      9  C   UNL     1       1.211  -0.394   2.764  0.00  0.00    +0.182 C 
BRANCH   9  10
ATOM     10  C   UNL     1       0.264   0.489   3.534  0.00  0.00    -0.026 A 
ATOM     11  C   UNL     1      -0.669   1.255   2.860  0.00  0.00    +0.009 A 
ATOM     12  C   UNL     1      -1.542   2.061   3.565  0.00  0.00    +0.046 A 
ATOM     13  C   UNL     1      -1.475   2.109   4.949  0.00  0.00    +0.120 A 
ATOM     14  C   UNL     1      -0.535   1.344   5.623  0.00  0.00    +0.046 A 
ATOM     15  C   UNL     1       0.333   0.536   4.915  0.00  0.00    +0.009 A 
BRANCH  13  16
ATOM     16  O   UNL     1      -2.330   2.905   5.645  0.00  0.00    -0.495 OA
ATOM     17  C   UNL     1      -3.272   3.665   4.885  0.00  0.00    +0.277 C 
ENDBRANCH  13  16
ENDBRANCH   9  10
ENDBRANCH   8   9
ENDBRANCH   3   4
BRANCH   3  19
ATOM     18  C   UNL     1      -2.486   0.002  -0.608  0.00  0.00    +0.002 C 
ATOM     19  C   UNL     1      -2.079  -0.939   0.528  0.00  0.00    -0.011 C 
ENDBRANCH   3  19
ENDBRANCH   1   3
BRANCH   1  20
ATOM     20  C   UNL     1      -0.197  -1.165  -1.994  0.00  0.00    -0.034 C 
BRANCH  20  21
ATOM     21  C   UNL     1       1.072  -0.375  -1.807  0.00  0.00    -0.027 A 
ATOM     22  C   UNL     1       2.335  -0.685  -2.189  0.00  0.00    +0.009 A 
ATOM     23  C   UNL     1       3.357   0.202  -1.909  0.00  0.00    +0.008 A 
ATOM     24  C   UNL     1       3.066   1.357  -1.262  0.00  0.00    +0.045 A 
ATOM     25  S   UNL     1       1.301   1.218  -1.033  0.00  0.00    -0.103 S 
ENDBRANCH  20  21
ENDBRANCH   1  20
BRANCH   1  26
ATOM     26  C   UNL     1      -1.504  -2.988  -1.082  0.00  0.00    -0.036 C 
BRANCH  26  27
ATOM     27  C   UNL     1      -1.092  -4.017  -2.104  0.00  0.00    +0.001 A 
ATOM     28  C   UNL     1      -0.605  -5.215  -1.697  0.00  0.00    +0.017 A 
ATOM     29  C   UNL     1      -0.214  -6.193  -2.715  0.00  0.00    +0.002 A 
ATOM     30  C   UNL     1       0.294  -7.446  -2.357  0.00  0.00    -0.041 A 
ATOM     31  C   UNL     1       0.650  -8.335  -3.330  0.00  0.00    +0.007 A 
ATOM     32  C   UNL     1       0.510  -8.008  -4.672  0.00  0.00    -0.048 A 
ATOM     33  C   UNL     1       0.012  -6.779  -5.048  0.00  0.00    +0.029 A 
ATOM     34  C   UNL     1      -0.357  -5.857  -4.074  0.00  0.00    +0.050 A 
ATOM     35  N   UNL     1      -0.860  -4.621  -4.422  0.00  0.00    -0.322 N 
ATOM     36  H   UNL     1      -0.958  -4.391  -5.359  0.00  0.00    +0.169 HD
ATOM     37  C   UNL     1      -1.221  -3.732  -3.480  0.00  0.00    +0.251 A 
ATOM     38  O   UNL     1      -1.666  -2.650  -3.824  0.00  0.00    -0.268 OA
ATOM     39  C   UNL     1       0.909  -9.005  -5.729  0.00  0.00    +0.044 C 
ATOM     40  C   UNL     1       0.451  -7.812  -0.903  0.00  0.00    +0.044 C 
ENDBRANCH  26  27
ENDBRANCH   1  26
TORSDOF 10
