REMARK  Name = ZINC67046209
REMARK  8 active torsions:
REMARK  status: ('A' for Active; 'I' for Inactive)
REMARK    1  A    between atoms: C_1  and  O_2
REMARK    2  A    between atoms: O_2  and  C_3
REMARK    3  A    between atoms: C_3  and  C_4
REMARK    4  A    between atoms: C_7  and  C_10
REMARK    5  A    between atoms: C_10  and  N_11
REMARK    6  A    between atoms: N_14  and  N_15
REMARK    7  A    between atoms: C_16  and  C_18
REMARK    8  A    between atoms: C_18  and  C_19
REMARK                            x       y       z     vdW  Elec       q    Type
REMARK                         _______ _______ _______ _____ _____    ______ ____
ROOT
ATOM      1  N   UNL     1       0.659  -6.716  -0.035  0.00  0.00    -0.294 N 
ATOM      2  C   UNL     1       1.026  -8.013  -0.044  0.00  0.00    +0.316 C 
ATOM      3  O   UNL     1       0.178  -8.885  -0.045  0.00  0.00    -0.251 OA
ATOM      4  N   UNL     1       2.332  -8.344  -0.053  0.00  0.00    -0.218 N 
ATOM      5  H   UNL     1       1.335  -6.021  -0.035  0.00  0.00    +0.151 HD
ATOM      6  H   UNL     1       2.596  -9.277  -0.060  0.00  0.00    +0.174 HD
ENDROOT
BRANCH   4   7
ATOM      7  N   UNL     1       3.309  -7.339  -0.053  0.00  0.00    -0.233 N 
ATOM      8  C   UNL     1       4.615  -7.670  -0.062  0.00  0.00    +0.229 C 
ATOM      9  O   UNL     1       4.946  -8.837  -0.071  0.00  0.00    -0.274 OA
ATOM     10  H   UNL     1       3.045  -6.406  -0.046  0.00  0.00    +0.173 HD
BRANCH   8  11
ATOM     11  C   UNL     1       5.666  -6.590  -0.062  0.00  0.00    +0.101 C 
BRANCH  11  12
ATOM     12  C   UNL     1       7.056  -7.230  -0.073  0.00  0.00    -0.002 C 
ATOM     13  C   UNL     1       7.271  -8.004   1.228  0.00  0.00    +0.004 C 
ATOM     14  C   UNL     1       8.661  -8.644   1.217  0.00  0.00    +0.000 C 
ATOM     15  C   UNL     1       9.725  -7.552   1.092  0.00  0.00    +0.000 C 
ATOM     16  C   UNL     1       9.509  -6.777  -0.210  0.00  0.00    +0.000 C 
ATOM     17  C   UNL     1       8.120  -6.137  -0.199  0.00  0.00    +0.004 C 
ENDBRANCH  11  12
ENDBRANCH   8  11
ENDBRANCH   4   7
BRANCH   1  18
ATOM     18  C   UNL     1      -0.761  -6.357  -0.025  0.00  0.00    +0.141 C 
BRANCH  18  22
ATOM     19  C   UNL     1      -1.156  -2.103   0.002  0.00  0.00    -0.022 A 
ATOM     20  C   UNL     1      -1.098  -2.785  -1.200  0.00  0.00    +0.006 A 
ATOM     21  C   UNL     1      -0.970  -4.161  -1.208  0.00  0.00    +0.005 A 
ATOM     22  C   UNL     1      -0.900  -4.856  -0.015  0.00  0.00    -0.030 A 
ATOM     23  C   UNL     1      -0.957  -4.175   1.186  0.00  0.00    +0.005 A 
ATOM     24  C   UNL     1      -1.081  -2.798   1.195  0.00  0.00    +0.006 A 
BRANCH  19  25
ATOM     25  C   UNL     1      -1.295  -0.603   0.011  0.00  0.00    +0.194 C 
BRANCH  25  27
ATOM     26  C   UNL     1      -0.017   1.425   0.010  0.00  0.00    +0.194 C 
ATOM     27  O   UNL     1       0.002  -0.004   0.002  0.00  0.00    -0.378 OA
ENDBRANCH  25  27
ENDBRANCH  19  25
ENDBRANCH  18  22
ENDBRANCH   1  18
TORSDOF 7
