REMARK  Name = ZINC11118124
REMARK  9 active torsions:
REMARK  status: ('A' for Active; 'I' for Inactive)
REMARK    1  A    between atoms: C_1  and  C_2
REMARK    2  A    between atoms: C_2  and  C_33
REMARK    3  A    between atoms: C_5  and  C_31
REMARK    4  A    between atoms: C_6  and  N_12
REMARK    5  A    between atoms: C_9  and  C_10
REMARK    6  A    between atoms: C_9  and  C_11
REMARK    7  A    between atoms: C_13  and  C_15
REMARK    8  A    between atoms: N_18  and  S_21
REMARK    9  A    between atoms: S_21  and  C_24
REMARK                            x       y       z     vdW  Elec       q    Type
REMARK                         _______ _______ _______ _____ _____    ______ ____
ROOT
ATOM      1  N   UNL     1       0.202   3.407   6.585  0.00  0.00    -0.279 N 
ATOM      2  C   UNL     1       1.207   3.277   5.697  0.00  0.00    +0.221 C 
ATOM      3  O   UNL     1       2.130   2.526   5.930  0.00  0.00    -0.275 OA
ATOM      4  H   UNL     1      -0.536   4.008   6.398  0.00  0.00    +0.155 HD
ENDROOT
BRANCH   1  10
ATOM      5  C   UNL     1      -1.970   0.106  12.983  0.00  0.00    -0.010 C 
ATOM      6  C   UNL     1      -1.163   0.236  11.678  0.00  0.00    -0.069 C 
ATOM      7  C   UNL     1      -1.341   1.667  11.157  0.00  0.00    +0.024 C 
ATOM      8  C   UNL     1      -0.452   1.823   9.931  0.00  0.00    -0.021 A 
ATOM      9  C   UNL     1      -0.711   2.682   8.796  0.00  0.00    +0.084 A 
ATOM     10  C   UNL     1       0.224   2.681   7.768  0.00  0.00    +0.090 A 
ATOM     11  S   UNL     1       1.421   1.557   8.321  0.00  0.00    -0.078 S 
ATOM     12  C   UNL     1       0.697   1.108   9.871  0.00  0.00    -0.015 A 
ATOM     13  C   UNL     1       1.213   0.166  10.909  0.00  0.00    -0.041 C 
ATOM     14  C   UNL     1       1.612  -1.158  10.241  0.00  0.00    -0.005 C 
ATOM     15  C   UNL     1       2.477   0.781  11.538  0.00  0.00    -0.005 C 
ATOM     16  C   UNL     1      -1.750  -0.748  10.662  0.00  0.00    -0.010 C 
ATOM     17  N   UNL     1       0.246  -0.096  12.014  0.00  0.00    +0.389 N 
ATOM     18  H   UNL     1       0.293  -1.093  12.255  0.00  0.00    -0.084 HD
ATOM     19  H   UNL     1       0.524   0.466  12.827  0.00  0.00    -0.084 HD
BRANCH   9  20
ATOM     20  C   UNL     1      -1.879   3.507   8.724  0.00  0.00    +0.102 C 
ATOM     21  N   UNL     1      -2.806   4.161   8.667  0.00  0.00    -0.191 NA
ENDBRANCH   9  20
ENDBRANCH   1  10
BRANCH   2  22
ATOM     22  C   UNL     1       1.183   4.065   4.412  0.00  0.00    +0.078 C 
ATOM     23  C   UNL     1       2.431   3.736   3.589  0.00  0.00    +0.030 C 
ATOM     24  C   UNL     1       2.421   4.564   2.301  0.00  0.00    +0.110 C 
ATOM     25  N   UNL     1       1.153   4.329   1.596  0.00  0.00    -0.177 NA
ATOM     26  C   UNL     1      -0.107   4.534   2.323  0.00  0.00    +0.110 C 
ATOM     27  C   UNL     1      -0.069   3.700   3.612  0.00  0.00    +0.030 C 
BRANCH  25  28
ATOM     28  S   UNL     1       1.145   3.848   0.012  0.00  0.00    +0.061 S 
ATOM     29  O   UNL     1       2.379   4.275  -0.549  0.00  0.00    -0.153 OA
ATOM     30  O   UNL     1      -0.111   4.239  -0.525  0.00  0.00    -0.153 OA
BRANCH  28  31
ATOM     31  C   UNL     1       1.171   2.086   0.002  0.00  0.00    +0.106 A 
ATOM     32  C   UNL     1      -0.017   1.378   0.010  0.00  0.00    +0.031 A 
ATOM     33  C   UNL     1       0.002  -0.004   0.002  0.00  0.00    +0.040 A 
ATOM     34  C   UNL     1       1.211  -0.679  -0.013  0.00  0.00    +0.124 A 
ATOM     35  C   UNL     1       2.399   0.031  -0.021  0.00  0.00    +0.040 A 
ATOM     36  C   UNL     1       2.378   1.413  -0.013  0.00  0.00    +0.031 A 
ATOM     37  F   UNL     1       1.230  -2.030  -0.020  0.00  0.00    -0.205 F 
ENDBRANCH  28  31
ENDBRANCH  25  28
ENDBRANCH   2  22
TORSDOF 5
