REMARK  Name = ZINC28288631
REMARK  7 active torsions:
REMARK  status: ('A' for Active; 'I' for Inactive)
REMARK    1  A    between atoms: C_1  and  C_2
REMARK    2  A    between atoms: C_4  and  C_32
REMARK    3  A    between atoms: C_9  and  C_13
REMARK    4  A    between atoms: N_15  and  C_16
REMARK    5  A    between atoms: C_16  and  C_17
REMARK    6  A    between atoms: C_17  and  C_19
REMARK    7  A    between atoms: C_17  and  N_26
REMARK                            x       y       z     vdW  Elec       q    Type
REMARK                         _______ _______ _______ _____ _____    ______ ____
ROOT
ATOM      1  C   UNL     1      -4.123  -4.406   2.003  0.00  0.00    +0.279 C 
ATOM      2  O   UNL     1      -3.234  -4.630   1.205  0.00  0.00    -0.267 OA
ATOM      3  N   UNL     1      -5.024  -3.436   1.752  0.00  0.00    -0.310 N 
ATOM      4  H   UNL     1      -5.828  -3.233   2.475  0.00  0.00    +0.149 HD
ENDROOT
BRANCH   1  13
ATOM      5  C   UNL     1      -7.714  -5.606   8.238  0.00  0.00    +0.044 C 
ATOM      6  C   UNL     1      -6.578  -5.961   7.313  0.00  0.00    -0.047 A 
ATOM      7  C   UNL     1      -5.702  -6.979   7.662  0.00  0.00    +0.007 A 
ATOM      8  C   UNL     1      -4.666  -7.313   6.835  0.00  0.00    -0.036 A 
ATOM      9  C   UNL     1      -4.491  -6.625   5.635  0.00  0.00    +0.067 A 
ATOM     10  C   UNL     1      -3.385  -6.956   4.715  0.00  0.00    +0.193 A 
ATOM     11  O   UNL     1      -2.586  -7.839   4.969  0.00  0.00    -0.287 OA
ATOM     12  C   UNL     1      -3.295  -6.168   3.476  0.00  0.00    +0.103 A 
ATOM     13  C   UNL     1      -4.215  -5.199   3.251  0.00  0.00    +0.193 A 
ATOM     14  O   UNL     1      -5.206  -4.930   4.114  0.00  0.00    -0.450 OA
ATOM     15  C   UNL     1      -5.374  -5.594   5.274  0.00  0.00    +0.140 A 
ATOM     16  C   UNL     1      -6.422  -5.270   6.131  0.00  0.00    +0.050 A 
ATOM     17  C   UNL     1      -3.716  -8.419   7.220  0.00  0.00    +0.044 C 
ENDBRANCH   1  13
BRANCH   3  18
ATOM     18  C   UNL     1      -4.933  -2.652   0.518  0.00  0.00    +0.094 C 
BRANCH  18  19
ATOM     19  C   UNL     1      -5.992  -1.548   0.536  0.00  0.00    -0.020 C 
BRANCH  19  20
ATOM     20  C   UNL     1      -7.365  -2.170   0.552  0.00  0.00    -0.059 A 
ATOM     21  C   UNL     1      -7.927  -2.635  -0.622  0.00  0.00    +0.003 A 
ATOM     22  C   UNL     1      -9.183  -3.211  -0.607  0.00  0.00    +0.020 A 
ATOM     23  C   UNL     1      -9.884  -3.310   0.582  0.00  0.00    +0.041 A 
ATOM     24  C   UNL     1      -9.323  -2.839   1.756  0.00  0.00    +0.020 A 
ATOM     25  C   UNL     1      -8.064  -2.269   1.741  0.00  0.00    +0.003 A 
ATOM     26 CL   UNL     1     -11.465  -4.026   0.601  0.00  0.00    -0.084 Cl
ENDBRANCH  19  20
BRANCH  19  27
ATOM     27  N   UNL     1      -5.848  -0.712  -0.663  0.00  0.00    +0.385 N 
ATOM     28  C   UNL     1      -4.515  -0.097  -0.719  0.00  0.00    -0.078 C 
ATOM     29  C   UNL     1      -4.349   0.645  -2.046  0.00  0.00    -0.019 C 
ATOM     30  C   UNL     1      -5.433   1.721  -2.162  0.00  0.00    -0.004 C 
ATOM     31  C   UNL     1      -6.810   1.061  -2.053  0.00  0.00    -0.019 C 
ATOM     32  C   UNL     1      -6.904   0.306  -0.725  0.00  0.00    -0.078 C 
ATOM     33  H   UNL     1      -5.955  -1.360  -1.545  0.00  0.00    -0.081 HD
ENDBRANCH  19  27
ENDBRANCH  18  19
ENDBRANCH   3  18
TORSDOF 5
