REMARK  Name = ZINC16689075
REMARK  11 active torsions:
REMARK  status: ('A' for Active; 'I' for Inactive)
REMARK    1  A    between atoms: C_1  and  C_2
REMARK    2  A    between atoms: C_2  and  O_3
REMARK    3  A    between atoms: O_3  and  C_4
REMARK    4  A    between atoms: C_6  and  C_19
REMARK    5  A    between atoms: C_9  and  O_10
REMARK    6  A    between atoms: O_10  and  C_11
REMARK    7  A    between atoms: C_11  and  C_12
REMARK    8  A    between atoms: C_19  and  N_57
REMARK    9  A    between atoms: C_20  and  C_21
REMARK   10  A    between atoms: C_20  and  N_57
REMARK   11  A    between atoms: C_21  and  C_22
REMARK                            x       y       z     vdW  Elec       q    Type
REMARK                         _______ _______ _______ _____ _____    ______ ____
ROOT
ATOM      1  C   UNL     1      -3.380   3.244   2.846  0.00  0.00    +0.162 A 
ATOM      2  C   UNL     1      -4.576   3.919   3.032  0.00  0.00    +0.051 A 
ATOM      3  C   UNL     1      -5.312   4.334   1.938  0.00  0.00    -0.061 A 
ATOM      4  C   UNL     1      -4.856   4.082   0.658  0.00  0.00    +0.005 A 
ATOM      5  C   UNL     1      -3.660   3.414   0.466  0.00  0.00    +0.049 A 
ATOM      6  C   UNL     1      -2.917   2.996   1.558  0.00  0.00    +0.162 A 
ENDROOT
BRANCH   1   7
ATOM      7  O   UNL     1      -2.657   2.830   3.921  0.00  0.00    -0.489 OA
BRANCH   7   9
ATOM      8  C   UNL     1      -2.248   2.582   6.290  0.00  0.00    +0.048 C 
ATOM      9  C   UNL     1      -3.193   3.120   5.214  0.00  0.00    +0.226 C 
ENDBRANCH   7   9
ENDBRANCH   1   7
BRANCH   6  10
ATOM     10  O   UNL     1      -1.741   2.339   1.370  0.00  0.00    -0.484 OA
BRANCH  10  11
ATOM     11  C   UNL     1      -1.332   2.114   0.020  0.00  0.00    +0.264 C 
BRANCH  11  12
ATOM     12  C   UNL     1      -0.017   1.378   0.010  0.00  0.00    -0.010 A 
ATOM     13  C   UNL     1       1.171   2.086   0.002  0.00  0.00    +0.008 A 
ATOM     14  C   UNL     1       2.377   1.412  -0.013  0.00  0.00    +0.020 A 
ATOM     15  C   UNL     1       2.397   0.029  -0.021  0.00  0.00    +0.041 A 
ATOM     16  C   UNL     1       1.208  -0.679  -0.013  0.00  0.00    +0.020 A 
ATOM     17  C   UNL     1       0.002  -0.004   0.002  0.00  0.00    +0.008 A 
ATOM     18 CL   UNL     1       3.912  -0.818  -0.039  0.00  0.00    -0.084 Cl
ENDBRANCH  11  12
ENDBRANCH  10  11
ENDBRANCH   6  10
BRANCH   3  19
ATOM     19  C   UNL     1      -6.615   5.062   2.142  0.00  0.00    -0.047 C 
BRANCH  19  20
ATOM     20  N   UNL     1      -7.714   4.080   2.204  0.00  0.00    +0.382 N 
ATOM     21  H   UNL     1      -7.549   3.436   2.986  0.00  0.00    -0.085 HD
ATOM     22  H   UNL     1      -7.745   3.550   1.325  0.00  0.00    -0.085 HD
BRANCH  20  23
ATOM     23  C   UNL     1      -9.004   4.766   2.403  0.00  0.00    -0.077 C 
BRANCH  23  24
ATOM     24  C   UNL     1     -10.123   3.724   2.463  0.00  0.00    +0.018 C 
BRANCH  24  25
ATOM     25  C   UNL     1     -11.445   4.417   2.667  0.00  0.00    -0.024 A 
ATOM     26  C   UNL     1     -12.067   4.623   3.839  0.00  0.00    +0.087 A 
ATOM     27  N   UNL     1     -13.245   5.287   3.631  0.00  0.00    -0.360 N 
ATOM     28  H   UNL     1     -13.867   5.550   4.328  0.00  0.00    +0.165 HD
ATOM     29  C   UNL     1     -13.419   5.524   2.286  0.00  0.00    +0.047 A 
ATOM     30  C   UNL     1     -12.299   4.989   1.623  0.00  0.00    +0.003 A 
ATOM     31  C   UNL     1     -12.201   5.085   0.234  0.00  0.00    +0.010 A 
ATOM     32  C   UNL     1     -13.196   5.697  -0.476  0.00  0.00    +0.001 A 
ATOM     33  C   UNL     1     -14.303   6.226   0.174  0.00  0.00    +0.002 A 
ATOM     34  C   UNL     1     -14.419   6.143   1.544  0.00  0.00    +0.026 A 
ENDBRANCH  24  25
ENDBRANCH  23  24
ENDBRANCH  20  23
ENDBRANCH  19  20
ENDBRANCH   3  19
TORSDOF 10
