REMARK  Name = ZINC12565545
REMARK  7 active torsions:
REMARK  status: ('A' for Active; 'I' for Inactive)
REMARK    1  A    between atoms: C_1  and  N_2
REMARK    2  A    between atoms: C_3  and  C_24
REMARK    3  A    between atoms: C_6  and  S_7
REMARK    4  A    between atoms: S_7  and  C_8
REMARK    5  A    between atoms: C_8  and  C_9
REMARK    6  A    between atoms: N_11  and  C_12
REMARK    7  A    between atoms: C_13  and  C_22
REMARK                            x       y       z     vdW  Elec       q    Type
REMARK                         _______ _______ _______ _____ _____    ______ ____
ROOT
ATOM      1  C   UNL     1      -0.881  -6.116   0.821  0.00  0.00    +0.228 C 
ATOM      2  O   UNL     1      -2.080  -6.264   0.715  0.00  0.00    -0.275 OA
ATOM      3  N   UNL     1      -0.093  -7.172   1.105  0.00  0.00    -0.278 N 
ATOM      4  H   UNL     1       0.866  -7.053   1.190  0.00  0.00    +0.155 HD
ENDROOT
BRANCH   3   5
ATOM      5  C   UNL     1      -0.654  -8.430   1.276  0.00  0.00    +0.090 A 
ATOM      6  C   UNL     1      -0.017  -9.625   1.564  0.00  0.00    +0.084 A 
ATOM      7  C   UNL     1      -0.841 -10.818   1.703  0.00  0.00    -0.018 A 
ATOM      8  C   UNL     1      -2.164 -10.620   1.514  0.00  0.00    -0.004 A 
ATOM      9  S   UNL     1      -2.322  -8.888   1.175  0.00  0.00    -0.077 S 
ATOM     10  C   UNL     1      -3.258 -11.640   1.563  0.00  0.00    +0.043 C 
ATOM     11  C   UNL     1      -3.110 -12.480   2.839  0.00  0.00    +0.005 C 
ATOM     12  C   UNL     1      -2.211 -13.673   2.529  0.00  0.00    +0.001 C 
ATOM     13  C   UNL     1      -1.160 -13.284   1.491  0.00  0.00    +0.005 C 
ATOM     14  C   UNL     1      -0.255 -12.184   2.036  0.00  0.00    +0.037 C 
BRANCH   6  15
ATOM     15  C   UNL     1       1.405  -9.686   1.724  0.00  0.00    +0.102 C 
ATOM     16  N   UNL     1       2.533  -9.734   1.850  0.00  0.00    -0.191 NA
ENDBRANCH   6  15
ENDBRANCH   3   5
BRANCH   1  17
ATOM     17  C   UNL     1      -0.271  -4.750   0.635  0.00  0.00    +0.173 C 
BRANCH  17  18
ATOM     18  S   UNL     1      -1.577  -3.552   0.266  0.00  0.00    -0.077 S 
BRANCH  18  24
ATOM     19  C   UNL     1      -2.472  -0.441  -0.401  0.00  0.00    +0.153 C 
ATOM     20  N   UNL     1      -1.079  -0.836  -0.179  0.00  0.00    -0.305 N 
ATOM     21  C   UNL     1       0.031  -0.023  -0.211  0.00  0.00    +0.165 A 
ATOM     22  N   UNL     1       1.071  -0.781   0.046  0.00  0.00    -0.128 NA
ATOM     23  N   UNL     1       0.694  -1.996   0.230  0.00  0.00    -0.122 NA
ATOM     24  C   UNL     1      -0.611  -2.088   0.101  0.00  0.00    +0.192 A 
BRANCH  21  25
ATOM     25  C   UNL     1       0.048   1.431  -0.480  0.00  0.00    +0.019 A 
ATOM     26  C   UNL     1      -1.034   2.038  -1.119  0.00  0.00    +0.013 A 
ATOM     27  C   UNL     1      -1.015   3.396  -1.362  0.00  0.00    +0.021 A 
ATOM     28  C   UNL     1       0.080   4.154  -0.983  0.00  0.00    +0.041 A 
ATOM     29  C   UNL     1       1.159   3.556  -0.353  0.00  0.00    +0.021 A 
ATOM     30  C   UNL     1       1.149   2.200  -0.100  0.00  0.00    +0.013 A 
ATOM     31 CL   UNL     1       0.101   5.861  -1.299  0.00  0.00    -0.084 Cl
ENDBRANCH  21  25
ENDBRANCH  18  24
ENDBRANCH  17  18
ENDBRANCH   1  17
TORSDOF 6
