REMARK  Name = ZINC35644633
REMARK  14 active torsions:
REMARK  status: ('A' for Active; 'I' for Inactive)
REMARK    1  A    between atoms: C_1  and  C_2
REMARK    2  A    between atoms: C_2  and  O_3
REMARK    3  A    between atoms: O_3  and  C_4
REMARK    4  A    between atoms: C_6  and  C_13
REMARK    5  A    between atoms: C_9  and  C_10
REMARK    6  A    between atoms: C_13  and  C_14
REMARK    7  A    between atoms: N_16  and  C_17
REMARK    8  A    between atoms: C_17  and  C_19
REMARK    9  A    between atoms: C_17  and  C_23
REMARK   10  A    between atoms: C_19  and  C_20
REMARK   11  A    between atoms: C_20  and  C_21
REMARK   12  A    between atoms: C_20  and  C_22
REMARK   13  A    between atoms: C_28  and  N_29
REMARK   14  A    between atoms: C_33  and  O_36
REMARK                            x       y       z     vdW  Elec       q    Type
REMARK                         _______ _______ _______ _____ _____    ______ ____
ROOT
ATOM      1  C   UNL     1      -3.772  -6.414   0.559  0.00  0.00    +0.105 C 
ENDROOT
BRANCH   1   2
ATOM      2  C   UNL     1      -4.499  -6.910   1.782  0.00  0.00    -0.006 A 
ATOM      3  C   UNL     1      -3.786  -7.302   2.899  0.00  0.00    +0.007 A 
ATOM      4  C   UNL     1      -4.452  -7.758   4.021  0.00  0.00    +0.000 A 
ATOM      5  C   UNL     1      -5.833  -7.823   4.031  0.00  0.00    +0.002 A 
ATOM      6  C   UNL     1      -6.552  -7.433   2.919  0.00  0.00    +0.023 A 
ATOM      7  C   UNL     1      -5.886  -6.969   1.791  0.00  0.00    +0.035 A 
BRANCH   7   8
ATOM      8  N   UNL     1      -6.611  -6.569   0.666  0.00  0.00    -0.327 N 
ATOM      9  C   UNL     1      -6.957  -7.536  -0.385  0.00  0.00    +0.105 C 
ATOM     10  C   UNL     1      -8.469  -7.484  -0.624  0.00  0.00    +0.021 C 
ATOM     11  C   UNL     1      -8.883  -6.044  -0.934  0.00  0.00    +0.034 C 
ATOM     12  C   UNL     1      -8.553  -5.147   0.261  0.00  0.00    +0.132 C 
ATOM     13  C   UNL     1      -7.046  -5.174   0.513  0.00  0.00    +0.136 C 
BRANCH  12  14
ATOM     14  O   UNL     1      -8.968  -3.809  -0.017  0.00  0.00    -0.390 OA
ATOM     15  H   UNL     1      -9.916  -3.719  -0.187  0.00  0.00    +0.210 HD
ENDBRANCH  12  14
ENDBRANCH   7   8
ENDBRANCH   1   2
BRANCH   1  18
ATOM     16  C   UNL     1      -2.361  -4.590   1.345  0.00  0.00    +0.218 C 
ATOM     17  O   UNL     1      -3.345  -3.881   1.375  0.00  0.00    -0.275 OA
ATOM     18  N   UNL     1      -2.468  -5.874   0.951  0.00  0.00    -0.308 N 
ATOM     19  H   UNL     1      -1.681  -6.441   0.927  0.00  0.00    +0.149 HD
BRANCH  16  20
ATOM     20  C   UNL     1      -1.020  -4.034   1.749  0.00  0.00    +0.131 C 
BRANCH  20  23
ATOM     21  C   UNL     1      -1.589  -0.931   3.827  0.00  0.00    +0.135 A 
ATOM     22  C   UNL     1      -1.446  -2.260   3.456  0.00  0.00    +0.050 A 
ATOM     23  C   UNL     1      -1.173  -2.588   2.143  0.00  0.00    -0.035 A 
ATOM     24  C   UNL     1      -1.038  -1.595   1.186  0.00  0.00    +0.005 A 
ATOM     25  C   UNL     1      -1.176  -0.270   1.534  0.00  0.00    +0.019 A 
ATOM     26  C   UNL     1      -1.459   0.077   2.860  0.00  0.00    +0.105 A 
BRANCH  26  27
ATOM     27  C   UNL     1      -1.613   1.491   3.239  0.00  0.00    +0.390 C 
ATOM     28  O   UNL     1      -1.499   2.367   2.392  0.00  0.00    -0.240 OA
ATOM     29  O   UNL     1      -1.855   1.790   4.400  0.00  0.00    -0.240 OA
ENDBRANCH  26  27
BRANCH  21  30
ATOM     30  O   UNL     1      -1.858  -0.608   5.116  0.00  0.00    -0.491 OA
BRANCH  30  32
ATOM     31  C   UNL     1      -2.279  -1.133   7.437  0.00  0.00    +0.048 C 
ATOM     32  C   UNL     1      -1.976  -1.688   6.044  0.00  0.00    +0.226 C 
ENDBRANCH  30  32
ENDBRANCH  21  30
ENDBRANCH  20  23
ENDBRANCH  16  20
ENDBRANCH   1  18
BRANCH   1  33
ATOM     33  C   UNL     1      -3.571  -7.572  -0.420  0.00  0.00    +0.030 C 
BRANCH  33  34
ATOM     34  C   UNL     1      -2.946  -7.045  -1.713  0.00  0.00    -0.015 C 
ATOM     35  C   UNL     1      -2.630  -8.219  -2.642  0.00  0.00    +0.007 C 
ATOM     36  C   UNL     1      -3.928  -6.097  -2.404  0.00  0.00    +0.007 C 
ENDBRANCH  33  34
ENDBRANCH   1  33
TORSDOF 11
