REMARK  Name = ZINC24777488
REMARK  7 active torsions:
REMARK  status: ('A' for Active; 'I' for Inactive)
REMARK    1  A    between atoms: C_1  and  C_2
REMARK    2  A    between atoms: C_2  and  N_3
REMARK    3  A    between atoms: C_4  and  C_23
REMARK    4  A    between atoms: C_7  and  S_8
REMARK    5  A    between atoms: S_8  and  C_9
REMARK    6  A    between atoms: C_9  and  C_10
REMARK    7  A    between atoms: N_12  and  C_13
REMARK                            x       y       z     vdW  Elec       q    Type
REMARK                         _______ _______ _______ _____ _____    ______ ____
ROOT
ATOM      1  S   UNL     1      -1.088   5.264   0.586  0.00  0.00    -0.077 S 
ENDROOT
BRANCH   1   6
ATOM      2  N   UNL     1      -1.073   2.479   0.331  0.00  0.00    -0.302 N 
ATOM      3  C   UNL     1      -0.124   1.509   0.102  0.00  0.00    +0.165 A 
ATOM      4  N   UNL     1       1.030   2.122  -0.025  0.00  0.00    -0.128 NA
ATOM      5  N   UNL     1       0.872   3.389   0.112  0.00  0.00    -0.122 NA
ATOM      6  C   UNL     1      -0.394   3.664   0.336  0.00  0.00    +0.192 A 
BRANCH   3   7
ATOM      7  C   UNL     1      -0.360   0.053   0.009  0.00  0.00    +0.019 A 
ATOM      8  C   UNL     1      -1.533  -0.501   0.527  0.00  0.00    +0.013 A 
ATOM      9  C   UNL     1      -1.750  -1.860   0.434  0.00  0.00    +0.021 A 
ATOM     10  C   UNL     1      -0.803  -2.676  -0.162  0.00  0.00    +0.041 A 
ATOM     11  C   UNL     1       0.364  -2.133  -0.673  0.00  0.00    +0.021 A 
ATOM     12  C   UNL     1       0.590  -0.775  -0.590  0.00  0.00    +0.013 A 
ATOM     13 CL   UNL     1      -1.081  -4.386  -0.270  0.00  0.00    -0.084 Cl
ENDBRANCH   3   7
BRANCH   2  15
ATOM     14  C   UNL     1      -2.800   2.123   2.025  0.00  0.00    +0.027 C 
ATOM     15  C   UNL     1      -2.510   2.281   0.531  0.00  0.00    +0.122 C 
ENDBRANCH   2  15
ENDBRANCH   1   6
BRANCH   1  16
ATOM     16  C   UNL     1       0.404   6.279   0.442  0.00  0.00    +0.173 C 
BRANCH  16  17
ATOM     17  C   UNL     1       0.043   7.731   0.627  0.00  0.00    +0.228 C 
ATOM     18  O   UNL     1      -1.109   8.048   0.836  0.00  0.00    -0.275 OA
ATOM     19  N   UNL     1       1.001   8.677   0.561  0.00  0.00    -0.284 N 
ATOM     20  H   UNL     1       2.033   8.397   0.303  0.00  0.00    +0.155 HD
BRANCH  19  21
ATOM     21  C   UNL     1       0.682  10.017   0.821  0.00  0.00    +0.056 A 
ATOM     22  C   UNL     1      -0.309  10.329   1.741  0.00  0.00    +0.074 A 
ATOM     23  C   UNL     1      -0.624  11.652   1.997  0.00  0.00    +0.168 A 
ATOM     24  C   UNL     1       0.054  12.670   1.330  0.00  0.00    +0.168 A 
ATOM     25  C   UNL     1       1.043  12.355   0.412  0.00  0.00    +0.071 A 
ATOM     26  C   UNL     1       1.361  11.033   0.161  0.00  0.00    +0.066 A 
ATOM     27 CL   UNL     1       2.606  10.643  -0.985  0.00  0.00    -0.082 Cl
ATOM     28  O   UNL     1      -0.436  13.872   1.754  0.00  0.00    -0.453 OA
ATOM     29  C   UNL     1      -1.697  13.573   2.381  0.00  0.00    +0.466 C 
ATOM     30  O   UNL     1      -1.539  12.217   2.839  0.00  0.00    -0.453 OA
ENDBRANCH  19  21
ENDBRANCH  16  17
ENDBRANCH   1  16
TORSDOF 6
