REMARK  Name = ZINC12602562
REMARK  7 active torsions:
REMARK  status: ('A' for Active; 'I' for Inactive)
REMARK    1  A    between atoms: C_1  and  C_2
REMARK    2  A    between atoms: C_2  and  C_25
REMARK    3  A    between atoms: N_5  and  C_9
REMARK    4  A    between atoms: C_9  and  C_10
REMARK    5  A    between atoms: C_10  and  C_11
REMARK    6  A    between atoms: C_11  and  C_12
REMARK    7  A    between atoms: N_14  and  C_15
REMARK                            x       y       z     vdW  Elec       q    Type
REMARK                         _______ _______ _______ _____ _____    ______ ____
ROOT
ATOM      1  C   UNL     1      -0.018   1.503   0.010  0.00  0.00    +0.213 C 
ATOM      2  O   UNL     1      -1.077   2.095   0.018  0.00  0.00    -0.276 OA
ATOM      3  N   UNL     1       1.139   2.192   0.003  0.00  0.00    -0.310 N 
ATOM      4  H   UNL     1       1.986   1.719  -0.008  0.00  0.00    +0.149 HD
ENDROOT
BRANCH   3   5
ATOM      5  C   UNL     1       1.120   3.657   0.011  0.00  0.00    +0.035 C 
ATOM      6  C   UNL     1       0.380   4.164  -1.228  0.00  0.00    +0.029 C 
ATOM      7  C   UNL     1       0.359   5.694  -1.220  0.00  0.00    -0.008 C 
ATOM      8  C   UNL     1       1.794   6.224  -1.231  0.00  0.00    +0.007 C 
ATOM      9  C   UNL     1       2.534   5.717   0.009  0.00  0.00    -0.008 C 
ATOM     10  C   UNL     1       2.555   4.187   0.000  0.00  0.00    +0.029 C 
ATOM     11  C   UNL     1       1.818   6.210   1.267  0.00  0.00    +0.007 C 
ATOM     12  C   UNL     1       0.383   5.681   1.278  0.00  0.00    -0.008 C 
ATOM     13  C   UNL     1      -0.357   6.187   0.039  0.00  0.00    +0.007 C 
ATOM     14  C   UNL     1       0.404   4.151   1.270  0.00  0.00    +0.029 C 
ENDBRANCH   3   5
BRANCH   1  15
ATOM     15  C   UNL     1       0.002  -0.004   0.002  0.00  0.00    +0.097 C 
BRANCH  15  16
ATOM     16  C   UNL     1      -1.433  -0.534   0.013  0.00  0.00    +0.029 C 
BRANCH  16  17
ATOM     17  C   UNL     1      -1.413  -2.063   0.004  0.00  0.00    +0.118 C 
BRANCH  17  22
ATOM     18  C   UNL     1      -5.953  -2.409   1.158  0.00  0.00    +0.041 C 
ATOM     19  C   UNL     1      -4.839  -3.335   0.664  0.00  0.00    +0.107 C 
ATOM     20  C   UNL     1      -3.485  -2.844   1.135  0.00  0.00    +0.246 C 
ATOM     21  O   UNL     1      -3.108  -2.721   2.281  0.00  0.00    -0.273 OA
ATOM     22  N   UNL     1      -2.787  -2.571   0.015  0.00  0.00    -0.224 N 
ATOM     23  C   UNL     1      -3.502  -2.825  -1.087  0.00  0.00    +0.309 C 
ATOM     24  O   UNL     1      -3.085  -2.661  -2.216  0.00  0.00    -0.252 OA
ATOM     25  N   UNL     1      -4.735  -3.283  -0.804  0.00  0.00    -0.285 N 
ATOM     26  C   UNL     1      -5.081  -4.770   1.137  0.00  0.00    +0.041 C 
ATOM     27  H   UNL     1      -5.422  -3.532  -1.443  0.00  0.00    +0.151 HD
ENDBRANCH  17  22
ENDBRANCH  16  17
ENDBRANCH  15  16
ENDBRANCH   1  15
TORSDOF 5
