REMARK  Name = ZINC12550452
REMARK  10 active torsions:
REMARK  status: ('A' for Active; 'I' for Inactive)
REMARK    1  A    between atoms: C_1  and  N_2
REMARK    2  A    between atoms: C_6  and  C_7
REMARK    3  A    between atoms: C_7  and  C_9
REMARK    4  A    between atoms: C_7  and  N_17
REMARK    5  A    between atoms: C_13  and  O_15
REMARK    6  A    between atoms: O_15  and  C_16
REMARK    7  A    between atoms: N_17  and  C_18
REMARK    8  A    between atoms: C_21  and  S_27
REMARK    9  A    between atoms: C_23  and  N_24
REMARK   10  A    between atoms: S_27  and  C_30
REMARK                            x       y       z     vdW  Elec       q    Type
REMARK                         _______ _______ _______ _____ _____    ______ ____
ROOT
ATOM      1  N   UNL     1      -0.650   1.074   2.105  0.00  0.00    -0.329 N 
ATOM      2  H   UNL     1      -0.103   1.875   2.079  0.00  0.00    +0.147 HD
ENDROOT
BRANCH   1   3
ATOM      3  C   UNL     1      -1.997   1.161   2.463  0.00  0.00    +0.059 A 
ATOM      4  C   UNL     1      -2.812   0.039   2.382  0.00  0.00    +0.027 A 
ATOM      5  C   UNL     1      -4.144   0.127   2.737  0.00  0.00    +0.029 A 
ATOM      6  C   UNL     1      -4.666   1.331   3.173  0.00  0.00    +0.100 A 
ATOM      7  C   UNL     1      -3.858   2.450   3.255  0.00  0.00    +0.062 A 
ATOM      8  C   UNL     1      -2.523   2.367   2.907  0.00  0.00    +0.149 A 
BRANCH   8   9
ATOM      9  N   UNL     1      -1.657   3.563   3.000  0.00  0.00    +0.058 N 
ATOM     10  O   UNL     1      -0.510   3.452   3.366  0.00  0.00    -0.126 OA
ATOM     11  O   UNL     1      -2.097   4.652   2.712  0.00  0.00    -0.126 OA
ENDBRANCH   8   9
BRANCH   6  12
ATOM     12  S   UNL     1      -6.366   1.440   3.625  0.00  0.00    +0.091 S 
ATOM     13  O   UNL     1      -6.710   2.803   3.417  0.00  0.00    -0.161 OA
ATOM     14  O   UNL     1      -7.005   0.411   2.883  0.00  0.00    -0.161 OA
BRANCH  12  15
ATOM     15  C   UNL     1      -6.403   1.050   5.396  0.00  0.00    +0.526 C 
ATOM     16  F   UNL     1      -5.621   1.976   6.094  0.00  0.00    -0.150 F 
ATOM     17  F   UNL     1      -7.722   1.109   5.859  0.00  0.00    -0.150 F 
ATOM     18  F   UNL     1      -5.895  -0.237   5.600  0.00  0.00    -0.150 F 
ENDBRANCH  12  15
ENDBRANCH   6  12
ENDBRANCH   1   3
BRANCH   1  19
ATOM     19  C   UNL     1      -0.063  -0.226   1.770  0.00  0.00    +0.166 C 
BRANCH  19  25
ATOM     20  C   UNL     1      -0.568   1.835  -0.488  0.00  0.00    +0.150 C 
ATOM     21  N   UNL     1      -0.538   0.380  -0.654  0.00  0.00    -0.337 N 
ATOM     22  C   UNL     1      -0.720  -0.308  -1.823  0.00  0.00    +0.104 A 
ATOM     23  C   UNL     1      -0.612  -1.617  -1.525  0.00  0.00    +0.102 A 
ATOM     24  N   UNL     1      -0.370  -1.725  -0.210  0.00  0.00    -0.348 N 
ATOM     25  C   UNL     1      -0.319  -0.533   0.317  0.00  0.00    +0.112 A 
ATOM     26  H   UNL     1      -0.248  -2.558   0.271  0.00  0.00    +0.167 HD
ENDBRANCH  19  25
BRANCH  19  27
ATOM     27  C   UNL     1       1.423  -0.185   2.021  0.00  0.00    -0.017 A 
ATOM     28  C   UNL     1       2.148   0.946   1.694  0.00  0.00    +0.006 A 
ATOM     29  C   UNL     1       3.511   0.986   1.923  0.00  0.00    +0.004 A 
ATOM     30  C   UNL     1       4.152  -0.105   2.478  0.00  0.00    +0.045 A 
ATOM     31  C   UNL     1       3.426  -1.241   2.806  0.00  0.00    +0.120 A 
ATOM     32  C   UNL     1       2.058  -1.277   2.581  0.00  0.00    +0.051 A 
BRANCH  31  33
ATOM     33  O   UNL     1       4.054  -2.316   3.352  0.00  0.00    -0.495 OA
ATOM     34  C   UNL     1       5.464  -2.207   3.560  0.00  0.00    +0.277 C 
ENDBRANCH  31  33
ENDBRANCH  19  27
ENDBRANCH   1  19
TORSDOF 8
