REMARK  Name = ZINC17322646
REMARK  10 active torsions:
REMARK  status: ('A' for Active; 'I' for Inactive)
REMARK    1  A    between atoms: C_1  and  C_2
REMARK    2  A    between atoms: C_2  and  C_3
REMARK    3  A    between atoms: C_3  and  C_4
REMARK    4  A    between atoms: C_4  and  C_5
REMARK    5  A    between atoms: C_5  and  N_6
REMARK    6  A    between atoms: C_7  and  C_9
REMARK    7  A    between atoms: C_11  and  S_16
REMARK    8  A    between atoms: S_16  and  N_19
REMARK    9  A    between atoms: N_19  and  C_20
REMARK   10  A    between atoms: C_22  and  C_27
REMARK                            x       y       z     vdW  Elec       q    Type
REMARK                         _______ _______ _______ _____ _____    ______ ____
ROOT
ATOM      1  C   UNL     1      -2.456  -1.162  -4.567  0.00  0.00    +0.057 A 
ATOM      2  C   UNL     1      -2.666  -1.164  -3.186  0.00  0.00    +0.043 A 
ATOM      3  C   UNL     1      -2.288  -0.073  -2.432  0.00  0.00    +0.109 A 
ATOM      4  C   UNL     1      -1.706   1.025  -3.041  0.00  0.00    +0.030 A 
ATOM      5  C   UNL     1      -1.489   1.034  -4.406  0.00  0.00    +0.022 A 
ATOM      6  C   UNL     1      -1.863  -0.052  -5.174  0.00  0.00    +0.053 A 
ATOM      7 CL   UNL     1      -1.597  -0.038  -6.890  0.00  0.00    -0.083 Cl
ENDROOT
BRANCH   1   9
ATOM      8  N   UNL     1      -3.430  -3.396  -4.791  0.00  0.00    -0.311 N 
ATOM      9  C   UNL     1      -2.858  -2.327  -5.381  0.00  0.00    +0.246 C 
ATOM     10  O   UNL     1      -2.674  -2.322  -6.582  0.00  0.00    -0.270 OA
ATOM     11  H   UNL     1      -3.577  -3.400  -3.833  0.00  0.00    +0.149 HD
BRANCH   8  12
ATOM     12  C   UNL     1      -3.829  -4.552  -5.598  0.00  0.00    +0.104 C 
BRANCH  12  13
ATOM     13  C   UNL     1      -4.447  -5.618  -4.692  0.00  0.00    +0.019 C 
BRANCH  13  14
ATOM     14  C   UNL     1      -4.864  -6.825  -5.535  0.00  0.00    +0.001 C 
BRANCH  14  16
ATOM     15  C   UNL     1      -5.898  -9.098  -5.471  0.00  0.00    +0.004 C 
ATOM     16  C   UNL     1      -5.482  -7.891  -4.628  0.00  0.00    -0.003 C 
ENDBRANCH  14  16
ENDBRANCH  13  14
ENDBRANCH  12  13
ENDBRANCH   8  12
ENDBRANCH   1   9
BRANCH   3  17
ATOM     17  S   UNL     1      -2.552  -0.075  -0.690  0.00  0.00    +0.072 S 
ATOM     18  O   UNL     1      -3.612  -0.989  -0.441  0.00  0.00    -0.150 OA
ATOM     19  O   UNL     1      -2.609   1.286  -0.286  0.00  0.00    -0.150 OA
BRANCH  17  20
ATOM     20  N   UNL     1      -1.197  -0.721   0.010  0.00  0.00    -0.215 N 
ATOM     21  H   UNL     1      -1.265  -1.528   0.544  0.00  0.00    +0.174 HD
BRANCH  20  22
ATOM     22  C   UNL     1       0.043  -0.103  -0.168  0.00  0.00    +0.062 A 
ATOM     23  C   UNL     1       0.128   1.282  -0.236  0.00  0.00    +0.029 A 
ATOM     24  C   UNL     1       1.355   1.889  -0.412  0.00  0.00    -0.049 A 
ATOM     25  C   UNL     1       2.500   1.121  -0.521  0.00  0.00    +0.004 A 
ATOM     26  C   UNL     1       2.420  -0.258  -0.454  0.00  0.00    +0.017 A 
ATOM     27  C   UNL     1       1.195  -0.872  -0.278  0.00  0.00    +0.040 A 
ATOM     28 BR   UNL     1       1.087  -2.758  -0.185  0.00  0.00    -0.048 Br
ATOM     29  C   UNL     1       1.448   3.392  -0.487  0.00  0.00    +0.044 C 
ENDBRANCH  20  22
ENDBRANCH  17  20
ENDBRANCH   3  17
TORSDOF 8
