REMARK  Name = ZINC35696872
REMARK  11 active torsions:
REMARK  status: ('A' for Active; 'I' for Inactive)
REMARK    1  A    between atoms: C_1  and  C_2
REMARK    2  A    between atoms: C_3  and  C_30
REMARK    3  A    between atoms: C_4  and  C_24
REMARK    4  A    between atoms: C_7  and  C_12
REMARK    5  A    between atoms: C_13  and  N_15
REMARK    6  A    between atoms: N_15  and  C_16
REMARK    7  A    between atoms: C_16  and  C_17
REMARK    8  A    between atoms: C_17  and  C_18
REMARK    9  A    between atoms: C_30  and  O_32
REMARK   10  A    between atoms: O_32  and  C_33
REMARK   11  A    between atoms: C_33  and  C_34
REMARK                            x       y       z     vdW  Elec       q    Type
REMARK                         _______ _______ _______ _____ _____    ______ ____
ROOT
ATOM      1  C   UNL     1       0.091   1.699   0.841  0.00  0.00    +0.066 C 
ATOM      2  C   UNL     1       0.023   0.197   0.734  0.00  0.00    +0.053 C 
ATOM      3  C   UNL     1      -1.192  -0.420   0.507  0.00  0.00    +0.082 C 
ATOM      4  C   UNL     1      -1.209  -1.929   0.408  0.00  0.00    +0.150 C 
ATOM      5  N   UNL     1       0.093  -2.632   0.562  0.00  0.00    -0.267 N 
ATOM      6  C   UNL     1       0.314  -3.994   0.508  0.00  0.00    +0.048 C 
ATOM      7  C   UNL     1       1.582  -4.430   0.674  0.00  0.00    +0.072 C 
ATOM      8  S   UNL     1       2.470  -2.903   0.909  0.00  0.00    -0.060 S 
ATOM      9  C   UNL     1       1.182  -1.835   0.781  0.00  0.00    +0.166 C 
ATOM     10  N   UNL     1       1.128  -0.521   0.852  0.00  0.00    -0.230 NA
ENDROOT
BRANCH   4  11
ATOM     11  C   UNL     1      -2.146  -2.454   1.464  0.00  0.00    -0.022 A 
ATOM     12  C   UNL     1      -1.765  -2.446   2.793  0.00  0.00    +0.006 A 
ATOM     13  C   UNL     1      -2.625  -2.928   3.762  0.00  0.00    +0.000 A 
ATOM     14  C   UNL     1      -3.867  -3.416   3.403  0.00  0.00    +0.000 A 
ATOM     15  C   UNL     1      -4.249  -3.422   2.074  0.00  0.00    +0.000 A 
ATOM     16  C   UNL     1      -3.391  -2.937   1.105  0.00  0.00    +0.006 A 
ENDBRANCH   4  11
BRANCH   6  17
ATOM     17  C   UNL     1      -0.791  -4.935   0.278  0.00  0.00    +0.091 C 
ATOM     18  C   UNL     1      -0.574  -6.262   0.360  0.00  0.00    +0.239 C 
ATOM     19  O   UNL     1       0.684  -6.732   0.545  0.00  0.00    -0.271 OA
BRANCH  18  20
ATOM     20  N   UNL     1      -1.635  -7.145   0.255  0.00  0.00    -0.311 N 
ATOM     21  H   UNL     1      -2.523  -6.814   0.050  0.00  0.00    +0.149 HD
BRANCH  20  22
ATOM     22  C   UNL     1      -1.416  -8.580   0.454  0.00  0.00    +0.110 C 
BRANCH  22  23
ATOM     23  C   UNL     1      -2.712  -9.339   0.162  0.00  0.00    +0.074 C 
BRANCH  23  24
ATOM     24  C   UNL     1      -2.522 -10.799   0.484  0.00  0.00    +0.043 A 
ATOM     25  C   UNL     1      -3.374 -11.417   1.380  0.00  0.00    +0.023 A 
ATOM     26  C   UNL     1      -3.192 -12.761   1.669  0.00  0.00    +0.003 A 
ATOM     27  C   UNL     1      -2.154 -13.435   1.044  0.00  0.00    +0.020 A 
ATOM     28  C   UNL     1      -1.342 -12.751   0.160  0.00  0.00    +0.111 A 
ATOM     29  N   UNL     1      -1.549 -11.473  -0.096  0.00  0.00    -0.260 NA
ENDBRANCH  23  24
ENDBRANCH  22  23
ENDBRANCH  20  22
ENDBRANCH  18  20
ENDBRANCH   6  17
BRANCH   3  30
ATOM     30  C   UNL     1      -2.369   0.326   0.375  0.00  0.00    +0.339 C 
ATOM     31  O   UNL     1      -2.352   1.530   0.566  0.00  0.00    -0.245 OA
BRANCH  30  32
ATOM     32  O   UNL     1      -3.524  -0.288   0.036  0.00  0.00    -0.457 OA
BRANCH  32  33
ATOM     33  C   UNL     1      -4.661   0.548  -0.190  0.00  0.00    +0.268 C 
BRANCH  33  34
ATOM     34  C   UNL     1      -5.875  -0.311  -0.436  0.00  0.00    -0.010 A 
ATOM     35  C   UNL     1      -6.135  -0.792  -1.705  0.00  0.00    +0.007 A 
ATOM     36  C   UNL     1      -7.249  -1.580  -1.931  0.00  0.00    +0.000 A 
ATOM     37  C   UNL     1      -8.101  -1.887  -0.887  0.00  0.00    +0.000 A 
ATOM     38  C   UNL     1      -7.840  -1.406   0.383  0.00  0.00    +0.000 A 
ATOM     39  C   UNL     1      -6.725  -0.622   0.609  0.00  0.00    +0.007 A 
ENDBRANCH  33  34
ENDBRANCH  32  33
ENDBRANCH  30  32
ENDBRANCH   3  30
TORSDOF 10
