REMARK  Name = ZINC67638769
REMARK  6 active torsions:
REMARK  status: ('A' for Active; 'I' for Inactive)
REMARK    1  A    between atoms: C_3  and  N_26
REMARK    2  A    between atoms: C_6  and  C_7
REMARK    3  A    between atoms: C_7  and  O_9
REMARK    4  A    between atoms: O_9  and  C_10
REMARK    5  A    between atoms: C_13  and  O_16
REMARK    6  A    between atoms: O_16  and  C_17
REMARK                            x       y       z     vdW  Elec       q    Type
REMARK                         _______ _______ _______ _____ _____    ______ ____
ROOT
ATOM      1  O   UNL     1      -0.902  -3.159  -0.200  0.00  0.00    -0.422 OA
ENDROOT
BRANCH   1   2
ATOM      2  C   UNL     1      -2.122  -3.665   0.123  0.00  0.00    +0.132 A 
ATOM      3  C   UNL     1      -3.268  -2.927  -0.132  0.00  0.00    +0.050 A 
ATOM      4  C   UNL     1      -4.508  -3.440   0.196  0.00  0.00    +0.049 A 
ATOM      5  C   UNL     1      -4.607  -4.694   0.780  0.00  0.00    +0.122 A 
ATOM      6  C   UNL     1      -3.460  -5.433   1.035  0.00  0.00    +0.049 A 
ATOM      7  C   UNL     1      -2.221  -4.922   0.702  0.00  0.00    +0.050 A 
BRANCH   5   8
ATOM      8  O   UNL     1      -5.827  -5.200   1.103  0.00  0.00    -0.480 OA
BRANCH   8   9
ATOM      9  C   UNL     1      -6.953  -4.338   0.926  0.00  0.00    +0.259 C 
ATOM     10  C   UNL     1      -8.093  -4.787   1.845  0.00  0.00    +0.054 C 
ATOM     11  C   UNL     1      -8.107  -6.298   1.985  0.00  0.00    +0.006 C 
ATOM     12  C   UNL     1      -8.457  -7.029   0.702  0.00  0.00    +0.019 C 
ATOM     13  C   UNL     1      -7.360  -6.845  -0.348  0.00  0.00    +0.104 C 
ATOM     14  N   UNL     1      -7.622  -5.601  -1.090  0.00  0.00    -0.312 N 
ATOM     15  C   UNL     1      -7.430  -4.412  -0.509  0.00  0.00    +0.254 C 
ATOM     16  O   UNL     1      -7.643  -3.391  -1.128  0.00  0.00    -0.272 OA
ATOM     17  H   UNL     1      -7.933  -5.643  -2.007  0.00  0.00    +0.149 HD
ENDBRANCH   8   9
ENDBRANCH   5   8
ENDBRANCH   1   2
BRANCH   1  18
ATOM     18  C   UNL     1      -0.295  -3.630  -1.307  0.00  0.00    +0.344 C 
ATOM     19  O   UNL     1      -0.863  -4.438  -2.015  0.00  0.00    -0.245 OA
BRANCH  18  25
ATOM     20  C   UNL     1       1.690  -3.651  -2.809  0.00  0.00    +0.017 A 
ATOM     21  C   UNL     1       2.953  -3.214  -3.135  0.00  0.00    +0.024 A 
ATOM     22  C   UNL     1       3.603  -2.288  -2.324  0.00  0.00    +0.035 A 
ATOM     23  C   UNL     1       2.977  -1.801  -1.180  0.00  0.00    +0.024 A 
ATOM     24  C   UNL     1       1.714  -2.234  -0.847  0.00  0.00    +0.017 A 
ATOM     25  C   UNL     1       1.059  -3.164  -1.660  0.00  0.00    +0.060 A 
BRANCH  22  26
ATOM     26  N   UNL     1       4.882  -1.848  -2.658  0.00  0.00    -0.270 N 
ATOM     27  C   UNL     1       5.233  -1.714  -3.952  0.00  0.00    +0.301 C 
ATOM     28  O   UNL     1       4.407  -1.889  -4.827  0.00  0.00    -0.253 OA
ATOM     29  N   UNL     1       6.499  -1.385  -4.277  0.00  0.00    -0.313 N 
ATOM     30  H   UNL     1       5.521  -1.638  -1.958  0.00  0.00    +0.156 HD
ATOM     31  H   UNL     1       7.158  -1.245  -3.579  0.00  0.00    +0.146 HD
ATOM     32  H   UNL     1       6.751  -1.288  -5.209  0.00  0.00    +0.146 HD
ENDBRANCH  22  26
ENDBRANCH  18  25
ENDBRANCH   1  18
TORSDOF 6
