REMARK  Name = ZINC40453703
REMARK  6 active torsions:
REMARK  status: ('A' for Active; 'I' for Inactive)
REMARK    1  A    between atoms: C_1  and  C_2
REMARK    2  A    between atoms: C_11  and  N_13
REMARK    3  A    between atoms: N_13  and  C_14
REMARK    4  A    between atoms: C_14  and  C_16
REMARK    5  A    between atoms: C_14  and  C_17
REMARK    6  A    between atoms: C_21  and  O_23
REMARK                            x       y       z     vdW  Elec       q    Type
REMARK                         _______ _______ _______ _____ _____    ______ ____
ROOT
ATOM      1  N   UNL     1      -1.147  -3.353   2.910  0.00  0.00    +0.394 N 
ATOM      2  H   UNL     1      -1.968  -2.773   2.831  0.00  0.00    -0.083 HD
ATOM      3  H   UNL     1      -1.210  -4.118   2.255  0.00  0.00    -0.083 HD
ENDROOT
BRANCH   1  14
ATOM      4  C   UNL     1      -0.018   1.503   0.010  0.00  0.00    +0.045 C 
ATOM      5  C   UNL     1       0.002  -0.004   0.002  0.00  0.00    -0.029 A 
ATOM      6  C   UNL     1       0.006  -0.686  -1.198  0.00  0.00    +0.005 A 
ATOM      7  C   UNL     1       0.024  -2.068  -1.216  0.00  0.00    +0.001 A 
ATOM      8  C   UNL     1       0.039  -2.773  -0.024  0.00  0.00    +0.004 A 
ATOM      9  C   UNL     1       0.036  -2.095   1.174  0.00  0.00    -0.031 A 
ATOM     10  C   UNL     1       0.023  -0.706   1.206  0.00  0.00    +0.038 A 
ATOM     11  N   UNL     1       0.029  -0.253   2.525  0.00  0.00    -0.286 N 
ATOM     12  C   UNL     1       0.052  -1.264   3.410  0.00  0.00    +0.208 C 
ATOM     13  O   UNL     1       0.062  -1.164   4.619  0.00  0.00    -0.277 OA
ATOM     14  C   UNL     1       0.049  -2.553   2.614  0.00  0.00    +0.050 C 
ATOM     15  H   UNL     1       0.019   0.684   2.776  0.00  0.00    +0.155 HD
ENDBRANCH   1  14
BRANCH   1  16
ATOM     16  C   UNL     1      -1.054  -3.885   4.277  0.00  0.00    -0.042 C 
ATOM     17  C   UNL     1       0.120  -4.863   4.364  0.00  0.00    -0.009 C 
BRANCH  16  18
ATOM     18  C   UNL     1      -2.333  -4.603   4.624  0.00  0.00    -0.058 A 
ATOM     19  C   UNL     1      -2.959  -5.395   3.679  0.00  0.00    +0.002 A 
ATOM     20  C   UNL     1      -4.133  -6.054   3.995  0.00  0.00    +0.004 A 
ATOM     21  C   UNL     1      -4.682  -5.923   5.256  0.00  0.00    +0.045 A 
ATOM     22  C   UNL     1      -4.056  -5.130   6.205  0.00  0.00    +0.117 A 
ATOM     23  C   UNL     1      -2.875  -4.473   5.888  0.00  0.00    +0.047 A 
BRANCH  22  24
ATOM     24  O   UNL     1      -4.594  -4.999   7.446  0.00  0.00    -0.507 OA
ATOM     25  H   UNL     1      -4.284  -5.660   8.081  0.00  0.00    +0.292 HD
ENDBRANCH  22  24
ENDBRANCH  16  18
ENDBRANCH   1  16
TORSDOF 4
