REMARK  Name = ZINC32752762
REMARK  10 active torsions:
REMARK  status: ('A' for Active; 'I' for Inactive)
REMARK    1  A    between atoms: C_1  and  C_2
REMARK    2  A    between atoms: C_3  and  C_12
REMARK    3  A    between atoms: C_12  and  C_13
REMARK    4  A    between atoms: C_13  and  C_14
REMARK    5  A    between atoms: C_14  and  O_16
REMARK    6  A    between atoms: O_16  and  C_17
REMARK    7  A    between atoms: C_17  and  C_18
REMARK    8  A    between atoms: N_20  and  C_21
REMARK    9  A    between atoms: N_20  and  C_22
REMARK   10  A    between atoms: C_22  and  C_29
REMARK                            x       y       z     vdW  Elec       q    Type
REMARK                         _______ _______ _______ _____ _____    ______ ____
ROOT
ATOM      1  C   UNL     1      -0.408  -2.773  -1.068  0.00  0.00    +0.254 C 
ATOM      2  O   UNL     1      -0.099  -2.087  -2.019  0.00  0.00    -0.272 OA
ATOM      3  N   UNL     1      -1.009  -2.213   0.000  0.00  0.00    -0.285 N 
ATOM      4  C   UNL     1      -1.382  -3.041   1.149  0.00  0.00    +0.133 C 
ENDROOT
BRANCH   3   5
ATOM      5  C   UNL     1      -1.290  -0.775   0.012  0.00  0.00    +0.122 C 
ATOM      6  C   UNL     1      -2.204  -0.439   1.195  0.00  0.00    +0.038 C 
ATOM      7  C   UNL     1      -3.566  -1.104   0.988  0.00  0.00    +0.003 C 
ATOM      8  C   UNL     1      -4.242  -0.536  -0.260  0.00  0.00    +0.008 C 
ATOM      9  C   UNL     1      -3.402  -0.879  -1.495  0.00  0.00    +0.077 C 
ATOM     10  C   UNL     1      -1.991  -0.384  -1.270  0.00  0.00    +0.161 C 
ATOM     11  O   UNL     1      -1.439   0.307  -2.092  0.00  0.00    -0.295 OA
BRANCH   5  12
ATOM     12  C   UNL     1       0.002  -0.008   0.137  0.00  0.00    +0.002 A 
ATOM     13  C   UNL     1       1.203  -0.686   0.220  0.00  0.00    +0.007 A 
ATOM     14  C   UNL     1       2.388   0.017   0.335  0.00  0.00    +0.000 A 
ATOM     15  C   UNL     1       2.371   1.399   0.367  0.00  0.00    +0.001 A 
ATOM     16  C   UNL     1       1.171   2.078   0.284  0.00  0.00    +0.020 A 
ATOM     17  C   UNL     1      -0.015   1.375   0.169  0.00  0.00    +0.047 A 
ATOM     18 CL   UNL     1      -1.523   2.228   0.058  0.00  0.00    -0.083 Cl
ENDBRANCH   5  12
ENDBRANCH   3   5
BRANCH   1  19
ATOM     19  C   UNL     1      -0.119  -4.252  -1.080  0.00  0.00    +0.327 C 
BRANCH  19  20
ATOM     20  O   UNL     1       0.528  -4.609  -2.330  0.00  0.00    -0.455 OA
BRANCH  20  21
ATOM     21  C   UNL     1       0.854  -5.900  -2.501  0.00  0.00    +0.308 C 
ATOM     22  O   UNL     1       0.607  -6.705  -1.635  0.00  0.00    -0.251 OA
BRANCH  21  23
ATOM     23  C   UNL     1       1.527  -6.345  -3.774  0.00  0.00    +0.125 C 
BRANCH  23  24
ATOM     24  C   UNL     1       1.788  -7.851  -3.713  0.00  0.00    +0.053 C 
BRANCH  24  27
ATOM     25  C   UNL     1       4.649  -8.048  -3.848  0.00  0.00    +0.064 C 
ATOM     26  C   UNL     1       3.807  -8.389  -5.051  0.00  0.00    +0.026 A 
ATOM     27  C   UNL     1       2.462  -8.296  -4.986  0.00  0.00    +0.036 A 
ATOM     28  C   UNL     1       1.692  -8.616  -6.130  0.00  0.00    +0.257 A 
ATOM     29  O   UNL     1       0.478  -8.535  -6.097  0.00  0.00    -0.267 OA
ATOM     30  N   UNL     1       2.317  -9.012  -7.258  0.00  0.00    -0.275 N 
ATOM     31  H   UNL     1       1.730  -9.263  -8.153  0.00  0.00    +0.173 HD
ATOM     32  C   UNL     1       3.660  -9.101  -7.293  0.00  0.00    +0.327 A 
ATOM     33  O   UNL     1       4.210  -9.459  -8.317  0.00  0.00    -0.247 OA
ATOM     34  N   UNL     1       4.402  -8.799  -6.213  0.00  0.00    -0.311 N 
ATOM     35  H   UNL     1       5.497  -8.885  -6.269  0.00  0.00    +0.170 HD
ENDBRANCH  24  27
ENDBRANCH  23  24
ENDBRANCH  21  23
ENDBRANCH  20  21
ENDBRANCH  19  20
ENDBRANCH   1  19
TORSDOF 8
