REMARK  Name = ZINC06404623
REMARK  4 active torsions:
REMARK  status: ('A' for Active; 'I' for Inactive)
REMARK    1  A    between atoms: C_1  and  C_2
REMARK    2  A    between atoms: C_5  and  C_8
REMARK    3  A    between atoms: C_10  and  C_13
REMARK    4  A    between atoms: C_19  and  C_26
REMARK                            x       y       z     vdW  Elec       q    Type
REMARK                         _______ _______ _______ _____ _____    ______ ____
ROOT
ATOM      1  C   UNL     1       4.458   2.230   0.448  0.00  0.00    +0.098 C 
ATOM      2  C   UNL     1       3.942   0.965  -0.212  0.00  0.00    +0.079 C 
ATOM      3  N   UNL     1       4.710   0.200  -0.916  0.00  0.00    -0.390 N 
ATOM      4  N   UNL     1       2.601   0.677  -0.013  0.00  0.00    -0.298 N 
ATOM      5  C   UNL     1       1.714   1.735  -0.005  0.00  0.00    +0.091 C 
ATOM      6  C   UNL     1       2.142   3.021  -0.002  0.00  0.00    +0.065 C 
ATOM      7  C   UNL     1       3.596   3.400  -0.040  0.00  0.00    +0.022 C 
ATOM      8  C   UNL     1       3.834   4.611   0.866  0.00  0.00    +0.013 C 
ATOM      9  C   UNL     1       5.316   4.989   0.830  0.00  0.00    +0.001 C 
ATOM     10  C   UNL     1       5.720   5.339  -0.604  0.00  0.00    +0.000 C 
ATOM     11  C   UNL     1       5.478   4.132  -1.511  0.00  0.00    +0.001 C 
ATOM     12  C   UNL     1       3.996   3.754  -1.475  0.00  0.00    +0.013 C 
ATOM     13  S   UNL     1      -0.017   1.406   0.010  0.00  0.00    -0.034 SA
ATOM     14  H   UNL     1       4.304  -0.710  -1.381  0.00  0.00    +0.157 HD
ATOM     15  H   UNL     1       2.278  -0.365   0.130  0.00  0.00    +0.154 HD
ATOM     16  H   UNL     1       5.771   0.459  -1.049  0.00  0.00    +0.157 HD
ENDROOT
BRANCH   1  19
ATOM     17  C   UNL     1       4.992   2.041   4.220  0.00  0.00    -0.011 A 
ATOM     18  C   UNL     1       5.326   2.188   2.877  0.00  0.00    +0.020 A 
ATOM     19  C   UNL     1       4.349   2.105   1.945  0.00  0.00    +0.001 A 
ATOM     20  S   UNL     1       2.898   1.820   2.943  0.00  0.00    -0.100 S 
ATOM     21  C   UNL     1       3.684   1.818   4.546  0.00  0.00    +0.054 A 
BRANCH  17  26
ATOM     22  C   UNL     1       9.033   2.365   8.311  0.00  0.00    +0.044 C 
ATOM     23  C   UNL     1       7.975   2.280   7.241  0.00  0.00    -0.050 A 
ATOM     24  C   UNL     1       6.656   2.054   7.591  0.00  0.00    +0.004 A 
ATOM     25  C   UNL     1       5.684   1.976   6.615  0.00  0.00    +0.009 A 
ATOM     26  C   UNL     1       6.033   2.125   5.274  0.00  0.00    -0.017 A 
ATOM     27  C   UNL     1       7.364   2.347   4.926  0.00  0.00    +0.009 A 
ATOM     28  C   UNL     1       8.328   2.428   5.911  0.00  0.00    +0.004 A 
ENDBRANCH  17  26
ENDBRANCH   1  19
BRANCH   6  29
ATOM     29  C   UNL     1       1.165   4.067   0.039  0.00  0.00    +0.098 C 
ATOM     30  N   UNL     1       0.389   4.896   0.072  0.00  0.00    -0.191 NA
ENDBRANCH   6  29
TORSDOF 3
