REMARK  Name = ZINC38670474
REMARK  12 active torsions:
REMARK  status: ('A' for Active; 'I' for Inactive)
REMARK    1  A    between atoms: C_1  and  N_2
REMARK    2  A    between atoms: C_10  and  C_12
REMARK    3  A    between atoms: C_12  and  C_14
REMARK    4  A    between atoms: C_12  and  N_30
REMARK    5  A    between atoms: C_14  and  N_15
REMARK    6  A    between atoms: C_16  and  C_18
REMARK    7  A    between atoms: C_21  and  O_28
REMARK    8  A    between atoms: C_22  and  O_26
REMARK    9  A    between atoms: C_23  and  O_24
REMARK   10  A    between atoms: O_24  and  C_25
REMARK   11  A    between atoms: O_26  and  C_27
REMARK   12  A    between atoms: O_28  and  C_29
REMARK                            x       y       z     vdW  Elec       q    Type
REMARK                         _______ _______ _______ _____ _____    ______ ____
ROOT
ATOM      1  C   UNL     1       4.927  -2.746  -0.486  0.00  0.00    -0.020 C 
ENDROOT
BRANCH   1  11
ATOM      2  C   UNL     1       0.100   1.470   0.744  0.00  0.00    +0.129 C 
ATOM      3  N   UNL     1       0.079   0.023   0.518  0.00  0.00    -0.333 N 
ATOM      4  C   UNL     1      -1.189  -0.718   0.543  0.00  0.00    +0.105 C 
ATOM      5  C   UNL     1      -0.970  -1.996   1.364  0.00  0.00    +0.024 C 
ATOM      6  C   UNL     1       0.068  -2.866   0.654  0.00  0.00    +0.038 C 
ATOM      7  C   UNL     1       1.301  -2.062   0.335  0.00  0.00    -0.026 A 
ATOM      8  C   UNL     1       1.266  -0.676   0.271  0.00  0.00    +0.033 A 
ATOM      9  C   UNL     1       2.420   0.037  -0.037  0.00  0.00    +0.023 A 
ATOM     10  C   UNL     1       3.602  -0.633  -0.282  0.00  0.00    +0.004 A 
ATOM     11  C   UNL     1       3.636  -2.014  -0.220  0.00  0.00    -0.059 A 
ATOM     12  C   UNL     1       2.491  -2.727   0.096  0.00  0.00    +0.007 A 
ENDBRANCH   1  11
BRANCH   1  13
ATOM     13  N   UNL     1       6.041  -2.014   0.132  0.00  0.00    +0.385 N 
ATOM     14  C   UNL     1       5.839  -1.918   1.600  0.00  0.00    -0.078 C 
ATOM     15  C   UNL     1       7.269  -1.665   2.139  0.00  0.00    -0.020 C 
ATOM     16  C   UNL     1       8.146  -2.545   1.218  0.00  0.00    -0.020 C 
ATOM     17  C   UNL     1       7.305  -2.759  -0.053  0.00  0.00    -0.078 C 
ATOM     18  H   UNL     1       6.118  -1.092  -0.271  0.00  0.00    -0.081 HD
ENDBRANCH   1  13
BRANCH   1  19
ATOM     19  C   UNL     1       5.156  -2.845  -1.995  0.00  0.00    +0.094 C 
BRANCH  19  20
ATOM     20  N   UNL     1       4.115  -3.685  -2.593  0.00  0.00    -0.312 N 
ATOM     21  C   UNL     1       4.051  -3.827  -3.932  0.00  0.00    +0.248 C 
ATOM     22  O   UNL     1       4.856  -3.257  -4.644  0.00  0.00    -0.270 OA
ATOM     23  H   UNL     1       3.473  -4.139  -2.026  0.00  0.00    +0.149 HD
BRANCH  21  24
ATOM     24  C   UNL     1       3.004  -4.672  -4.533  0.00  0.00    +0.082 A 
ATOM     25  C   UNL     1       2.074  -5.324  -3.718  0.00  0.00    +0.020 A 
ATOM     26  C   UNL     1       1.097  -6.112  -4.281  0.00  0.00    +0.050 A 
ATOM     27  C   UNL     1       1.030  -6.266  -5.662  0.00  0.00    +0.165 A 
ATOM     28  C   UNL     1       1.949  -5.623  -6.483  0.00  0.00    +0.204 A 
ATOM     29  C   UNL     1       2.934  -4.821  -5.926  0.00  0.00    +0.177 A 
BRANCH  29  30
ATOM     30  O   UNL     1       3.830  -4.187  -6.725  0.00  0.00    -0.491 OA
ATOM     31  C   UNL     1       5.033  -4.892  -7.038  0.00  0.00    +0.277 C 
ENDBRANCH  29  30
BRANCH  28  32
ATOM     32  O   UNL     1       1.879  -5.777  -7.834  0.00  0.00    -0.488 OA
ATOM     33  C   UNL     1       1.073  -4.841  -8.553  0.00  0.00    +0.277 C 
ENDBRANCH  28  32
BRANCH  27  34
ATOM     34  O   UNL     1       0.063  -7.047  -6.209  0.00  0.00    -0.491 OA
ATOM     35  C   UNL     1      -0.849  -7.679  -5.308  0.00  0.00    +0.277 C 
ENDBRANCH  27  34
ENDBRANCH  21  24
ENDBRANCH  19  20
ENDBRANCH   1  19
TORSDOF 8
