REMARK  Name = ZINC39464858
REMARK  8 active torsions:
REMARK  status: ('A' for Active; 'I' for Inactive)
REMARK    1  A    between atoms: C_1  and  C_2
REMARK    2  A    between atoms: C_2  and  C_3
REMARK    3  A    between atoms: C_2  and  S_4
REMARK    4  A    between atoms: S_4  and  C_7
REMARK    5  A    between atoms: C_12  and  S_13
REMARK    6  A    between atoms: S_13  and  C_16
REMARK    7  A    between atoms: P_26  and  O_32
REMARK    8  A    between atoms: O_32  and  C_33
REMARK                            x       y       z     vdW  Elec       q    Type
REMARK                         _______ _______ _______ _____ _____    ______ ____
ROOT
ATOM      1  C   UNL     1       3.083   0.891  -1.809  0.00  0.00    +0.114 A 
ATOM      2  C   UNL     1       4.432   0.607  -1.877  0.00  0.00    +0.033 A 
ATOM      3  C   UNL     1       5.359   1.483  -1.334  0.00  0.00    -0.039 A 
ATOM      4  C   UNL     1       4.936   2.644  -0.724  0.00  0.00    -0.022 A 
ATOM      5  C   UNL     1       3.579   2.928  -0.658  0.00  0.00    +0.035 A 
ATOM      6  C   UNL     1       2.656   2.058  -1.204  0.00  0.00    +0.119 A 
ATOM      7  C   UNL     1       5.901   3.628  -0.117  0.00  0.00    +0.130 C 
ATOM      8  C   UNL     1       5.461   5.049  -0.481  0.00  0.00    +0.196 C 
ATOM      9  O   UNL     1       6.318   5.986   0.199  0.00  0.00    -0.294 OA
ATOM     10  P   UNL     1       7.928   5.782   0.084  0.00  0.00    +0.421 P 
ATOM     11  O   UNL     1       8.608   6.431   1.227  0.00  0.00    -0.239 OA
ATOM     12  N   UNL     1       8.173   4.147   0.127  0.00  0.00    -0.156 NA
ATOM     13  N   UNL     1       7.266   3.383  -0.580  0.00  0.00    -0.224 NA
ATOM     14  C   UNL     1       7.622   1.962  -0.442  0.00  0.00    +0.108 C 
ATOM     15  C   UNL     1       6.823   1.135  -1.431  0.00  0.00    +0.052 C 
ATOM     16  H   UNL     1       8.915   3.756   0.613  0.00  0.00    +0.153 HD
ENDROOT
BRANCH   1  17
ATOM     17  S   UNL     1       1.909  -0.227  -2.499  0.00  0.00    +0.001 S 
ATOM     18  O   UNL     1       0.727  -0.030  -1.735  0.00  0.00    -0.169 OA
ATOM     19  O   UNL     1       2.567  -1.486  -2.505  0.00  0.00    -0.169 OA
BRANCH  17  21
ATOM     20  C   UNL     1       3.012   0.514  -4.890  0.00  0.00    +0.032 C 
ATOM     21  C   UNL     1       1.656   0.353  -4.200  0.00  0.00    +0.130 C 
ATOM     22  C   UNL     1       0.811  -0.666  -4.966  0.00  0.00    +0.032 C 
ENDBRANCH  17  21
ENDBRANCH   1  17
BRANCH   6  23
ATOM     23  S   UNL     1       0.936   2.432  -1.122  0.00  0.00    +0.027 S 
ATOM     24  O   UNL     1       0.318   1.352  -0.437  0.00  0.00    -0.164 OA
ATOM     25  O   UNL     1       0.834   3.777  -0.674  0.00  0.00    -0.164 OA
BRANCH  23  26
ATOM     26  C   UNL     1       0.318   2.402  -2.772  0.00  0.00    +0.094 A 
ATOM     27  C   UNL     1       0.807   3.292  -3.710  0.00  0.00    +0.027 A 
ATOM     28  C   UNL     1       0.323   3.269  -5.004  0.00  0.00    +0.002 A 
ATOM     29  C   UNL     1      -0.652   2.356  -5.361  0.00  0.00    +0.000 A 
ATOM     30  C   UNL     1      -1.141   1.465  -4.423  0.00  0.00    +0.002 A 
ATOM     31  C   UNL     1      -0.653   1.486  -3.130  0.00  0.00    +0.027 A 
ENDBRANCH  23  26
ENDBRANCH   6  23
BRANCH  10  32
ATOM     32  O   UNL     1       8.468   6.392  -1.304  0.00  0.00    -0.299 OA
ATOM     33  C   UNL     1       9.858   6.548  -1.597  0.00  0.00    +0.206 C 
ENDBRANCH  10  32
TORSDOF 5
