REMARK  Name = ZINC08782411
REMARK  9 active torsions:
REMARK  status: ('A' for Active; 'I' for Inactive)
REMARK    1  A    between atoms: C_1  and  C_2
REMARK    2  A    between atoms: C_4  and  C_27
REMARK    3  A    between atoms: C_7  and  N_8
REMARK    4  A    between atoms: C_9  and  C_11
REMARK    5  A    between atoms: N_16  and  C_18
REMARK    6  A    between atoms: C_21  and  O_24
REMARK    7  A    between atoms: O_24  and  C_25
REMARK    8  A    between atoms: C_27  and  C_29
REMARK    9  A    between atoms: C_27  and  C_31
REMARK                            x       y       z     vdW  Elec       q    Type
REMARK                         _______ _______ _______ _____ _____    ______ ____
ROOT
ATOM      1  C   UNL     1       3.353   2.667   4.083  0.00  0.00    +0.045 C 
ATOM      2  C   UNL     1       2.772   4.009   3.721  0.00  0.00    -0.029 A 
ATOM      3  C   UNL     1       3.312   5.163   4.255  0.00  0.00    +0.011 A 
ATOM      4  C   UNL     1       2.776   6.394   3.928  0.00  0.00    -0.008 A 
ATOM      5  C   UNL     1       1.700   6.476   3.060  0.00  0.00    +0.047 A 
ATOM      6  C   UNL     1       1.159   5.325   2.519  0.00  0.00    +0.044 A 
ATOM      7  C   UNL     1       1.696   4.087   2.846  0.00  0.00    +0.038 A 
ATOM      8 CL   UNL     1       1.031   8.025   2.652  0.00  0.00    -0.083 Cl
ENDROOT
BRANCH   7   9
ATOM      9  N   UNL     1       1.150   2.920   2.300  0.00  0.00    -0.285 N 
ATOM     10  C   UNL     1      -0.139   2.899   1.906  0.00  0.00    +0.222 C 
ATOM     11  O   UNL     1      -0.807   3.910   1.963  0.00  0.00    -0.275 OA
ATOM     12  H   UNL     1       1.699   2.126   2.206  0.00  0.00    +0.155 HD
BRANCH  10  13
ATOM     13  C   UNL     1      -0.749   1.620   1.394  0.00  0.00    +0.102 C 
ATOM     14  C   UNL     1      -0.017   1.127   0.124  0.00  0.00    +0.110 C 
ATOM     15  C   UNL     1      -0.814   1.716  -1.019  0.00  0.00    +0.221 C 
ATOM     16  O   UNL     1      -0.423   1.805  -2.164  0.00  0.00    -0.275 OA
ATOM     17  N   UNL     1      -2.017   2.126  -0.582  0.00  0.00    -0.271 N 
ATOM     18  C   UNL     1      -2.179   1.865   0.854  0.00  0.00    +0.127 C 
BRANCH  17  19
ATOM     19  C   UNL     1      -2.991   2.724  -1.392  0.00  0.00    +0.036 A 
ATOM     20  C   UNL     1      -2.698   3.039  -2.712  0.00  0.00    +0.027 A 
ATOM     21  C   UNL     1      -3.660   3.624  -3.512  0.00  0.00    +0.047 A 
ATOM     22  C   UNL     1      -4.915   3.906  -2.993  0.00  0.00    +0.120 A 
ATOM     23  C   UNL     1      -5.207   3.597  -1.673  0.00  0.00    +0.047 A 
ATOM     24  C   UNL     1      -4.247   3.007  -0.874  0.00  0.00    +0.027 A 
BRANCH  22  25
ATOM     25  O   UNL     1      -5.860   4.488  -3.779  0.00  0.00    -0.495 OA
ATOM     26  C   UNL     1      -5.492   4.779  -5.129  0.00  0.00    +0.277 C 
ENDBRANCH  22  25
ENDBRANCH  17  19
ENDBRANCH  10  13
ENDBRANCH   7   9
BRANCH   4  27
ATOM     27  C   UNL     1       3.364   7.651   4.517  0.00  0.00    +0.153 C 
BRANCH  27  28
ATOM     28  C   UNL     1       4.839   7.704   4.215  0.00  0.00    -0.026 A 
ATOM     29  C   UNL     1       5.737   7.044   5.033  0.00  0.00    +0.006 A 
ATOM     30  C   UNL     1       7.090   7.088   4.753  0.00  0.00    +0.020 A 
ATOM     31  C   UNL     1       7.546   7.803   3.660  0.00  0.00    +0.041 A 
ATOM     32  C   UNL     1       6.648   8.469   2.845  0.00  0.00    +0.020 A 
ATOM     33  C   UNL     1       5.295   8.419   3.123  0.00  0.00    +0.006 A 
ATOM     34 CL   UNL     1       9.246   7.866   3.312  0.00  0.00    -0.084 Cl
ENDBRANCH  27  28
BRANCH  27  35
ATOM     35  C   UNL     1       3.162   7.650   5.975  0.00  0.00    +0.075 C 
ATOM     36  N   UNL     1       3.005   7.650   7.100  0.00  0.00    -0.196 NA
ENDBRANCH  27  35
ENDBRANCH   4  27
TORSDOF 7
