REMARK  Name = ZINC08876783
REMARK  8 active torsions:
REMARK  status: ('A' for Active; 'I' for Inactive)
REMARK    1  A    between atoms: C_1  and  C_2
REMARK    2  A    between atoms: C_2  and  O_3
REMARK    3  A    between atoms: O_3  and  C_4
REMARK    4  A    between atoms: C_4  and  C_6
REMARK    5  A    between atoms: C_9  and  N_12
REMARK    6  A    between atoms: C_13  and  C_15
REMARK    7  A    between atoms: C_27  and  C_34
REMARK    8  A    between atoms: C_28  and  C_33
REMARK                            x       y       z     vdW  Elec       q    Type
REMARK                         _______ _______ _______ _____ _____    ______ ____
ROOT
ATOM      1  C   UNL     1       1.029  -2.854   1.235  0.00  0.00    +0.076 C 
ATOM      2  C   UNL     1       0.645  -4.260   0.697  0.00  0.00    -0.003 C 
ATOM      3  C   UNL     1       0.146  -3.926  -0.729  0.00  0.00    -0.066 C 
ATOM      4  C   UNL     1       0.388  -5.135  -1.646  0.00  0.00    -0.017 C 
ATOM      5  C   UNL     1       1.436  -4.658  -2.678  0.00  0.00    -0.020 C 
ATOM      6  C   UNL     1       2.136  -3.489  -1.944  0.00  0.00    -0.077 C 
ATOM      7  C   UNL     1       1.576  -2.149  -0.015  0.00  0.00    +0.052 C 
ATOM      8  C   UNL     1       1.215  -0.688  -0.008  0.00  0.00    -0.027 A 
ATOM      9  C   UNL     1       0.016  -0.011   0.001  0.00  0.00    +0.005 A 
ATOM     10  C   UNL     1       0.002   1.373   0.006  0.00  0.00    +0.004 A 
ATOM     11  C   UNL     1       1.195   2.073   0.001  0.00  0.00    -0.046 A 
ATOM     12  C   UNL     1       2.398   1.399  -0.008  0.00  0.00    -0.026 A 
ATOM     13  C   UNL     1       2.421   0.006  -0.013  0.00  0.00    +0.039 A 
ATOM     14  N   UNL     1       3.493  -0.889  -0.021  0.00  0.00    -0.286 N 
ATOM     15  C   UNL     1       3.084  -2.171  -0.021  0.00  0.00    +0.212 C 
ATOM     16  O   UNL     1       3.792  -3.156  -0.026  0.00  0.00    -0.277 OA
ATOM     17  C   UNL     1       3.692   2.171  -0.014  0.00  0.00    +0.046 C 
ATOM     18  C   UNL     1       1.179   3.580   0.006  0.00  0.00    +0.044 C 
ATOM     19  H   UNL     1       4.424  -0.618  -0.025  0.00  0.00    +0.155 HD
ATOM     20  N   UNL     1       1.035  -2.864  -1.188  0.00  0.00    +0.394 N 
ATOM     21  H   UNL     1       0.523  -2.208  -1.789  0.00  0.00    -0.079 HD
ENDROOT
BRANCH   1  23
ATOM     22  N   UNL     1      -0.046  -1.221   2.750  0.00  0.00    -0.285 N 
ATOM     23  C   UNL     1      -0.182  -2.133   1.767  0.00  0.00    +0.220 C 
ATOM     24  O   UNL     1      -1.280  -2.374   1.312  0.00  0.00    -0.275 OA
ATOM     25  H   UNL     1       0.839  -0.972   3.061  0.00  0.00    +0.155 HD
BRANCH  22  29
ATOM     26  C   UNL     1      -3.421   0.527   4.453  0.00  0.00    +0.059 A 
ATOM     27  C   UNL     1      -3.458  -0.806   4.036  0.00  0.00    +0.017 A 
ATOM     28  C   UNL     1      -2.341  -1.381   3.474  0.00  0.00    +0.024 A 
ATOM     29  C   UNL     1      -1.175  -0.636   3.320  0.00  0.00    +0.033 A 
ATOM     30  C   UNL     1      -1.133   0.690   3.739  0.00  0.00    +0.024 A 
ATOM     31  C   UNL     1      -2.248   1.273   4.297  0.00  0.00    +0.017 A 
BRANCH  26  32
ATOM     32  C   UNL     1      -4.615   1.146   5.057  0.00  0.00    +0.339 C 
ATOM     33  O   UNL     1      -5.633   0.497   5.192  0.00  0.00    -0.245 OA
BRANCH  32  34
ATOM     34  O   UNL     1      -4.578   2.432   5.458  0.00  0.00    -0.461 OA
BRANCH  34  36
ATOM     35  C   UNL     1      -5.558   4.436   6.435  0.00  0.00    +0.048 C 
ATOM     36  C   UNL     1      -5.791   2.975   6.043  0.00  0.00    +0.229 C 
ENDBRANCH  34  36
ENDBRANCH  32  34
ENDBRANCH  26  32
ENDBRANCH  22  29
ENDBRANCH   1  23
TORSDOF 5
