REMARK  Name = ZINC61997010
REMARK  4 active torsions:
REMARK  status: ('A' for Active; 'I' for Inactive)
REMARK    1  A    between atoms: C_1  and  C_2
REMARK    2  A    between atoms: C_19  and  C_21
REMARK    3  A    between atoms: C_21  and  N_22
REMARK    4  A    between atoms: N_25  and  C_28
REMARK                            x       y       z     vdW  Elec       q    Type
REMARK                         _______ _______ _______ _____ _____    ______ ____
ROOT
ATOM      1  C   UNL     1      -0.208   0.642  -0.470  0.00  0.00    +0.012 C 
ATOM      2  C   UNL     1       0.059  -0.865  -0.470  0.00  0.00    -0.022 C 
ATOM      3  C   UNL     1      -1.264  -1.620  -0.580  0.00  0.00    +0.007 C 
ATOM      4  C   UNL     1      -2.197  -1.194   0.556  0.00  0.00    +0.005 C 
ATOM      5  C   UNL     1      -1.580  -1.584   1.902  0.00  0.00    +0.030 C 
ATOM      6  C   UNL     1      -0.185  -1.003   1.984  0.00  0.00    -0.073 C 
ATOM      7  C   UNL     1       0.191  -0.294   3.019  0.00  0.00    +0.008 C 
ATOM      8  C   UNL     1       0.762  -1.264   0.836  0.00  0.00    +0.021 C 
ATOM      9  C   UNL     1       2.005  -0.394   0.991  0.00  0.00    +0.016 C 
ATOM     10  C   UNL     1       2.990  -0.655  -0.152  0.00  0.00    +0.045 C 
ATOM     11  C   UNL     1       2.298  -0.511  -1.521  0.00  0.00    +0.181 C 
ATOM     12  C   UNL     1       0.986  -1.223  -1.630  0.00  0.00    +0.052 C 
ATOM     13  O   UNL     1       2.155   0.905  -1.684  0.00  0.00    -0.461 OA
ATOM     14  C   UNL     1       3.297   1.481  -1.248  0.00  0.00    +0.312 C 
ATOM     15  O   UNL     1       3.736   2.542  -1.624  0.00  0.00    -0.250 OA
ATOM     16  C   UNL     1       3.952   0.570  -0.195  0.00  0.00    +0.118 C 
ENDROOT
BRANCH  16  17
ATOM     17  C   UNL     1       5.351   0.139  -0.640  0.00  0.00    +0.099 C 
BRANCH  17  18
ATOM     18  N   UNL     1       5.932  -0.757   0.369  0.00  0.00    -0.299 NA
ATOM     19  C   UNL     1       6.298  -0.016   1.583  0.00  0.00    +0.103 C 
ATOM     20  C   UNL     1       6.728  -1.005   2.671  0.00  0.00    +0.120 C 
ATOM     21  N   UNL     1       7.788  -1.867   2.126  0.00  0.00    -0.325 N 
ATOM     22  C   UNL     1       7.547  -2.537   0.839  0.00  0.00    +0.120 C 
ATOM     23  C   UNL     1       7.084  -1.487  -0.177  0.00  0.00    +0.103 C 
BRANCH  21  24
ATOM     24  C   UNL     1       8.992  -2.045   2.814  0.00  0.00    +0.065 A 
ATOM     25  C   UNL     1       9.124  -3.080   3.730  0.00  0.00    +0.026 A 
ATOM     26  C   UNL     1      10.316  -3.254   4.407  0.00  0.00    +0.002 A 
ATOM     27  C   UNL     1      11.377  -2.399   4.175  0.00  0.00    +0.003 A 
ATOM     28  C   UNL     1      11.251  -1.366   3.264  0.00  0.00    +0.040 A 
ATOM     29  C   UNL     1      10.063  -1.190   2.577  0.00  0.00    +0.144 A 
ATOM     30  F   UNL     1       9.941  -0.185   1.683  0.00  0.00    -0.204 F 
ENDBRANCH  21  24
ENDBRANCH  17  18
ENDBRANCH  16  17
TORSDOF 3
