REMARK  Name = ZINC05379087
REMARK  10 active torsions:
REMARK  status: ('A' for Active; 'I' for Inactive)
REMARK    1  A    between atoms: C_1  and  C_2
REMARK    2  A    between atoms: C_2  and  C_4
REMARK    3  A    between atoms: C_6  and  C_33
REMARK    4  A    between atoms: C_11  and  C_32
REMARK    5  A    between atoms: C_21  and  C_31
REMARK    6  A    between atoms: C_24  and  O_27
REMARK    7  A    between atoms: O_27  and  C_28
REMARK    8  A    between atoms: C_28  and  C_30
REMARK    9  A    between atoms: C_33  and  C_34
REMARK   10  A    between atoms: C_33  and  C_36
REMARK                            x       y       z     vdW  Elec       q    Type
REMARK                         _______ _______ _______ _____ _____    ______ ____
ROOT
ATOM      1  C   UNL     1      -3.237  -1.447   0.702  0.00  0.00    +0.066 C 
ATOM      2  C   UNL     1      -3.453  -0.220  -0.228  0.00  0.00    +0.031 C 
ATOM      3  C   UNL     1      -2.038   0.290  -0.602  0.00  0.00    +0.011 C 
ATOM      4  C   UNL     1      -1.078  -0.707   0.054  0.00  0.00    -0.000 C 
ATOM      5  C   UNL     1      -1.849  -1.150   1.314  0.00  0.00    -0.019 C 
ATOM      6  C   UNL     1      -1.175  -2.307   2.003  0.00  0.00    +0.008 C 
ATOM      7  C   UNL     1       0.351  -2.244   1.819  0.00  0.00    +0.005 C 
ATOM      8  C   UNL     1       0.814  -0.801   1.677  0.00  0.00    +0.003 C 
ATOM      9  C   UNL     1       0.313  -0.236   0.338  0.00  0.00    +0.000 C 
ATOM     10  C   UNL     1       0.485   1.282   0.399  0.00  0.00    +0.031 C 
ATOM     11  C   UNL     1       1.954   1.544   0.621  0.00  0.00    -0.027 C 
ATOM     12  C   UNL     1       2.752   0.694   1.188  0.00  0.00    -0.064 C 
ATOM     13  C   UNL     1       2.328  -0.650   1.734  0.00  0.00    -0.008 C 
ATOM     14  C   UNL     1       3.051  -1.743   0.956  0.00  0.00    +0.015 C 
ATOM     15  C   UNL     1       4.089  -1.126   0.019  0.00  0.00    +0.046 C 
ATOM     16  C   UNL     1       5.020  -0.164   0.750  0.00  0.00    +0.180 C 
ATOM     17  C   UNL     1       4.230   1.030   1.303  0.00  0.00    +0.075 C 
ATOM     18  C   UNL     1       2.752  -0.730   3.204  0.00  0.00    +0.016 C 
ATOM     19  C   UNL     1      -2.050   0.016   2.301  0.00  0.00    +0.012 C 
ENDROOT
BRANCH   1  21
ATOM     20  C   UNL     1      -4.555  -3.466  -0.283  0.00  0.00    +0.086 C 
ATOM     21  C   UNL     1      -3.260  -2.720  -0.093  0.00  0.00    +0.134 C 
ATOM     22  O   UNL     1      -2.240  -3.146  -0.580  0.00  0.00    -0.297 OA
ENDBRANCH   1  21
BRANCH  16  23
ATOM     23  O   UNL     1       5.688  -0.855   1.837  0.00  0.00    -0.461 OA
BRANCH  23  24
ATOM     24  C   UNL     1       6.927  -0.444   2.150  0.00  0.00    +0.304 C 
ATOM     25  O   UNL     1       7.436   0.464   1.535  0.00  0.00    -0.251 OA
ATOM     26  C   UNL     1       7.684  -1.115   3.267  0.00  0.00    +0.136 C 
ENDBRANCH  23  24
ENDBRANCH  16  23
BRANCH   2  27
ATOM     27  C   UNL     1      -4.205  -0.648  -1.490  0.00  0.00    +0.197 C 
BRANCH  27  28
ATOM     28  C   UNL     1      -5.513  -1.209  -1.114  0.00  0.00    +0.081 C 
ATOM     29  N   UNL     1      -6.523  -1.641  -0.825  0.00  0.00    -0.195 NA
ENDBRANCH  27  28
BRANCH  27  30
ATOM     30  C   UNL     1      -4.404   0.520  -2.363  0.00  0.00    +0.081 C 
ATOM     31  N   UNL     1      -4.558   1.422  -3.036  0.00  0.00    -0.195 NA
ENDBRANCH  27  30
ENDBRANCH   2  27
TORSDOF 6
