REMARK  Name = ZINC02340709
REMARK  6 active torsions:
REMARK  status: ('A' for Active; 'I' for Inactive)
REMARK    1  A    between atoms: C_2  and  C_3
REMARK    2  A    between atoms: C_3  and  O_4
REMARK    3  A    between atoms: O_4  and  C_5
REMARK    4  A    between atoms: C_5  and  C_7
REMARK    5  A    between atoms: N_18  and  C_21
REMARK    6  A    between atoms: C_19  and  N_20
REMARK                            x       y       z     vdW  Elec       q    Type
REMARK                         _______ _______ _______ _____ _____    ______ ____
ROOT
ATOM      1  C   UNL     1      -3.249   2.818   0.739  0.00  0.00    +0.126 A 
ATOM      2  C   UNL     1      -3.002   3.395  -0.593  0.00  0.00    +0.125 A 
ATOM      3  C   UNL     1      -1.691   2.883  -1.002  0.00  0.00    +0.167 A 
ATOM      4  N   UNL     1      -1.200   3.226  -2.173  0.00  0.00    -0.225 NA
ATOM      5  C   UNL     1      -1.892   4.048  -2.973  0.00  0.00    +0.092 A 
ATOM      6  C   UNL     1      -1.370   4.426  -4.224  0.00  0.00    +0.030 A 
ATOM      7  C   UNL     1      -2.081   5.260  -5.030  0.00  0.00    +0.002 A 
ATOM      8  C   UNL     1      -3.324   5.751  -4.636  0.00  0.00    +0.002 A 
ATOM      9  C   UNL     1      -3.861   5.409  -3.434  0.00  0.00    +0.030 A 
ATOM     10  C   UNL     1      -3.156   4.547  -2.572  0.00  0.00    +0.090 A 
ATOM     11  N   UNL     1      -3.675   4.203  -1.387  0.00  0.00    -0.241 NA
ATOM     12  N   UNL     1      -1.239   2.070   0.019  0.00  0.00    -0.280 N 
ATOM     13  C   UNL     1      -2.141   2.030   1.039  0.00  0.00    +0.119 A 
ENDROOT
BRANCH  12  14
ATOM     14  C   UNL     1      -0.017   1.385   0.010  0.00  0.00    +0.051 A 
ATOM     15  C   UNL     1       0.002  -0.004   0.002  0.00  0.00    +0.026 A 
ATOM     16  C   UNL     1       1.208  -0.677  -0.013  0.00  0.00    +0.003 A 
ATOM     17  C   UNL     1       2.396   0.029  -0.021  0.00  0.00    +0.020 A 
ATOM     18  C   UNL     1       2.381   1.413  -0.013  0.00  0.00    +0.043 A 
ATOM     19  C   UNL     1       1.177   2.092   0.002  0.00  0.00    +0.046 A 
ATOM     20 CL   UNL     1       3.876   2.297  -0.024  0.00  0.00    -0.083 Cl
ENDBRANCH  12  14
BRANCH  13  21
ATOM     21  N   UNL     1      -1.981   1.316   2.198  0.00  0.00    -0.343 N 
ATOM     22  H   UNL     1      -1.178   0.789   2.335  0.00  0.00    +0.144 HD
ATOM     23  H   UNL     1      -2.670   1.338   2.880  0.00  0.00    +0.144 HD
ENDBRANCH  13  21
BRANCH   1  24
ATOM     24  C   UNL     1      -4.389   3.022   1.554  0.00  0.00    +0.345 C 
ATOM     25  O   UNL     1      -4.410   3.942   2.351  0.00  0.00    -0.245 OA
BRANCH  24  26
ATOM     26  O   UNL     1      -5.452   2.199   1.445  0.00  0.00    -0.457 OA
BRANCH  26  27
ATOM     27  C   UNL     1      -6.568   2.464   2.298  0.00  0.00    +0.259 C 
BRANCH  27  29
ATOM     28  C   UNL     1      -8.268   0.878   3.042  0.00  0.00    +0.007 C 
ATOM     29  C   UNL     1      -7.651   1.449   2.038  0.00  0.00    +0.006 C 
ENDBRANCH  27  29
ENDBRANCH  26  27
ENDBRANCH  24  26
ENDBRANCH   1  24
TORSDOF 6
