REMARK  Name = ZINC31055910
REMARK  10 active torsions:
REMARK  status: ('A' for Active; 'I' for Inactive)
REMARK    1  A    between atoms: C_1  and  C_2
REMARK    2  A    between atoms: C_5  and  O_8
REMARK    3  A    between atoms: O_8  and  C_9
REMARK    4  A    between atoms: C_9  and  C_10
REMARK    5  A    between atoms: C_10  and  C_12
REMARK    6  A    between atoms: C_10  and  N_13
REMARK    7  A    between atoms: C_14  and  C_16
REMARK    8  A    between atoms: N_21  and  C_23
REMARK    9  A    between atoms: C_23  and  C_24
REMARK   10  A    between atoms: C_26  and  C_29
REMARK                            x       y       z     vdW  Elec       q    Type
REMARK                         _______ _______ _______ _____ _____    ______ ____
ROOT
ATOM      1  C   UNL     1       8.491   0.488   2.816  0.00  0.00    +0.058 C 
ATOM      2  C   UNL     1       8.066   1.741   3.587  0.00  0.00    +0.009 C 
ATOM      3  C   UNL     1       6.546   1.895   3.497  0.00  0.00    -0.018 C 
ATOM      4  C   UNL     1       6.132   1.971   2.025  0.00  0.00    -0.078 C 
ATOM      5  N   UNL     1       6.560   0.750   1.331  0.00  0.00    +0.386 N 
ATOM      6  C   UNL     1       8.021   0.604   1.364  0.00  0.00    -0.065 C 
ATOM      7  H   UNL     1       6.126  -0.109   1.865  0.00  0.00    -0.081 HD
ENDROOT
BRANCH   1   9
ATOM      8  N   UNL     1      10.632   0.244   4.030  0.00  0.00    -0.309 N 
ATOM      9  C   UNL     1       9.992   0.361   2.849  0.00  0.00    +0.215 C 
ATOM     10  O   UNL     1      10.624   0.363   1.815  0.00  0.00    -0.276 OA
ATOM     11  H   UNL     1      10.059   0.242   4.969  0.00  0.00    +0.149 HD
BRANCH   8  12
ATOM     12  C   UNL     1      12.091   0.121   4.063  0.00  0.00    +0.107 C 
ATOM     13  C   UNL     1      12.483  -1.346   3.873  0.00  0.00    +0.031 C 
BRANCH  12  14
ATOM     14  C   UNL     1      12.615   0.618   5.412  0.00  0.00    +0.251 C 
BRANCH  14  15
ATOM     15  O   UNL     1      12.139  -0.239   6.452  0.00  0.00    -0.490 OA
BRANCH  15  20
ATOM     16  C   UNL     1      13.701   1.022  11.715  0.00  0.00    +0.044 C 
ATOM     17  C   UNL     1      13.283   0.684  10.307  0.00  0.00    -0.050 A 
ATOM     18  C   UNL     1      12.475  -0.413  10.071  0.00  0.00    +0.007 A 
ATOM     19  C   UNL     1      12.091  -0.724   8.781  0.00  0.00    +0.046 A 
ATOM     20  C   UNL     1      12.516   0.065   7.722  0.00  0.00    +0.121 A 
ATOM     21  C   UNL     1      13.332   1.162   7.961  0.00  0.00    +0.046 A 
ATOM     22  C   UNL     1      13.708   1.472   9.254  0.00  0.00    +0.007 A 
ENDBRANCH  15  20
ENDBRANCH  14  15
ENDBRANCH  12  14
ENDBRANCH   8  12
ENDBRANCH   1   9
BRANCH   5  23
ATOM     23  C   UNL     1       6.059   0.725  -0.049  0.00  0.00    +0.022 C 
BRANCH  23  24
ATOM     24  C   UNL     1       4.555   0.629  -0.036  0.00  0.00    +0.211 A 
ATOM     25  N   UNL     1       3.711   1.631  -0.029  0.00  0.00    -0.193 NA
ATOM     26  C   UNL     1       2.481   1.069  -0.015  0.00  0.00    +0.203 A 
ATOM     27  N   UNL     1       2.648  -0.228  -0.023  0.00  0.00    -0.056 NA
ATOM     28  O   UNL     1       3.831  -0.495  -0.035  0.00  0.00    -0.340 OA
BRANCH  26  29
ATOM     29  C   UNL     1       1.184   1.790   0.000  0.00  0.00    +0.041 A 
ATOM     30  C   UNL     1      -0.013   1.076   0.008  0.00  0.00    +0.014 A 
ATOM     31  C   UNL     1      -1.216   1.750   0.017  0.00  0.00    +0.021 A 
ATOM     32  C   UNL     1      -1.237   3.135   0.030  0.00  0.00    +0.042 A 
ATOM     33  C   UNL     1      -0.052   3.850   0.022  0.00  0.00    +0.040 A 
ATOM     34  C   UNL     1       1.159   3.184   0.008  0.00  0.00    +0.053 A 
ATOM     35 CL   UNL     1       2.645   4.082  -0.001  0.00  0.00    -0.083 Cl
ATOM     36 CL   UNL     1      -2.755   3.977   0.049  0.00  0.00    -0.083 Cl
ENDBRANCH  26  29
ENDBRANCH  23  24
ENDBRANCH   5  23
TORSDOF 8
