REMARK  Name = ZINC06246886
REMARK  10 active torsions:
REMARK  status: ('A' for Active; 'I' for Inactive)
REMARK    1  A    between atoms: C_1  and  C_2
REMARK    2  A    between atoms: C_2  and  O_3
REMARK    3  A    between atoms: O_3  and  C_4
REMARK    4  A    between atoms: C_7  and  N_10
REMARK    5  A    between atoms: N_10  and  C_11
REMARK    6  A    between atoms: C_11  and  N_13
REMARK    7  A    between atoms: N_13  and  N_14
REMARK    8  A    between atoms: C_15  and  C_16
REMARK    9  A    between atoms: C_15  and  C_17
REMARK   10  A    between atoms: C_26  and  O_27
REMARK                            x       y       z     vdW  Elec       q    Type
REMARK                         _______ _______ _______ _____ _____    ______ ____
ROOT
ATOM      1  N   UNL     1       2.046  -7.800   2.860  0.00  0.00    -0.218 N 
ATOM      2  H   UNL     1       2.565  -8.168   3.592  0.00  0.00    +0.176 HD
ENDROOT
BRANCH   1   3
ATOM      3  N   UNL     1       1.496  -8.652   1.893  0.00  0.00    -0.185 NA
ATOM      4  C   UNL     1       1.680  -9.934   1.978  0.00  0.00    +0.067 C 
ATOM      5  C   UNL     1       2.486 -10.506   3.115  0.00  0.00    +0.068 C 
BRANCH   4   6
ATOM      6  C   UNL     1       1.101 -10.830   0.962  0.00  0.00    +0.039 A 
ATOM      7  C   UNL     1       1.298 -12.220   1.061  0.00  0.00    +0.014 A 
ATOM      8  C   UNL     1       0.775 -13.065   0.138  0.00  0.00    +0.009 A 
ATOM      9  C   UNL     1       0.023 -12.560  -0.939  0.00  0.00    -0.014 A 
ATOM     10  C   UNL     1      -0.527 -13.419  -1.905  0.00  0.00    +0.008 A 
ATOM     11  C   UNL     1      -1.250 -12.902  -2.936  0.00  0.00    +0.001 A 
ATOM     12  C   UNL     1      -1.456 -11.528  -3.050  0.00  0.00    +0.001 A 
ATOM     13  C   UNL     1      -0.939 -10.665  -2.133  0.00  0.00    +0.012 A 
ATOM     14  C   UNL     1      -0.187 -11.163  -1.056  0.00  0.00    +0.024 A 
ATOM     15  C   UNL     1       0.358 -10.297  -0.087  0.00  0.00    +0.133 A 
BRANCH  15  16
ATOM     16  O   UNL     1       0.163  -8.957  -0.178  0.00  0.00    -0.506 OA
ATOM     17  H   UNL     1       0.842  -8.495  -0.689  0.00  0.00    +0.292 HD
ENDBRANCH  15  16
ENDBRANCH   4   6
ENDBRANCH   1   3
BRANCH   1  18
ATOM     18  C   UNL     1       1.855  -6.468   2.772  0.00  0.00    +0.154 C 
ATOM     19  S   UNL     1       2.528  -5.427   3.953  0.00  0.00    -0.017 S 
BRANCH  18  20
ATOM     20  N   UNL     1       1.135  -5.957   1.754  0.00  0.00    -0.296 N 
ATOM     21  H   UNL     1       0.686  -6.550   1.131  0.00  0.00    +0.154 HD
BRANCH  20  25
ATOM     22  C   UNL     1       0.831  -1.825   1.284  0.00  0.00    +0.121 A 
ATOM     23  C   UNL     1       2.050  -2.397   1.619  0.00  0.00    +0.047 A 
ATOM     24  C   UNL     1       2.151  -3.765   1.775  0.00  0.00    +0.027 A 
ATOM     25  C   UNL     1       1.033  -4.569   1.597  0.00  0.00    +0.033 A 
ATOM     26  C   UNL     1      -0.187  -3.995   1.262  0.00  0.00    +0.027 A 
ATOM     27  C   UNL     1      -0.288  -2.627   1.111  0.00  0.00    +0.047 A 
BRANCH  22  28
ATOM     28  O   UNL     1       0.733  -0.478   1.130  0.00  0.00    -0.492 OA
BRANCH  28  30
ATOM     29  C   UNL     1       1.619   1.770   1.110  0.00  0.00    +0.048 C 
ATOM     30  C   UNL     1       1.925   0.286   1.323  0.00  0.00    +0.225 C 
ENDBRANCH  28  30
ENDBRANCH  22  28
ENDBRANCH  20  25
ENDBRANCH  18  20
ENDBRANCH   1  18
TORSDOF 8
