REMARK  Name = ZINC21051420
REMARK  4 active torsions:
REMARK  status: ('A' for Active; 'I' for Inactive)
REMARK    1  A    between atoms: C_4  and  C_7
REMARK    2  A    between atoms: C_7  and  C_8
REMARK    3  A    between atoms: N_20  and  C_21
REMARK    4  A    between atoms: C_26  and  C_27
REMARK                            x       y       z     vdW  Elec       q    Type
REMARK                         _______ _______ _______ _____ _____    ______ ____
ROOT
ATOM      1  C   UNL     1      -2.930   0.714   1.444  0.00  0.00    +0.129 C 
ATOM      2  C   UNL     1      -4.280   0.034   1.444  0.00  0.00    +0.040 A 
ATOM      3  C   UNL     1      -5.471   0.577   1.151  0.00  0.00    +0.024 A 
ATOM      4  C   UNL     1      -6.439  -0.441   1.279  0.00  0.00    +0.019 A 
ATOM      5  C   UNL     1      -5.795  -1.568   1.649  0.00  0.00    +0.086 A 
ATOM      6  N   UNL     1      -4.469  -1.285   1.757  0.00  0.00    -0.347 N 
ATOM      7  C   UNL     1      -3.399  -2.211   2.146  0.00  0.00    +0.140 C 
ATOM      8  C   UNL     1      -2.049  -1.638   1.702  0.00  0.00    +0.131 C 
ATOM      9  N   UNL     1      -1.978  -0.218   2.076  0.00  0.00    -0.275 N 
ATOM     10  C   UNL     1      -1.069   0.220   2.970  0.00  0.00    +0.307 C 
ATOM     11  O   UNL     1      -0.356  -0.576   3.551  0.00  0.00    -0.252 OA
ATOM     12  N   UNL     1      -0.950   1.538   3.220  0.00  0.00    -0.269 N 
ATOM     13  H   UNL     1      -1.656   2.250   2.767  0.00  0.00    +0.156 HD
ENDROOT
BRANCH  12  14
ATOM     14  C   UNL     1       0.071   2.003   4.056  0.00  0.00    +0.046 A 
ATOM     15  C   UNL     1       1.303   1.362   4.072  0.00  0.00    +0.024 A 
ATOM     16  C   UNL     1       2.309   1.822   4.899  0.00  0.00    +0.002 A 
ATOM     17  C   UNL     1       2.091   2.921   5.710  0.00  0.00    +0.001 A 
ATOM     18  C   UNL     1       0.866   3.561   5.697  0.00  0.00    +0.014 A 
ATOM     19  C   UNL     1      -0.143   3.109   4.868  0.00  0.00    +0.076 A 
BRANCH  19  20
ATOM     20  C   UNL     1      -1.476   3.811   4.849  0.00  0.00    +0.419 C 
ATOM     21  F   UNL     1      -1.449   4.887   5.744  0.00  0.00    -0.166 F 
ATOM     22  F   UNL     1      -1.736   4.284   3.559  0.00  0.00    -0.166 F 
ATOM     23  F   UNL     1      -2.481   2.915   5.229  0.00  0.00    -0.166 F 
ENDBRANCH  19  20
ENDBRANCH  12  14
BRANCH   1  24
ATOM     24  C   UNL     1      -2.495   1.011   0.007  0.00  0.00    +0.064 C 
BRANCH  24  28
ATOM     25  C   UNL     1       1.148   3.240   0.048  0.00  0.00    +0.000 A 
ATOM     26  C   UNL     1       1.183   1.858   0.019  0.00  0.00    +0.000 A 
ATOM     27  C   UNL     1       0.004   1.137   0.009  0.00  0.00    +0.004 A 
ATOM     28  C   UNL     1      -1.210   1.797   0.023  0.00  0.00    -0.045 A 
ATOM     29  C   UNL     1      -1.245   3.179   0.057  0.00  0.00    +0.004 A 
ATOM     30  C   UNL     1      -0.066   3.900   0.067  0.00  0.00    +0.000 A 
ENDBRANCH  24  28
ENDBRANCH   1  24
TORSDOF 4
