REMARK  Name = ZINC09050823
REMARK  7 active torsions:
REMARK  status: ('A' for Active; 'I' for Inactive)
REMARK    1  A    between atoms: C_1  and  C_2
REMARK    2  A    between atoms: C_2  and  C_4
REMARK    3  A    between atoms: C_2  and  C_19
REMARK    4  A    between atoms: N_21  and  C_22
REMARK    5  A    between atoms: C_22  and  C_23
REMARK    6  A    between atoms: C_23  and  C_24
REMARK    7  A    between atoms: C_27  and  O_30
REMARK                            x       y       z     vdW  Elec       q    Type
REMARK                         _______ _______ _______ _____ _____    ______ ____
ROOT
ATOM      1  C   UNL     1       0.330   6.290   1.282  0.00  0.00    +0.022 C 
ATOM      2  C   UNL     1       0.913   5.643   0.023  0.00  0.00    +0.102 C 
ENDROOT
BRANCH   2   3
ATOM      3  C   UNL     1       0.590   4.171   0.019  0.00  0.00    -0.034 A 
ATOM      4  C   UNL     1      -0.734   3.758   0.029  0.00  0.00    +0.005 A 
ATOM      5  C   UNL     1      -1.042   2.415   0.020  0.00  0.00    +0.011 A 
ATOM      6  C   UNL     1      -0.018   1.470   0.010  0.00  0.00    +0.007 A 
ATOM      7  C   UNL     1       0.002  -0.004   0.002  0.00  0.00    +0.009 A 
ATOM      8  C   UNL     1      -0.996  -0.976   0.006  0.00  0.00    +0.030 A 
ATOM      9  C   UNL     1      -0.651  -2.312  -0.005  0.00  0.00    +0.042 A 
ATOM     10  C   UNL     1       0.684  -2.688  -0.020  0.00  0.00    +0.022 A 
ATOM     11  C   UNL     1       1.681  -1.736  -0.024  0.00  0.00    +0.027 A 
ATOM     12  C   UNL     1       1.352  -0.384  -0.013  0.00  0.00    +0.048 A 
ATOM     13  N   UNL     1       2.128   0.763  -0.014  0.00  0.00    -0.354 N 
ATOM     14  H   UNL     1       3.098   0.776  -0.024  0.00  0.00    +0.166 HD
ATOM     15  C   UNL     1       1.321   1.887  -0.000  0.00  0.00    +0.048 A 
ATOM     16  C   UNL     1       1.612   3.248   0.004  0.00  0.00    +0.030 A 
ATOM     17 CL   UNL     1      -1.892  -3.525  -0.001  0.00  0.00    -0.084 Cl
ENDBRANCH   2   3
BRANCH   2  18
ATOM     18  C   UNL     1       0.315   6.293  -1.198  0.00  0.00    +0.220 C 
ATOM     19  O   UNL     1      -0.312   5.626  -1.994  0.00  0.00    -0.275 OA
ATOM     20  N   UNL     1       0.477   7.614  -1.406  0.00  0.00    -0.315 N 
ATOM     21  H   UNL     1       0.978   8.148  -0.770  0.00  0.00    +0.149 HD
BRANCH  20  22
ATOM     22  C   UNL     1      -0.105   8.245  -2.594  0.00  0.00    +0.109 C 
BRANCH  22  23
ATOM     23  C   UNL     1       0.223   9.740  -2.589  0.00  0.00    +0.054 C 
BRANCH  23  24
ATOM     24  C   UNL     1      -0.375  10.389  -3.811  0.00  0.00    -0.046 A 
ATOM     25  C   UNL     1       0.361  10.472  -4.979  0.00  0.00    +0.007 A 
ATOM     26  C   UNL     1      -0.188  11.062  -6.101  0.00  0.00    +0.045 A 
ATOM     27  C   UNL     1      -1.473  11.581  -6.053  0.00  0.00    +0.117 A 
ATOM     28  C   UNL     1      -2.207  11.501  -4.878  0.00  0.00    +0.045 A 
ATOM     29  C   UNL     1      -1.656  10.906  -3.760  0.00  0.00    +0.007 A 
BRANCH  27  30
ATOM     30  O   UNL     1      -2.013  12.166  -7.154  0.00  0.00    -0.507 OA
ATOM     31  H   UNL     1      -1.844  13.116  -7.218  0.00  0.00    +0.292 HD
ENDBRANCH  27  30
ENDBRANCH  23  24
ENDBRANCH  22  23
ENDBRANCH  20  22
ENDBRANCH   2  18
TORSDOF 6
