REMARK  Name = ZINC40323112
REMARK  7 active torsions:
REMARK  status: ('A' for Active; 'I' for Inactive)
REMARK    1  A    between atoms: C_3  and  C_6
REMARK    2  A    between atoms: C_6  and  C_8
REMARK    3  A    between atoms: C_6  and  N_27
REMARK    4  A    between atoms: C_8  and  N_9
REMARK    5  A    between atoms: C_10  and  C_12
REMARK    6  A    between atoms: C_15  and  S_17
REMARK    7  A    between atoms: S_17  and  C_20
REMARK                            x       y       z     vdW  Elec       q    Type
REMARK                         _______ _______ _______ _____ _____    ______ ____
ROOT
ATOM      1  N   UNL     1       3.170  -0.963   1.793  0.00  0.00    -0.310 N 
ATOM      2  C   UNL     1       3.191  -1.414   3.063  0.00  0.00    +0.279 C 
ATOM      3  O   UNL     1       3.804  -0.800   3.916  0.00  0.00    -0.267 OA
ATOM      4  H   UNL     1       2.682  -1.453   1.113  0.00  0.00    +0.149 HD
ENDROOT
BRANCH   2   5
ATOM      5  C   UNL     1       2.476  -2.644   3.416  0.00  0.00    +0.192 A 
ATOM      6  C   UNL     1       2.411  -3.206   4.659  0.00  0.00    +0.056 A 
ATOM      7  C   UNL     1       1.627  -4.364   4.539  0.00  0.00    +0.070 A 
ATOM      8  C   UNL     1       1.252  -4.457   3.244  0.00  0.00    +0.246 A 
ATOM      9  O   UNL     1       1.762  -3.417   2.572  0.00  0.00    -0.433 OA
BRANCH   8  10
ATOM     10  S   UNL     1       0.254  -5.735   2.554  0.00  0.00    +0.058 S 
ATOM     11  O   UNL     1       0.557  -5.783   1.167  0.00  0.00    -0.161 OA
ATOM     12  O   UNL     1       0.395  -6.864   3.404  0.00  0.00    -0.161 OA
BRANCH  10  13
ATOM     13  C   UNL     1      -1.424  -5.213   2.685  0.00  0.00    +0.097 A 
ATOM     14  C   UNL     1      -2.158  -5.523   3.815  0.00  0.00    +0.028 A 
ATOM     15  C   UNL     1      -3.474  -5.113   3.918  0.00  0.00    +0.017 A 
ATOM     16  C   UNL     1      -4.056  -4.392   2.892  0.00  0.00    +0.018 A 
ATOM     17  C   UNL     1      -3.322  -4.082   1.761  0.00  0.00    +0.017 A 
ATOM     18  C   UNL     1      -2.004  -4.488   1.661  0.00  0.00    +0.028 A 
ATOM     19 BR   UNL     1      -5.857  -3.832   3.032  0.00  0.00    -0.050 Br
ENDBRANCH  10  13
ENDBRANCH   8  10
ENDBRANCH   2   5
BRANCH   1  20
ATOM     20  C   UNL     1       3.885   0.266   1.440  0.00  0.00    +0.097 C 
BRANCH  20  21
ATOM     21  C   UNL     1       3.812   0.481  -0.073  0.00  0.00    +0.016 C 
BRANCH  21  22
ATOM     22  N   UNL     1       4.315  -0.715  -0.763  0.00  0.00    +0.387 N 
ATOM     23  C   UNL     1       5.728  -0.917  -0.390  0.00  0.00    -0.078 C 
ATOM     24  C   UNL     1       6.060  -2.378  -0.568  0.00  0.00    -0.019 C 
ATOM     25  C   UNL     1       6.715  -2.644  -1.936  0.00  0.00    -0.002 C 
ATOM     26  C   UNL     1       6.040  -1.834  -3.061  0.00  0.00    -0.002 C 
ATOM     27  C   UNL     1       4.539  -1.810  -2.929  0.00  0.00    -0.019 C 
ATOM     28  C   UNL     1       4.122  -0.554  -2.136  0.00  0.00    -0.078 C 
ATOM     29  H   UNL     1       3.782  -1.514  -0.453  0.00  0.00    -0.081 HD
ENDBRANCH  21  22
BRANCH  21  32
ATOM     30  C   UNL     1       0.480   1.702  -1.069  0.00  0.00    +0.041 A 
ATOM     31  C   UNL     1       1.832   1.932  -0.726  0.00  0.00    +0.043 A 
ATOM     32  C   UNL     1       2.382   0.730  -0.477  0.00  0.00    +0.093 A 
ATOM     33  O   UNL     1       1.440  -0.211  -0.651  0.00  0.00    -0.469 OA
ATOM     34  C   UNL     1       0.284   0.372  -1.010  0.00  0.00    +0.195 A 
ENDBRANCH  21  32
ENDBRANCH  20  21
ENDBRANCH   1  20
TORSDOF 7
