REMARK  Name = ZINC29366626
REMARK  5 active torsions:
REMARK  status: ('A' for Active; 'I' for Inactive)
REMARK    1  A    between atoms: C_1  and  C_2
REMARK    2  A    between atoms: C_5  and  C_9
REMARK    3  A    between atoms: C_6  and  C_8
REMARK    4  A    between atoms: C_11  and  C_14
REMARK    5  A    between atoms: C_14  and  N_15
REMARK                            x       y       z     vdW  Elec       q    Type
REMARK                         _______ _______ _______ _____ _____    ______ ____
ROOT
ATOM      1  N   UNL     1       0.159   0.937  -0.547  0.00  0.00    -0.218 N 
ATOM      2  C   UNL     1       0.478   2.037  -1.261  0.00  0.00    +0.252 C 
ATOM      3  O   UNL     1       1.246   2.920  -0.944  0.00  0.00    -0.272 OA
ATOM      4  C   UNL     1      -0.322   1.935  -2.539  0.00  0.00    +0.144 C 
ATOM      5  C   UNL     1      -1.280   3.116  -2.661  0.00  0.00    +0.081 C 
ATOM      6  C   UNL     1      -1.867   3.117  -4.079  0.00  0.00    +0.232 C 
ATOM      7  O   UNL     1      -0.805   3.329  -5.009  0.00  0.00    -0.492 OA
ATOM      8  C   UNL     1       0.309   2.560  -4.893  0.00  0.00    +0.126 A 
ATOM      9  C   UNL     1       0.596   1.869  -3.727  0.00  0.00    +0.027 A 
ATOM     10  C   UNL     1       1.745   1.100  -3.649  0.00  0.00    +0.010 A 
ATOM     11  C   UNL     1       2.605   1.019  -4.727  0.00  0.00    +0.001 A 
ATOM     12  C   UNL     1       2.320   1.706  -5.892  0.00  0.00    +0.004 A 
ATOM     13  C   UNL     1       1.176   2.475  -5.976  0.00  0.00    +0.046 A 
ATOM     14  N   UNL     1      -1.069   0.680  -2.393  0.00  0.00    -0.281 N 
ATOM     15  C   UNL     1      -0.718   0.164  -1.199  0.00  0.00    +0.310 C 
ATOM     16  O   UNL     1      -1.153  -0.882  -0.761  0.00  0.00    -0.252 OA
ATOM     17  H   UNL     1      -1.750   0.349  -3.192  0.00  0.00    +0.152 HD
ENDROOT
BRANCH   1  18
ATOM     18  C   UNL     1       0.709   0.624   0.774  0.00  0.00    +0.176 C 
BRANCH  18  21
ATOM     19  C   UNL     1      -1.028   2.639   3.222  0.00  0.00    +0.228 A 
ATOM     20  N   UNL     1      -0.105   2.482   2.303  0.00  0.00    -0.212 NA
ATOM     21  C   UNL     1      -0.171   1.224   1.839  0.00  0.00    +0.098 A 
ATOM     22  C   UNL     1      -1.166   0.597   2.492  0.00  0.00    +0.222 A 
ATOM     23  O   UNL     1      -1.697   1.481   3.359  0.00  0.00    -0.443 OA
BRANCH  19  28
ATOM     24  C   UNL     1      -2.040   7.474   6.175  0.00  0.00    +0.044 C 
ATOM     25  C   UNL     1      -1.776   6.208   5.401  0.00  0.00    -0.050 A 
ATOM     26  C   UNL     1      -0.689   6.137   4.548  0.00  0.00    +0.004 A 
ATOM     27  C   UNL     1      -0.437   4.979   3.841  0.00  0.00    +0.014 A 
ATOM     28  C   UNL     1      -1.288   3.881   3.981  0.00  0.00    +0.040 A 
ATOM     29  C   UNL     1      -2.382   3.959   4.843  0.00  0.00    -0.038 A 
ATOM     30  C   UNL     1      -2.620   5.122   5.547  0.00  0.00    +0.007 A 
ATOM     31  C   UNL     1      -3.303   2.777   5.004  0.00  0.00    +0.044 C 
ENDBRANCH  19  28
ENDBRANCH  18  21
ENDBRANCH   1  18
TORSDOF 3
