REMARK  Name = ZINC30872200
REMARK  8 active torsions:
REMARK  status: ('A' for Active; 'I' for Inactive)
REMARK    1  A    between atoms: C_1  and  C_2
REMARK    2  A    between atoms: C_2  and  C_4
REMARK    3  A    between atoms: C_2  and  N_12
REMARK    4  A    between atoms: C_4  and  C_5
REMARK    5  A    between atoms: C_5  and  C_6
REMARK    6  A    between atoms: C_13  and  C_15
REMARK    7  A    between atoms: C_18  and  C_21
REMARK    8  A    between atoms: C_21  and  N_22
REMARK                            x       y       z     vdW  Elec       q    Type
REMARK                         _______ _______ _______ _____ _____    ______ ____
ROOT
ATOM      1  C   UNL     1      -2.885   1.462   0.046  0.00  0.00    +0.037 A 
ATOM      2  C   UNL     1      -2.633   0.092  -0.045  0.00  0.00    +0.013 A 
ATOM      3  C   UNL     1      -3.685  -0.800  -0.046  0.00  0.00    +0.006 A 
ATOM      4  C   UNL     1      -4.987  -0.340   0.031  0.00  0.00    -0.030 A 
ATOM      5  C   UNL     1      -5.244   1.017   0.116  0.00  0.00    +0.006 A 
ATOM      6  C   UNL     1      -4.201   1.920   0.124  0.00  0.00    +0.013 A 
ENDROOT
BRANCH   1   8
ATOM      7  N   UNL     1      -0.493   1.979  -0.022  0.00  0.00    -0.309 N 
ATOM      8  C   UNL     1      -1.763   2.425   0.054  0.00  0.00    +0.244 C 
ATOM      9  O   UNL     1      -1.985   3.617   0.128  0.00  0.00    -0.270 OA
ATOM     10  H   UNL     1      -0.291   0.900  -0.084  0.00  0.00    +0.149 HD
BRANCH   7  12
ATOM     11  C   UNL     1       0.860   3.438  -1.444  0.00  0.00    +0.028 C 
ATOM     12  C   UNL     1       0.619   2.933  -0.020  0.00  0.00    +0.070 C 
BRANCH  12  13
ATOM     13  C   UNL     1       1.883   2.243   0.497  0.00  0.00    +0.026 C 
BRANCH  13  14
ATOM     14  C   UNL     1       1.685   1.849   1.962  0.00  0.00    +0.037 C 
BRANCH  14  15
ATOM     15  C   UNL     1       2.930   1.168   2.471  0.00  0.00    -0.047 A 
ATOM     16  C   UNL     1       3.060  -0.204   2.366  0.00  0.00    +0.003 A 
ATOM     17  C   UNL     1       4.204  -0.827   2.829  0.00  0.00    +0.000 A 
ATOM     18  C   UNL     1       5.213  -0.080   3.406  0.00  0.00    +0.000 A 
ATOM     19  C   UNL     1       5.081   1.292   3.517  0.00  0.00    +0.000 A 
ATOM     20  C   UNL     1       3.939   1.916   3.049  0.00  0.00    +0.003 A 
ENDBRANCH  14  15
ENDBRANCH  13  14
ENDBRANCH  12  13
ENDBRANCH   7  12
ENDBRANCH   1   8
BRANCH   4  21
ATOM     21  C   UNL     1      -6.131  -1.321   0.024  0.00  0.00    +0.140 C 
BRANCH  21  22
ATOM     22  N   UNL     1      -6.559  -1.564  -1.360  0.00  0.00    -0.325 N 
ATOM     23  C   UNL     1      -5.411  -1.858  -2.220  0.00  0.00    +0.106 C 
ATOM     24  C   UNL     1      -5.920  -2.131  -3.642  0.00  0.00    +0.024 C 
ATOM     25  C   UNL     1      -6.699  -3.447  -3.619  0.00  0.00    +0.038 C 
ATOM     26  C   UNL     1      -7.659  -3.449  -2.455  0.00  0.00    -0.026 A 
ATOM     27  C   UNL     1      -7.548  -2.545  -1.413  0.00  0.00    +0.033 A 
ATOM     28  C   UNL     1      -8.461  -2.602  -0.358  0.00  0.00    +0.023 A 
ATOM     29  C   UNL     1      -9.466  -3.545  -0.354  0.00  0.00    +0.002 A 
ATOM     30  C   UNL     1      -9.574  -4.443  -1.400  0.00  0.00    +0.000 A 
ATOM     31  C   UNL     1      -8.673  -4.393  -2.446  0.00  0.00    +0.005 A 
ENDBRANCH  21  22
ENDBRANCH   4  21
TORSDOF 7
