REMARK  Name = ZINC13064308
REMARK  15 active torsions:
REMARK  status: ('A' for Active; 'I' for Inactive)
REMARK    1  A    between atoms: C_1  and  C_2
REMARK    2  A    between atoms: C_2  and  C_3
REMARK    3  A    between atoms: C_3  and  C_5
REMARK    4  A    between atoms: C_3  and  N_69
REMARK    5  A    between atoms: N_9  and  C_10
REMARK    6  A    between atoms: C_10  and  C_11
REMARK    7  A    between atoms: C_10  and  C_12
REMARK    8  A    between atoms: C_10  and  C_13
REMARK    9  A    between atoms: C_14  and  C_15
REMARK   10  A    between atoms: C_14  and  N_69
REMARK   11  A    between atoms: C_18  and  C_21
REMARK   12  A    between atoms: C_22  and  C_23
REMARK   13  A    between atoms: C_22  and  N_69
REMARK   14  A    between atoms: C_28  and  O_35
REMARK   15  A    between atoms: O_35  and  C_36
REMARK                            x       y       z     vdW  Elec       q    Type
REMARK                         _______ _______ _______ _____ _____    ______ ____
ROOT
ATOM      1  N   UNL     1       2.538   1.615   9.869  0.00  0.00    +0.392 N 
ATOM      2  H   UNL     1       3.226   1.514   9.113  0.00  0.00    -0.080 HD
ENDROOT
BRANCH   1   3
ATOM      3  C   UNL     1       1.732   2.830   9.625  0.00  0.00    +0.003 C 
BRANCH   3   4
ATOM      4  C   UNL     1       2.588   3.836   8.899  0.00  0.00    +0.139 A 
ATOM      5  N   UNL     1       3.877   4.021   9.051  0.00  0.00    -0.115 NA
ATOM      6  N   UNL     1       4.239   4.966   8.254  0.00  0.00    -0.023 NA
ATOM      7  N   UNL     1       3.214   5.394   7.603  0.00  0.00    -0.043 NA
ATOM      8  N   UNL     1       2.177   4.721   7.973  0.00  0.00    -0.226 N 
BRANCH   8   9
ATOM      9  C   UNL     1       0.808   4.891   7.478  0.00  0.00    +0.059 C 
ATOM     10  C   UNL     1      -0.153   4.996   8.663  0.00  0.00    +0.036 C 
ATOM     11  C   UNL     1       0.724   6.166   6.638  0.00  0.00    +0.036 C 
ATOM     12  C   UNL     1       0.426   3.686   6.616  0.00  0.00    +0.036 C 
ENDBRANCH   8   9
ENDBRANCH   3   4
BRANCH   3  14
ATOM     13  C   UNL     1       0.280   2.462  11.625  0.00  0.00    +0.002 C 
ATOM     14  C   UNL     1       1.256   3.428  10.951  0.00  0.00    -0.011 C 
ENDBRANCH   3  14
ENDBRANCH   1   3
BRANCH   1  15
ATOM     15  C   UNL     1       3.253   1.733  11.157  0.00  0.00    -0.042 C 
BRANCH  15  16
ATOM     16  C   UNL     1       4.410   2.682  10.982  0.00  0.00    -0.064 A 
ATOM     17  C   UNL     1       5.570   2.252  10.365  0.00  0.00    +0.002 A 
ATOM     18  C   UNL     1       6.630   3.124  10.201  0.00  0.00    +0.003 A 
ATOM     19  C   UNL     1       6.534   4.423  10.663  0.00  0.00    -0.050 A 
ATOM     20  C   UNL     1       5.376   4.852  11.285  0.00  0.00    +0.003 A 
ATOM     21  C   UNL     1       4.314   3.981  11.445  0.00  0.00    +0.002 A 
ATOM     22  C   UNL     1       7.691   5.372  10.489  0.00  0.00    +0.044 C 
ENDBRANCH  15  16
ENDBRANCH   1  15
BRANCH   1  23
ATOM     23  C   UNL     1       1.663   0.424   9.883  0.00  0.00    -0.036 C 
BRANCH  23  24
ATOM     24  C   UNL     1       1.334   0.049   8.461  0.00  0.00    +0.001 A 
ATOM     25  C   UNL     1       2.120  -0.836   7.797  0.00  0.00    +0.017 A 
ATOM     26  C   UNL     1       1.774  -1.179   6.418  0.00  0.00    -0.001 A 
ATOM     27  C   UNL     1       2.547  -2.086   5.683  0.00  0.00    +0.013 A 
ATOM     28  C   UNL     1       2.198  -2.391   4.400  0.00  0.00    +0.046 A 
ATOM     29  C   UNL     1       1.082  -1.799   3.810  0.00  0.00    +0.122 A 
ATOM     30  C   UNL     1       0.304  -0.900   4.520  0.00  0.00    +0.072 A 
ATOM     31  C   UNL     1       0.642  -0.582   5.829  0.00  0.00    +0.053 A 
ATOM     32  N   UNL     1      -0.115   0.310   6.560  0.00  0.00    -0.322 N 
ATOM     33  H   UNL     1      -0.894   0.721   6.153  0.00  0.00    +0.169 HD
ATOM     34  C   UNL     1       0.212   0.619   7.827  0.00  0.00    +0.251 A 
ATOM     35  O   UNL     1      -0.479   1.412   8.442  0.00  0.00    -0.268 OA
BRANCH  29  36
ATOM     36  O   UNL     1       0.751  -2.110   2.531  0.00  0.00    -0.495 OA
ATOM     37  C   UNL     1       1.594  -3.044   1.852  0.00  0.00    +0.277 C 
ENDBRANCH  29  36
ENDBRANCH  23  24
ENDBRANCH   1  23
TORSDOF 9
