REMARK  Name = ZINC14274572
REMARK  8 active torsions:
REMARK  status: ('A' for Active; 'I' for Inactive)
REMARK    1  A    between atoms: C_1  and  C_2
REMARK    2  A    between atoms: C_2  and  C_4
REMARK    3  A    between atoms: C_2  and  N_14
REMARK    4  A    between atoms: N_14  and  C_15
REMARK    5  A    between atoms: C_15  and  N_17
REMARK    6  A    between atoms: C_18  and  C_20
REMARK    7  A    between atoms: C_21  and  C_22
REMARK    8  A    between atoms: C_25  and  C_27
REMARK                            x       y       z     vdW  Elec       q    Type
REMARK                         _______ _______ _______ _____ _____    ______ ____
ROOT
ATOM      1  N   UNL     1      -1.197   2.366   0.021  0.00  0.00    -0.264 N 
ATOM      2  C   UNL     1      -2.355   1.676   0.022  0.00  0.00    +0.242 C 
ATOM      3  O   UNL     1      -2.339   0.458   0.016  0.00  0.00    -0.270 OA
ATOM      4  H   UNL     1      -1.210   3.336   0.026  0.00  0.00    +0.157 HD
ENDROOT
BRANCH   1   5
ATOM      5  C   UNL     1      -0.021   1.708   0.011  0.00  0.00    +0.137 C 
ATOM      6  S   UNL     1       0.002  -0.004   0.002  0.00  0.00    -0.018 S 
BRANCH   5   7
ATOM      7  N   UNL     1       1.137   2.397   0.004  0.00  0.00    -0.323 N 
ATOM      8  H   UNL     1       1.124   3.367   0.009  0.00  0.00    +0.148 HD
BRANCH   7  10
ATOM      9  C   UNL     1       2.785   1.331  -1.454  0.00  0.00    +0.028 C 
ATOM     10  C   UNL     1       2.415   1.682  -0.012  0.00  0.00    +0.075 C 
BRANCH  10  11
ATOM     11  C   UNL     1       3.504   2.571   0.592  0.00  0.00    -0.010 C 
ATOM     12  C   UNL     1       3.134   2.922   2.035  0.00  0.00    +0.012 C 
ATOM     13  C   UNL     1       4.223   3.811   2.639  0.00  0.00    -0.010 C 
ATOM     14  C   UNL     1       5.559   3.064   2.622  0.00  0.00    +0.007 C 
ATOM     15  C   UNL     1       5.929   2.713   1.179  0.00  0.00    -0.010 C 
ATOM     16  C   UNL     1       4.840   1.824   0.575  0.00  0.00    +0.012 C 
ATOM     17  C   UNL     1       6.053   3.998   0.358  0.00  0.00    +0.007 C 
ATOM     18  C   UNL     1       4.717   4.744   0.374  0.00  0.00    -0.010 C 
ATOM     19  C   UNL     1       4.347   5.095   1.817  0.00  0.00    +0.007 C 
ATOM     20  C   UNL     1       3.628   3.856  -0.230  0.00  0.00    +0.012 C 
ENDBRANCH  10  11
ENDBRANCH   7  10
ENDBRANCH   5   7
ENDBRANCH   1   5
BRANCH   2  21
ATOM     21  C   UNL     1      -3.588   2.366   0.032  0.00  0.00    +0.071 C 
ATOM     22  C   UNL     1      -4.756   1.670   0.034  0.00  0.00    +0.051 C 
BRANCH  22  23
ATOM     23  C   UNL     1      -5.989   2.360   0.043  0.00  0.00    +0.129 A 
ATOM     24  C   UNL     1      -7.243   1.778   0.046  0.00  0.00    +0.050 A 
ATOM     25  C   UNL     1      -8.172   2.820   0.056  0.00  0.00    +0.050 A 
ATOM     26  C   UNL     1      -7.457   3.997   0.059  0.00  0.00    +0.137 A 
ATOM     27  O   UNL     1      -6.145   3.700   0.057  0.00  0.00    -0.455 OA
BRANCH  26  28
ATOM     28  C   UNL     1      -8.033   5.355   0.069  0.00  0.00    +0.036 A 
ATOM     29  C   UNL     1      -9.022   5.705  -0.854  0.00  0.00    +0.014 A 
ATOM     30  C   UNL     1      -9.559   6.975  -0.836  0.00  0.00    +0.021 A 
ATOM     31  C   UNL     1      -9.113   7.907   0.087  0.00  0.00    +0.042 A 
ATOM     32  C   UNL     1      -8.130   7.569   1.002  0.00  0.00    +0.040 A 
ATOM     33  C   UNL     1      -7.587   6.300   0.998  0.00  0.00    +0.053 A 
ATOM     34 CL   UNL     1      -6.353   5.879   2.145  0.00  0.00    -0.083 Cl
ATOM     35 CL   UNL     1      -9.791   9.505   0.097  0.00  0.00    -0.083 Cl
ENDBRANCH  26  28
ENDBRANCH  22  23
ENDBRANCH   2  21
TORSDOF 7
