REMARK  Name = ZINC32603882
REMARK  7 active torsions:
REMARK  status: ('A' for Active; 'I' for Inactive)
REMARK    1  A    between atoms: C_1  and  C_2
REMARK    2  A    between atoms: C_2  and  O_3
REMARK    3  A    between atoms: O_3  and  C_4
REMARK    4  A    between atoms: C_4  and  C_6
REMARK    5  A    between atoms: N_11  and  C_12
REMARK    6  A    between atoms: C_15  and  C_18
REMARK    7  A    between atoms: C_21  and  C_28
REMARK                            x       y       z     vdW  Elec       q    Type
REMARK                         _______ _______ _______ _____ _____    ______ ____
ROOT
ATOM      1  C   UNL     1      -4.374  -6.569  -3.099  0.00  0.00    +0.111 C 
ATOM      2  C   UNL     1      -3.249  -6.072  -2.542  0.00  0.00    +0.025 C 
ATOM      3  C   UNL     1      -3.368  -4.837  -1.684  0.00  0.00    +0.126 C 
ATOM      4  S   UNL     1      -1.830  -3.882  -1.866  0.00  0.00    -0.098 S 
ATOM      5  C   UNL     1      -0.752  -4.806  -0.826  0.00  0.00    +0.124 C 
ATOM      6  N   UNL     1       0.056  -4.139  -0.021  0.00  0.00    -0.239 NA
ATOM      7  C   UNL     1      -0.695  -6.206  -0.804  0.00  0.00    +0.101 A 
ATOM      8  C   UNL     1      -1.311  -7.092  -1.686  0.00  0.00    +0.078 A 
ATOM      9  C   UNL     1      -1.014  -8.400  -1.272  0.00  0.00    +0.099 A 
ATOM     10  C   UNL     1      -0.197  -8.291  -0.126  0.00  0.00    +0.066 A 
ATOM     11  N   UNL     1      -0.012  -6.964   0.141  0.00  0.00    -0.311 N 
ATOM     12  C   UNL     1       0.754  -6.580   1.202  0.00  0.00    +0.092 A 
ATOM     13  C   UNL     1       1.333  -7.500   2.006  0.00  0.00    +0.018 A 
ATOM     14  C   UNL     1       1.153  -8.867   1.758  0.00  0.00    +0.003 A 
ATOM     15  C   UNL     1       0.392  -9.262   0.696  0.00  0.00    +0.027 A 
ATOM     16  N   UNL     1      -2.082  -6.710  -2.788  0.00  0.00    -0.314 N 
ATOM     17  H   UNL     1      -1.773  -6.910  -3.825  0.00  0.00    +0.152 HD
ENDROOT
BRANCH   6  18
ATOM     18  C   UNL     1       0.039  -2.774  -0.013  0.00  0.00    +0.065 A 
ATOM     19  C   UNL     1       0.041  -2.078   1.199  0.00  0.00    +0.028 A 
ATOM     20  C   UNL     1       0.023  -0.699   1.199  0.00  0.00    +0.005 A 
ATOM     21  C   UNL     1       0.002  -0.004   0.002  0.00  0.00    -0.050 A 
ATOM     22  C   UNL     1      -0.006  -0.686  -1.202  0.00  0.00    +0.005 A 
ATOM     23  C   UNL     1       0.018  -2.065  -1.218  0.00  0.00    +0.028 A 
ATOM     24  C   UNL     1      -0.018   1.503   0.010  0.00  0.00    +0.044 C 
ENDBRANCH   6  18
BRANCH   1  25
ATOM     25  C   UNL     1      -4.311  -7.723  -3.910  0.00  0.00    +0.333 C 
ATOM     26  O   UNL     1      -3.241  -8.270  -4.107  0.00  0.00    -0.246 OA
BRANCH  25  27
ATOM     27  O   UNL     1      -5.436  -8.220  -4.466  0.00  0.00    -0.462 OA
BRANCH  27  29
ATOM     28  C   UNL     1      -6.668  -9.802  -5.814  0.00  0.00    +0.048 C 
ATOM     29  C   UNL     1      -5.297  -9.390  -5.274  0.00  0.00    +0.229 C 
ENDBRANCH  27  29
ENDBRANCH  25  27
ENDBRANCH   1  25
BRANCH   9  30
ATOM     30  C   UNL     1      -1.456  -9.613  -1.892  0.00  0.00    +0.103 C 
ATOM     31  N   UNL     1      -1.806 -10.574  -2.385  0.00  0.00    -0.191 NA
ENDBRANCH   9  30
TORSDOF 5
