REMARK  Name = ZINC00985838
REMARK  10 active torsions:
REMARK  status: ('A' for Active; 'I' for Inactive)
REMARK    1  A    between atoms: C_1  and  C_2
REMARK    2  A    between atoms: C_2  and  C_3
REMARK    3  A    between atoms: C_2  and  C_4
REMARK    4  A    between atoms: C_4  and  C_5
REMARK    5  A    between atoms: C_8  and  C_11
REMARK    6  A    between atoms: C_18  and  N_34
REMARK    7  A    between atoms: C_19  and  C_32
REMARK    8  A    between atoms: C_20  and  C_22
REMARK    9  A    between atoms: C_25  and  N_28
REMARK   10  A    between atoms: C_29  and  C_31
REMARK                            x       y       z     vdW  Elec       q    Type
REMARK                         _______ _______ _______ _____ _____    ______ ____
ROOT
ATOM      1  C   UNL     1      -4.371   0.934  -5.114  0.00  0.00    +0.100 A 
ATOM      2  C   UNL     1      -3.710   0.754  -6.333  0.00  0.00    +0.054 A 
ATOM      3  C   UNL     1      -4.521   1.221  -7.327  0.00  0.00    +0.223 A 
ATOM      4  N   UNL     1      -5.653   1.677  -6.752  0.00  0.00    -0.246 N 
ATOM      5  H   UNL     1      -6.412   2.066  -7.215  0.00  0.00    +0.192 HD
ATOM      6  N   UNL     1      -5.543   1.485  -5.366  0.00  0.00    -0.171 NA
ATOM      7  O   UNL     1      -4.166   1.193  -8.635  0.00  0.00    -0.423 OA
ATOM      8  C   UNL     1      -2.873   0.944  -8.927  0.00  0.00    +0.200 C 
ATOM      9  C   UNL     1      -1.979   0.468  -8.032  0.00  0.00    +0.098 C 
ATOM     10  C   UNL     1      -2.350   0.163  -6.602  0.00  0.00    +0.102 C 
ENDROOT
BRANCH   1  14
ATOM     11  C   UNL     1      -2.875  -0.126  -1.277  0.00  0.00    -0.047 A 
ATOM     12  C   UNL     1      -4.197  -0.381  -1.596  0.00  0.00    +0.004 A 
ATOM     13  C   UNL     1      -4.688  -0.039  -2.840  0.00  0.00    +0.010 A 
ATOM     14  C   UNL     1      -3.849   0.564  -3.775  0.00  0.00    +0.003 A 
ATOM     15  C   UNL     1      -2.519   0.819  -3.449  0.00  0.00    +0.010 A 
ATOM     16  C   UNL     1      -2.040   0.477  -2.200  0.00  0.00    +0.004 A 
BRANCH  11  17
ATOM     17  C   UNL     1      -2.345  -0.501   0.083  0.00  0.00    +0.038 C 
BRANCH  17  19
ATOM     18  C   UNL     1      -4.041   0.914   1.251  0.00  0.00    +0.007 C 
ATOM     19  C   UNL     1      -2.544   0.669   1.048  0.00  0.00    -0.013 C 
ATOM     20  C   UNL     1      -1.895   0.336   2.393  0.00  0.00    +0.007 C 
ENDBRANCH  17  19
ENDBRANCH  11  17
ENDBRANCH   1  14
BRANCH  10  21
ATOM     21  C   UNL     1      -2.395  -1.329  -6.396  0.00  0.00    -0.034 A 
ATOM     22  C   UNL     1      -3.286  -2.100  -7.120  0.00  0.00    +0.006 A 
ATOM     23  C   UNL     1      -3.329  -3.467  -6.933  0.00  0.00    +0.023 A 
ATOM     24  C   UNL     1      -2.477  -4.069  -6.017  0.00  0.00    +0.033 A 
ATOM     25  C   UNL     1      -1.583  -3.292  -5.291  0.00  0.00    +0.023 A 
ATOM     26  C   UNL     1      -1.541  -1.926  -5.486  0.00  0.00    +0.006 A 
BRANCH  24  27
ATOM     27  N   UNL     1      -2.519  -5.454  -5.825  0.00  0.00    -0.286 N 
ATOM     28  C   UNL     1      -2.781  -6.271  -6.864  0.00  0.00    +0.214 C 
ATOM     29  O   UNL     1      -3.056  -5.803  -7.949  0.00  0.00    -0.276 OA
ATOM     30  C   UNL     1      -2.731  -7.766  -6.679  0.00  0.00    +0.109 C 
ATOM     31  H   UNL     1      -2.359  -5.827  -4.943  0.00  0.00    +0.155 HD
ENDBRANCH  24  27
ENDBRANCH  10  21
BRANCH   8  32
ATOM     32  N   UNL     1      -2.440   1.187 -10.207  0.00  0.00    -0.328 N 
ATOM     33  H   UNL     1      -3.059   1.528 -10.871  0.00  0.00    +0.145 HD
ATOM     34  H   UNL     1      -1.516   1.017 -10.447  0.00  0.00    +0.145 HD
ENDBRANCH   8  32
BRANCH   9  35
ATOM     35  C   UNL     1      -0.629   0.246  -8.457  0.00  0.00    +0.101 C 
ATOM     36  N   UNL     1       0.441   0.069  -8.794  0.00  0.00    -0.191 NA
ENDBRANCH   9  35
TORSDOF 7
