REMARK  Name = ZINC02418639
REMARK  7 active torsions:
REMARK  status: ('A' for Active; 'I' for Inactive)
REMARK    1  A    between atoms: C_1  and  C_2
REMARK    2  A    between atoms: C_5  and  C_34
REMARK    3  A    between atoms: C_6  and  S_8
REMARK    4  A    between atoms: S_8  and  C_11
REMARK    5  A    between atoms: N_22  and  N_25
REMARK    6  A    between atoms: C_23  and  N_24
REMARK    7  A    between atoms: C_26  and  C_27
REMARK                            x       y       z     vdW  Elec       q    Type
REMARK                         _______ _______ _______ _____ _____    ______ ____
ROOT
ATOM      1  C   UNL     1       1.369  -0.375  -0.013  0.00  0.00    +0.162 A 
ATOM      2  C   UNL     1       0.002  -0.004   0.002  0.00  0.00    +0.137 A 
ATOM      3  C   UNL     1      -0.018   1.464   0.010  0.00  0.00    +0.184 A 
ATOM      4  N   UNL     1      -1.168   2.100   0.020  0.00  0.00    -0.224 NA
ATOM      5  C   UNL     1      -2.313   1.406   0.030  0.00  0.00    +0.092 A 
ATOM      6  C   UNL     1      -3.549   2.078   0.045  0.00  0.00    +0.030 A 
ATOM      7  C   UNL     1      -4.708   1.365   0.052  0.00  0.00    +0.002 A 
ATOM      8  C   UNL     1      -4.692  -0.028   0.045  0.00  0.00    +0.002 A 
ATOM      9  C   UNL     1      -3.518  -0.714   0.031  0.00  0.00    +0.030 A 
ATOM     10  C   UNL     1      -2.297  -0.012   0.023  0.00  0.00    +0.090 A 
ATOM     11  N   UNL     1      -1.137  -0.677   0.009  0.00  0.00    -0.240 NA
ATOM     12  N   UNL     1       1.303   1.869  -0.000  0.00  0.00    -0.197 N 
ATOM     13  C   UNL     1       2.112   0.757  -0.014  0.00  0.00    +0.148 A 
ENDROOT
BRANCH   1  14
ATOM     14  S   UNL     1       1.994  -2.022  -0.028  0.00  0.00    +0.031 S 
ATOM     15  O   UNL     1       3.307  -1.963   0.510  0.00  0.00    -0.164 OA
ATOM     16  O   UNL     1       0.979  -2.847   0.527  0.00  0.00    -0.164 OA
BRANCH  14  22
ATOM     17  C   UNL     1       4.915  -3.406  -4.136  0.00  0.00    +0.044 C 
ATOM     18  C   UNL     1       3.549  -3.128  -3.564  0.00  0.00    -0.049 A 
ATOM     19  C   UNL     1       2.428  -3.248  -4.364  0.00  0.00    +0.004 A 
ATOM     20  C   UNL     1       1.174  -2.993  -3.840  0.00  0.00    +0.005 A 
ATOM     21  C   UNL     1       1.042  -2.619  -2.516  0.00  0.00    -0.025 A 
ATOM     22  C   UNL     1       2.163  -2.499  -1.716  0.00  0.00    +0.097 A 
ATOM     23  C   UNL     1       3.417  -2.749  -2.242  0.00  0.00    +0.031 A 
ATOM     24  C   UNL     1      -0.325  -2.341  -1.945  0.00  0.00    +0.046 C 
ENDBRANCH  14  22
ENDBRANCH   1  14
BRANCH  13  25
ATOM     25  N   UNL     1       3.495   0.791  -0.027  0.00  0.00    -0.341 N 
ATOM     26  H   UNL     1       4.000  -0.037  -0.036  0.00  0.00    +0.144 HD
ATOM     27  H   UNL     1       3.959   1.642  -0.026  0.00  0.00    +0.144 HD
ENDBRANCH  13  25
BRANCH  12  28
ATOM     28  N   UNL     1       1.746   3.197   0.003  0.00  0.00    -0.171 NA
ATOM     29  C   UNL     1       1.963   3.807   1.127  0.00  0.00    +0.141 C 
BRANCH  29  30
ATOM     30  C   UNL     1       2.430   5.205   1.131  0.00  0.00    -0.005 A 
ATOM     31  C   UNL     1       2.646   5.876  -0.076  0.00  0.00    +0.011 A 
ATOM     32  C   UNL     1       3.079   7.185  -0.066  0.00  0.00    +0.020 A 
ATOM     33  C   UNL     1       3.309   7.832   1.136  0.00  0.00    +0.041 A 
ATOM     34  C   UNL     1       3.102   7.172   2.336  0.00  0.00    +0.020 A 
ATOM     35  C   UNL     1       2.664   5.864   2.340  0.00  0.00    +0.011 A 
ATOM     36 CL   UNL     1       3.860   9.479   1.140  0.00  0.00    -0.084 Cl
ENDBRANCH  29  30
ENDBRANCH  12  28
TORSDOF 5
