REMARK  Name = ZINC35867074
REMARK  6 active torsions:
REMARK  status: ('A' for Active; 'I' for Inactive)
REMARK    1  A    between atoms: C_1  and  C_2
REMARK    2  A    between atoms: C_2  and  C_3
REMARK    3  A    between atoms: C_3  and  C_4
REMARK    4  A    between atoms: N_25  and  C_26
REMARK    5  A    between atoms: C_31  and  C_32
REMARK    6  A    between atoms: C_32  and  C_33
REMARK                            x       y       z     vdW  Elec       q    Type
REMARK                         _______ _______ _______ _____ _____    ______ ____
ROOT
ATOM      1  C   UNL     1      -2.777  -2.842   0.444  0.00  0.00    +0.132 A 
ATOM      2  N   UNL     1      -2.776  -3.485  -0.710  0.00  0.00    -0.217 NA
ATOM      3  C   UNL     1      -1.764  -4.247  -1.093  0.00  0.00    +0.133 A 
ATOM      4  C   UNL     1      -0.636  -4.380  -0.235  0.00  0.00    +0.051 A 
ATOM      5  C   UNL     1       0.586  -5.160  -0.443  0.00  0.00    -0.025 A 
ATOM      6  C   UNL     1       1.513  -5.116   0.536  0.00  0.00    -0.004 A 
ATOM      7  S   UNL     1       0.827  -4.050   1.775  0.00  0.00    -0.073 S 
ATOM      8  C   UNL     1      -0.709  -3.665   0.976  0.00  0.00    +0.114 A 
ATOM      9  N   UNL     1      -1.757  -2.923   1.277  0.00  0.00    -0.225 NA
ATOM     10  C   UNL     1       2.836  -5.819   0.565  0.00  0.00    +0.043 C 
ATOM     11  C   UNL     1       2.832  -6.903  -0.522  0.00  0.00    +0.005 C 
ATOM     12  C   UNL     1       2.314  -6.289  -1.826  0.00  0.00    +0.005 C 
ATOM     13  C   UNL     1       0.820  -5.991  -1.701  0.00  0.00    +0.037 C 
ATOM     14  N   UNL     1      -1.801  -4.904  -2.309  0.00  0.00    -0.312 N 
ATOM     15  C   UNL     1      -2.228  -6.308  -2.388  0.00  0.00    +0.125 C 
ATOM     16  C   UNL     1      -3.385  -6.413  -3.389  0.00  0.00    +0.128 C 
ATOM     17  N   UNL     1      -2.999  -5.720  -4.627  0.00  0.00    -0.282 N 
ATOM     18  C   UNL     1      -2.572  -4.316  -4.548  0.00  0.00    +0.128 C 
ATOM     19  C   UNL     1      -1.421  -4.209  -3.547  0.00  0.00    +0.125 C 
ATOM     20  C   UNL     1      -3.035  -6.361  -5.812  0.00  0.00    +0.307 C 
ATOM     21  O   UNL     1      -3.477  -7.492  -5.878  0.00  0.00    -0.252 OA
ATOM     22  N   UNL     1      -2.582  -5.748  -6.923  0.00  0.00    -0.269 N 
ATOM     23  H   UNL     1      -2.184  -4.865  -6.862  0.00  0.00    +0.156 HD
ENDROOT
BRANCH  22  24
ATOM     24  C   UNL     1      -2.685  -6.385  -8.165  0.00  0.00    +0.038 A 
ATOM     25  C   UNL     1      -2.679  -7.772  -8.238  0.00  0.00    +0.023 A 
ATOM     26  C   UNL     1      -2.781  -8.398  -9.465  0.00  0.00    +0.002 A 
ATOM     27  C   UNL     1      -2.890  -7.645 -10.620  0.00  0.00    +0.000 A 
ATOM     28  C   UNL     1      -2.896  -6.264 -10.550  0.00  0.00    +0.005 A 
ATOM     29  C   UNL     1      -2.800  -5.632  -9.326  0.00  0.00    -0.026 A 
BRANCH  29  30
ATOM     30  C   UNL     1      -2.813  -4.127  -9.250  0.00  0.00    +0.033 C 
ATOM     31  C   UNL     1      -1.375  -3.605  -9.229  0.00  0.00    +0.009 C 
ENDBRANCH  29  30
ENDBRANCH  22  24
BRANCH   1  32
ATOM     32  C   UNL     1      -3.965  -1.993   0.814  0.00  0.00    +0.076 C 
BRANCH  32  34
ATOM     33  C   UNL     1      -4.961   0.294   0.674  0.00  0.00    +0.004 C 
ATOM     34  C   UNL     1      -3.754  -0.568   0.298  0.00  0.00    +0.004 C 
ENDBRANCH  32  34
ENDBRANCH   1  32
TORSDOF 4
