REMARK  Name = ZINC36575690
REMARK  9 active torsions:
REMARK  status: ('A' for Active; 'I' for Inactive)
REMARK    1  A    between atoms: C_1  and  O_2
REMARK    2  A    between atoms: O_2  and  C_3
REMARK    3  A    between atoms: C_3  and  C_5
REMARK    4  A    between atoms: C_5  and  C_7
REMARK    5  A    between atoms: C_5  and  N_11
REMARK    6  A    between atoms: C_7  and  C_8
REMARK    7  A    between atoms: C_8  and  S_9
REMARK    8  A    between atoms: S_9  and  C_10
REMARK    9  A    between atoms: C_23  and  C_25
REMARK                            x       y       z     vdW  Elec       q    Type
REMARK                         _______ _______ _______ _____ _____    ______ ____
ROOT
ATOM      1  N   UNL     1      -2.725  -2.375  -2.240  0.00  0.00    -0.286 N 
ATOM      2  C   UNL     1      -3.360  -2.672  -1.089  0.00  0.00    +0.304 C 
ATOM      3  O   UNL     1      -2.746  -2.675  -0.039  0.00  0.00    -0.253 OA
ATOM      4  N   UNL     1      -4.675  -2.967  -1.101  0.00  0.00    -0.273 N 
ATOM      5  C   UNL     1      -5.412  -3.177   0.154  0.00  0.00    +0.116 C 
ATOM      6  C   UNL     1      -6.475  -2.081   0.301  0.00  0.00    +0.074 C 
ATOM      7  C   UNL     1      -7.186  -1.915  -1.016  0.00  0.00    +0.040 A 
ATOM      8  C   UNL     1      -6.719  -2.352  -2.206  0.00  0.00    +0.062 A 
ATOM      9  N   UNL     1      -7.608  -2.026  -3.146  0.00  0.00    -0.348 N 
ATOM     10  C   UNL     1      -8.614  -1.404  -2.587  0.00  0.00    +0.171 A 
ATOM     11  N   UNL     1      -8.386  -1.316  -1.257  0.00  0.00    -0.349 N 
ATOM     12  H   UNL     1      -8.967  -0.905  -0.598  0.00  0.00    +0.166 HD
ATOM     13  C   UNL     1      -5.411  -3.080  -2.373  0.00  0.00    +0.157 C 
ATOM     14  H   UNL     1      -3.194  -2.449  -3.085  0.00  0.00    +0.151 HD
ATOM     15  H   UNL     1      -7.522  -2.220  -4.093  0.00  0.00    +0.167 HD
ENDROOT
BRANCH  13  16
ATOM     16  C   UNL     1      -5.673  -4.530  -2.687  0.00  0.00    -0.003 A 
ATOM     17  C   UNL     1      -6.468  -5.287  -1.847  0.00  0.00    +0.009 A 
ATOM     18  C   UNL     1      -6.709  -6.617  -2.135  0.00  0.00    +0.020 A 
ATOM     19  C   UNL     1      -6.153  -7.192  -3.264  0.00  0.00    +0.042 A 
ATOM     20  C   UNL     1      -5.357  -6.436  -4.105  0.00  0.00    +0.040 A 
ATOM     21  C   UNL     1      -5.121  -5.103  -3.819  0.00  0.00    +0.048 A 
ATOM     22 CL   UNL     1      -4.127  -4.151  -4.878  0.00  0.00    -0.083 Cl
ATOM     23 CL   UNL     1      -6.454  -8.864  -3.624  0.00  0.00    -0.083 Cl
ENDBRANCH  13  16
BRANCH   1  24
ATOM     24  C   UNL     1      -1.326  -1.941  -2.213  0.00  0.00    +0.184 C 
BRANCH  24  25
ATOM     25  C   UNL     1      -0.425  -3.148  -2.196  0.00  0.00    +0.327 C 
ATOM     26  O   UNL     1      -0.902  -4.258  -2.205  0.00  0.00    -0.249 OA
BRANCH  25  28
ATOM     27  C   UNL     1       1.701  -4.179  -2.156  0.00  0.00    +0.280 C 
ATOM     28  O   UNL     1       0.908  -2.991  -2.171  0.00  0.00    -0.467 OA
ENDBRANCH  25  28
ENDBRANCH  24  25
BRANCH  24  29
ATOM     29  C   UNL     1      -1.030  -1.100  -3.457  0.00  0.00    +0.044 C 
BRANCH  29  30
ATOM     30  C   UNL     1      -1.855   0.187  -3.411  0.00  0.00    +0.071 C 
BRANCH  30  31
ATOM     31  S   UNL     1      -1.503   1.183  -4.886  0.00  0.00    -0.164 S 
ATOM     32  C   UNL     1      -2.545   2.654  -4.681  0.00  0.00    +0.084 C 
ENDBRANCH  30  31
ENDBRANCH  29  30
ENDBRANCH  24  29
ENDBRANCH   1  24
TORSDOF 7
