REMARK  Name = ZINC14157107
REMARK  8 active torsions:
REMARK  status: ('A' for Active; 'I' for Inactive)
REMARK    1  A    between atoms: C_1  and  C_2
REMARK    2  A    between atoms: C_4  and  C_31
REMARK    3  A    between atoms: N_10  and  C_11
REMARK    4  A    between atoms: C_11  and  N_13
REMARK    5  A    between atoms: N_13  and  C_14
REMARK    6  A    between atoms: N_21  and  C_22
REMARK    7  A    between atoms: C_22  and  C_23
REMARK    8  A    between atoms: C_23  and  C_24
REMARK                            x       y       z     vdW  Elec       q    Type
REMARK                         _______ _______ _______ _____ _____    ______ ____
ROOT
ATOM      1  C   UNL     1      -5.780   1.429  -0.045  0.00  0.00    +0.066 C 
ATOM      2  C   UNL     1      -5.934   2.926   0.021  0.00  0.00    +0.044 A 
ATOM      3  C   UNL     1      -7.194   3.502   0.051  0.00  0.00    +0.046 A 
ATOM      4  C   UNL     1      -7.290   4.883   0.112  0.00  0.00    +0.044 A 
ATOM      5  N   UNL     1      -6.183   5.606   0.140  0.00  0.00    -0.217 NA
ATOM      6  C   UNL     1      -4.994   5.025   0.109  0.00  0.00    +0.231 A 
ATOM      7  N   UNL     1      -4.867   3.708   0.046  0.00  0.00    -0.217 NA
ATOM      8  N   UNL     1      -3.852   5.815   0.139  0.00  0.00    -0.297 N 
ATOM      9  C   UNL     1      -2.615   5.231   0.108  0.00  0.00    +0.195 C 
ATOM     10  N   UNL     1      -2.506   3.915   0.050  0.00  0.00    -0.159 NA
ATOM     11  N   UNL     1      -1.493   6.008   0.137  0.00  0.00    -0.357 N 
ATOM     12  C   UNL     1      -8.640   5.553   0.148  0.00  0.00    +0.066 C 
ATOM     13  H   UNL     1      -3.932   6.781   0.181  0.00  0.00    +0.171 HD
ATOM     14  H   UNL     1      -0.616   5.595   0.098  0.00  0.00    +0.162 HD
ENDROOT
BRANCH  10  15
ATOM     15  C   UNL     1      -1.299   3.337   0.135  0.00  0.00    +0.162 C 
ATOM     16  S   UNL     1      -0.381   3.478   1.573  0.00  0.00    -0.016 S 
BRANCH  15  17
ATOM     17  N   UNL     1      -0.808   2.646  -0.913  0.00  0.00    -0.294 N 
ATOM     18  H   UNL     1      -1.296   2.624  -1.751  0.00  0.00    +0.154 HD
BRANCH  17  19
ATOM     19  C   UNL     1       0.405   1.960  -0.792  0.00  0.00    +0.051 A 
ATOM     20  C   UNL     1       1.506   2.589  -0.226  0.00  0.00    +0.025 A 
ATOM     21  C   UNL     1       2.704   1.911  -0.113  0.00  0.00    +0.002 A 
ATOM     22  C   UNL     1       2.808   0.607  -0.563  0.00  0.00    +0.002 A 
ATOM     23  C   UNL     1       1.714  -0.023  -1.126  0.00  0.00    +0.022 A 
ATOM     24  C   UNL     1       0.512   0.650  -1.242  0.00  0.00    +0.062 A 
ATOM     25 CL   UNL     1      -0.861  -0.141  -1.951  0.00  0.00    -0.082 Cl
ENDBRANCH  17  19
ENDBRANCH  15  17
ENDBRANCH  10  15
BRANCH  11  26
ATOM     26  C   UNL     1      -1.613   7.465   0.227  0.00  0.00    +0.120 C 
BRANCH  26  27
ATOM     27  C   UNL     1      -0.217   8.092   0.242  0.00  0.00    +0.056 C 
BRANCH  27  28
ATOM     28  C   UNL     1      -0.340   9.591   0.335  0.00  0.00    -0.046 A 
ATOM     29  C   UNL     1      -0.410  10.351  -0.818  0.00  0.00    +0.005 A 
ATOM     30  C   UNL     1      -0.529  11.725  -0.734  0.00  0.00    +0.020 A 
ATOM     31  C   UNL     1      -0.567  12.341   0.504  0.00  0.00    +0.041 A 
ATOM     32  C   UNL     1      -0.491  11.581   1.657  0.00  0.00    +0.020 A 
ATOM     33  C   UNL     1      -0.378  10.206   1.572  0.00  0.00    +0.005 A 
ATOM     34 CL   UNL     1      -0.710  14.068   0.610  0.00  0.00    -0.084 Cl
ENDBRANCH  27  28
ENDBRANCH  26  27
ENDBRANCH  11  26
TORSDOF 6
