REMARK  Name = ZINC63069332
REMARK  10 active torsions:
REMARK  status: ('A' for Active; 'I' for Inactive)
REMARK    1  A    between atoms: C_1  and  O_2
REMARK    2  A    between atoms: O_2  and  C_3
REMARK    3  A    between atoms: C_6  and  C_9
REMARK    4  A    between atoms: C_9  and  C_11
REMARK    5  A    between atoms: C_9  and  C_26
REMARK    6  A    between atoms: C_11  and  N_12
REMARK    7  A    between atoms: C_13  and  C_15
REMARK    8  A    between atoms: C_15  and  O_16
REMARK    9  A    between atoms: O_16  and  C_17
REMARK   10  A    between atoms: C_20  and  C_23
REMARK                            x       y       z     vdW  Elec       q    Type
REMARK                         _______ _______ _______ _____ _____    ______ ____
ROOT
ATOM      1  C   UNL     1       2.505  -2.503  -4.381  0.00  0.00    +0.064 C 
ENDROOT
BRANCH   1   2
ATOM      2  C   UNL     1       3.645  -3.357  -3.889  0.00  0.00    -0.033 C 
ATOM      3  C   UNL     1       4.952  -3.232  -4.212  0.00  0.00    -0.000 A 
ATOM      4  C   UNL     1       5.677  -2.300  -5.084  0.00  0.00    +0.010 A 
ATOM      5  C   UNL     1       7.017  -2.426  -5.210  0.00  0.00    +0.001 A 
ATOM      6  C   UNL     1       7.731  -3.423  -4.531  0.00  0.00    +0.002 A 
ATOM      7  C   UNL     1       7.135  -4.316  -3.712  0.00  0.00    +0.026 A 
ATOM      8  C   UNL     1       5.729  -4.275  -3.505  0.00  0.00    +0.043 A 
ATOM      9  N   UNL     1       4.932  -5.017  -2.774  0.00  0.00    -0.380 N 
ATOM     10  C   UNL     1       3.560  -4.523  -2.930  0.00  0.00    +0.145 C 
ATOM     11  H   UNL     1       5.205  -5.764  -2.220  0.00  0.00    +0.160 HD
ENDBRANCH   1   2
BRANCH   1  15
ATOM     12  C   UNL     1       0.606  -0.607  -1.056  0.00  0.00    +0.120 A 
ATOM     13  C   UNL     1       1.173   0.161  -2.062  0.00  0.00    +0.046 A 
ATOM     14  C   UNL     1       1.786  -0.455  -3.136  0.00  0.00    +0.008 A 
ATOM     15  C   UNL     1       1.835  -1.835  -3.209  0.00  0.00    -0.038 A 
ATOM     16  C   UNL     1       1.270  -2.602  -2.207  0.00  0.00    +0.008 A 
ATOM     17  C   UNL     1       0.661  -1.992  -1.128  0.00  0.00    +0.046 A 
BRANCH  12  19
ATOM     18  C   UNL     1      -0.017   1.425   0.010  0.00  0.00    +0.277 C 
ATOM     19  O   UNL     1       0.002  -0.004   0.002  0.00  0.00    -0.495 OA
ENDBRANCH  12  19
ENDBRANCH   1  15
BRANCH   1  20
ATOM     20  C   UNL     1       1.490  -3.382  -5.115  0.00  0.00    +0.116 C 
BRANCH  20  21
ATOM     21  N   UNL     1       2.107  -3.938  -6.322  0.00  0.00    -0.312 N 
ATOM     22  C   UNL     1       1.395  -4.747  -7.131  0.00  0.00    +0.251 C 
ATOM     23  O   UNL     1       0.244  -5.016  -6.860  0.00  0.00    -0.272 OA
ATOM     24  H   UNL     1       3.027  -3.722  -6.539  0.00  0.00    +0.149 HD
BRANCH  22  25
ATOM     25  C   UNL     1       2.030  -5.319  -8.373  0.00  0.00    +0.324 C 
BRANCH  25  26
ATOM     26  O   UNL     1       1.082  -6.140  -9.058  0.00  0.00    -0.483 OA
BRANCH  26  27
ATOM     27  C   UNL     1       1.497  -6.734 -10.205  0.00  0.00    +0.121 A 
ATOM     28  C   UNL     1       2.796  -6.535 -10.658  0.00  0.00    +0.046 A 
ATOM     29  C   UNL     1       3.221  -7.137 -11.822  0.00  0.00    +0.016 A 
ATOM     30  C   UNL     1       2.345  -7.949 -12.547  0.00  0.00    +0.037 A 
ATOM     31  C   UNL     1       1.040  -8.147 -12.087  0.00  0.00    +0.016 A 
ATOM     32  C   UNL     1       0.625  -7.545 -10.921  0.00  0.00    +0.046 A 
BRANCH  30  33
ATOM     33  C   UNL     1       2.797  -8.595 -13.794  0.00  0.00    +0.242 C 
ATOM     34  O   UNL     1       3.932  -8.421 -14.193  0.00  0.00    -0.270 OA
ATOM     35  N   UNL     1       1.950  -9.378 -14.492  0.00  0.00    -0.325 N 
ATOM     36  H   UNL     1       1.044  -9.517 -14.175  0.00  0.00    +0.145 HD
ATOM     37  H   UNL     1       2.247  -9.803 -15.312  0.00  0.00    +0.145 HD
ENDBRANCH  30  33
ENDBRANCH  26  27
ENDBRANCH  25  26
ENDBRANCH  22  25
ENDBRANCH  20  21
ENDBRANCH   1  20
TORSDOF 9
