REMARK  Name = ZINC40415786
REMARK  9 active torsions:
REMARK  status: ('A' for Active; 'I' for Inactive)
REMARK    1  A    between atoms: C_1  and  C_2
REMARK    2  A    between atoms: C_5  and  S_8
REMARK    3  A    between atoms: S_8  and  N_11
REMARK    4  A    between atoms: N_11  and  C_12
REMARK    5  A    between atoms: N_11  and  C_19
REMARK    6  A    between atoms: C_16  and  C_18
REMARK    7  A    between atoms: N_22  and  C_25
REMARK    8  A    between atoms: C_25  and  C_26
REMARK    9  A    between atoms: C_31  and  O_32
REMARK                            x       y       z     vdW  Elec       q    Type
REMARK                         _______ _______ _______ _____ _____    ______ ____
ROOT
ATOM      1  N   UNL     1       1.651  -4.999  -0.034  0.00  0.00    -0.200 N 
ENDROOT
BRANCH   1   2
ATOM      2  C   UNL     1       2.313  -5.111   1.191  0.00  0.00    +0.052 A 
ATOM      3  C   UNL     1       3.459  -4.365   1.434  0.00  0.00    +0.025 A 
ATOM      4  C   UNL     1       4.110  -4.477   2.646  0.00  0.00    +0.002 A 
ATOM      5  C   UNL     1       3.623  -5.333   3.618  0.00  0.00    +0.003 A 
ATOM      6  C   UNL     1       2.483  -6.078   3.379  0.00  0.00    -0.049 A 
ATOM      7  C   UNL     1       1.823  -5.965   2.171  0.00  0.00    +0.028 A 
ATOM      8  C   UNL     1       1.957  -7.009   4.440  0.00  0.00    +0.044 C 
ENDBRANCH   1   2
BRANCH   1   9
ATOM      9  C   UNL     1       2.003  -5.892  -1.141  0.00  0.00    +0.095 C 
ATOM     10  C   UNL     1       1.709  -7.341  -0.744  0.00  0.00    +0.006 C 
ATOM     11  C   UNL     1       2.153  -8.274  -1.873  0.00  0.00    -0.077 C 
ATOM     12  N   UNL     1       3.593  -8.112  -2.109  0.00  0.00    +0.383 N 
ATOM     13  C   UNL     1       3.873  -6.744  -2.559  0.00  0.00    -0.077 C 
ATOM     14  C   UNL     1       3.495  -5.752  -1.457  0.00  0.00    +0.006 C 
ATOM     15  H   UNL     1       4.095  -8.293  -1.253  0.00  0.00    -0.081 HD
BRANCH  12  16
ATOM     16  C   UNL     1       4.029  -9.064  -3.139  0.00  0.00    -0.039 C 
BRANCH  16  17
ATOM     17  C   UNL     1       5.526  -8.985  -3.295  0.00  0.00    -0.022 A 
ATOM     18  C   UNL     1       6.075  -8.259  -4.333  0.00  0.00    +0.005 A 
ATOM     19  C   UNL     1       7.449  -8.187  -4.477  0.00  0.00    +0.000 A 
ATOM     20  C   UNL     1       8.275  -8.840  -3.582  0.00  0.00    +0.004 A 
ATOM     21  C   UNL     1       7.730  -9.567  -2.541  0.00  0.00    +0.045 A 
ATOM     22  C   UNL     1       6.353  -9.637  -2.392  0.00  0.00    +0.118 A 
BRANCH  22  23
ATOM     23  O   UNL     1       5.814 -10.347  -1.366  0.00  0.00    -0.507 OA
ATOM     24  H   UNL     1       5.644 -11.275  -1.577  0.00  0.00    +0.292 HD
ENDBRANCH  22  23
ENDBRANCH  16  17
ENDBRANCH  12  16
ENDBRANCH   1   9
BRANCH   1  25
ATOM     25  S   UNL     1       0.468  -3.858  -0.235  0.00  0.00    +0.075 S 
ATOM     26  O   UNL     1      -0.099  -3.631   1.048  0.00  0.00    -0.150 OA
ATOM     27  O   UNL     1      -0.310  -4.272  -1.350  0.00  0.00    -0.150 OA
BRANCH  25  32
ATOM     28  C   UNL     1       3.195   1.277  -1.849  0.00  0.00    +0.044 C 
ATOM     29  C   UNL     1       2.514  -0.006  -1.446  0.00  0.00    -0.050 A 
ATOM     30  C   UNL     1       2.101  -0.903  -2.413  0.00  0.00    +0.005 A 
ATOM     31  C   UNL     1       1.476  -2.079  -2.044  0.00  0.00    +0.029 A 
ATOM     32  C   UNL     1       1.265  -2.359  -0.706  0.00  0.00    +0.109 A 
ATOM     33  C   UNL     1       1.679  -1.463   0.261  0.00  0.00    +0.029 A 
ATOM     34  C   UNL     1       2.308  -0.288  -0.109  0.00  0.00    +0.005 A 
ENDBRANCH  25  32
ENDBRANCH   1  25
TORSDOF 7
