REMARK  Name = ZINC02707391
REMARK  7 active torsions:
REMARK  status: ('A' for Active; 'I' for Inactive)
REMARK    1  A    between atoms: C_1  and  O_2
REMARK    2  A    between atoms: O_2  and  C_3
REMARK    3  A    between atoms: C_3  and  C_5
REMARK    4  A    between atoms: C_8  and  C_11
REMARK    5  A    between atoms: C_28  and  C_30
REMARK    6  A    between atoms: C_33  and  S_36
REMARK    7  A    between atoms: S_36  and  C_37
REMARK                            x       y       z     vdW  Elec       q    Type
REMARK                         _______ _______ _______ _____ _____    ______ ____
ROOT
ATOM      1  C   UNL     1       4.099   1.383   6.309  0.00  0.00    +0.234 C 
ATOM      2  C   UNL     1       3.942  -0.067   5.909  0.00  0.00    +0.025 C 
ATOM      3  C   UNL     1       5.015  -0.746   5.498  0.00  0.00    +0.050 C 
ATOM      4  C   UNL     1       6.312  -0.034   5.411  0.00  0.00    +0.038 A 
ATOM      5  C   UNL     1       7.514  -0.723   5.315  0.00  0.00    +0.013 A 
ATOM      6  C   UNL     1       8.699  -0.018   5.236  0.00  0.00    +0.001 A 
ATOM      7  C   UNL     1       8.691   1.366   5.252  0.00  0.00    +0.004 A 
ATOM      8  C   UNL     1       7.498   2.060   5.348  0.00  0.00    +0.046 A 
ATOM      9  C   UNL     1       6.305   1.367   5.429  0.00  0.00    +0.131 A 
ATOM     10  O   UNL     1       5.115   2.012   5.529  0.00  0.00    -0.479 OA
ATOM     11  N   UNL     1       4.950  -2.098   5.140  0.00  0.00    -0.283 N 
ATOM     12  C   UNL     1       3.799  -2.792   5.481  0.00  0.00    +0.219 A 
ATOM     13  N   UNL     1       3.553  -4.073   5.488  0.00  0.00    -0.201 NA
ATOM     14  C   UNL     1       2.298  -4.284   5.900  0.00  0.00    +0.247 A 
ATOM     15  N   UNL     1       1.730  -3.132   6.158  0.00  0.00    -0.156 NA
ATOM     16  N   UNL     1       2.679  -2.146   5.891  0.00  0.00    -0.221 N 
ATOM     17  C   UNL     1       2.574  -0.695   5.999  0.00  0.00    +0.172 C 
ATOM     18  H   UNL     1       5.680  -2.531   4.672  0.00  0.00    +0.155 HD
ENDROOT
BRANCH   1  22
ATOM     19  C   UNL     1       5.162   1.597  10.445  0.00  0.00    +0.059 A 
ATOM     20  C   UNL     1       6.114   1.221   9.495  0.00  0.00    +0.015 A 
ATOM     21  C   UNL     1       5.764   1.155   8.162  0.00  0.00    +0.008 A 
ATOM     22  C   UNL     1       4.473   1.458   7.767  0.00  0.00    -0.003 A 
ATOM     23  C   UNL     1       3.527   1.836   8.703  0.00  0.00    +0.008 A 
ATOM     24  C   UNL     1       3.862   1.902  10.039  0.00  0.00    +0.015 A 
BRANCH  19  25
ATOM     25  C   UNL     1       5.530   1.671  11.874  0.00  0.00    +0.339 C 
ATOM     26  O   UNL     1       6.662   1.405  12.225  0.00  0.00    -0.245 OA
BRANCH  25  28
ATOM     27  C   UNL     1       5.042   2.085  14.174  0.00  0.00    +0.280 C 
ATOM     28  O   UNL     1       4.610   2.033  12.789  0.00  0.00    -0.464 OA
ENDBRANCH  25  28
ENDBRANCH  19  25
ENDBRANCH   1  22
BRANCH  17  29
ATOM     29  C   UNL     1       1.709  -0.172   4.881  0.00  0.00    -0.019 A 
ATOM     30  C   UNL     1       0.541   0.507   5.174  0.00  0.00    +0.007 A 
ATOM     31  C   UNL     1      -0.255   0.987   4.152  0.00  0.00    +0.015 A 
ATOM     32  C   UNL     1       0.121   0.787   2.829  0.00  0.00    +0.008 A 
ATOM     33  C   UNL     1       1.293   0.100   2.539  0.00  0.00    +0.015 A 
ATOM     34  C   UNL     1       2.086  -0.374   3.566  0.00  0.00    +0.007 A 
BRANCH  32  35
ATOM     35  S   UNL     1      -0.891   1.398   1.522  0.00  0.00    -0.129 S 
ATOM     36  C   UNL     1      -0.008   0.905   0.016  0.00  0.00    +0.090 C 
ENDBRANCH  32  35
ENDBRANCH  17  29
TORSDOF 5
