REMARK  Name = ZINC08918710
REMARK  12 active torsions:
REMARK  status: ('A' for Active; 'I' for Inactive)
REMARK    1  A    between atoms: C_1  and  C_2
REMARK    2  A    between atoms: C_5  and  N_9
REMARK    3  A    between atoms: C_6  and  C_8
REMARK    4  A    between atoms: C_10  and  C_12
REMARK    5  A    between atoms: C_16  and  N_17
REMARK    6  A    between atoms: C_18  and  C_20
REMARK    7  A    between atoms: C_20  and  N_76
REMARK    8  A    between atoms: C_23  and  C_26
REMARK    9  A    between atoms: C_28  and  C_32
REMARK   10  A    between atoms: C_32  and  C_33
REMARK   11  A    between atoms: C_32  and  C_34
REMARK   12  A    between atoms: C_32  and  C_35
REMARK                            x       y       z     vdW  Elec       q    Type
REMARK                         _______ _______ _______ _____ _____    ______ ____
ROOT
ATOM      1  C   UNL     1      -1.353   0.855  -7.212  0.00  0.00    +0.069 A 
ATOM      2  C   UNL     1      -2.378   1.291  -8.144  0.00  0.00    -0.023 A 
ATOM      3  C   UNL     1      -3.392   1.996  -7.595  0.00  0.00    -0.004 A 
ATOM      4  S   UNL     1      -3.004   2.076  -5.869  0.00  0.00    -0.077 S 
ATOM      5  C   UNL     1      -1.517   1.187  -5.875  0.00  0.00    +0.084 A 
ATOM      6  C   UNL     1      -4.576   2.576  -8.304  0.00  0.00    +0.046 C 
ATOM      7  C   UNL     1      -4.286   2.576  -9.812  0.00  0.00    -0.000 C 
ATOM      8  C   UNL     1      -3.750   1.198 -10.210  0.00  0.00    +0.009 C 
ATOM      9  C   UNL     1      -2.345   1.000  -9.639  0.00  0.00    +0.037 C 
ENDROOT
BRANCH   1  11
ATOM     10  N   UNL     1       0.933   0.728  -8.051  0.00  0.00    -0.281 N 
ATOM     11  C   UNL     1      -0.189   0.087  -7.668  0.00  0.00    +0.251 C 
ATOM     12  O   UNL     1      -0.236  -1.129  -7.699  0.00  0.00    -0.270 OA
ATOM     13  H   UNL     1       0.944   1.697  -8.103  0.00  0.00    +0.155 HD
BRANCH  10  18
ATOM     14  C   UNL     1       5.586  -2.239  -9.364  0.00  0.00    +0.044 C 
ATOM     15  C   UNL     1       4.350  -1.450  -9.015  0.00  0.00    -0.050 A 
ATOM     16  C   UNL     1       3.404  -1.991  -8.163  0.00  0.00    +0.005 A 
ATOM     17  C   UNL     1       2.270  -1.272  -7.842  0.00  0.00    +0.024 A 
ATOM     18  C   UNL     1       2.080  -0.003  -8.375  0.00  0.00    +0.037 A 
ATOM     19  C   UNL     1       3.029   0.535  -9.235  0.00  0.00    -0.029 A 
ATOM     20  C   UNL     1       4.163  -0.188  -9.548  0.00  0.00    +0.008 A 
ATOM     21  C   UNL     1       2.823   1.908  -9.820  0.00  0.00    +0.045 C 
ENDBRANCH  10  18
ENDBRANCH   1  11
BRANCH   5  22
ATOM     22  N   UNL     1      -0.689   0.886  -4.804  0.00  0.00    -0.281 N 
ATOM     23  C   UNL     1      -1.013   1.303  -3.564  0.00  0.00    +0.201 C 
ATOM     24  O   UNL     1      -2.028   1.941  -3.385  0.00  0.00    -0.278 OA
ATOM     25  H   UNL     1       0.123   0.376  -4.948  0.00  0.00    +0.155 HD
BRANCH  23  26
ATOM     26  C   UNL     1      -0.113   0.976  -2.400  0.00  0.00    +0.019 C 
BRANCH  26  33
ATOM     27  C   UNL     1       0.034   1.044   0.015  0.00  0.00    -0.078 C 
ATOM     28  C   UNL     1      -0.674   1.532   1.281  0.00  0.00    -0.016 C 
ATOM     29  C   UNL     1      -0.707   3.062   1.284  0.00  0.00    -0.018 C 
ATOM     30  C   UNL     1      -1.415   3.552   0.018  0.00  0.00    -0.016 C 
ATOM     31  C   UNL     1      -0.686   3.006  -1.212  0.00  0.00    -0.078 C 
ATOM     32  C   UNL     1      -1.466   3.555   2.517  0.00  0.00    +0.007 C 
ATOM     33  N   UNL     1      -0.710   1.528  -1.167  0.00  0.00    +0.385 N 
ATOM     34  H   UNL     1      -1.685   1.213  -1.099  0.00  0.00    -0.081 HD
ENDBRANCH  26  33
ENDBRANCH  23  26
ENDBRANCH   5  22
BRANCH   7  35
ATOM     35  C   UNL     1      -5.575   2.868 -10.582  0.00  0.00    -0.035 C 
ATOM     36  C   UNL     1      -6.117   4.238 -10.169  0.00  0.00    +0.011 C 
ATOM     37  C   UNL     1      -5.282   2.867 -12.084  0.00  0.00    +0.011 C 
ATOM     38  C   UNL     1      -6.614   1.791 -10.265  0.00  0.00    +0.011 C 
ENDBRANCH   7  35
TORSDOF 6
