REMARK  Name = ZINC38687388
REMARK  10 active torsions:
REMARK  status: ('A' for Active; 'I' for Inactive)
REMARK    1  A    between atoms: C_1  and  O_2
REMARK    2  A    between atoms: O_2  and  C_3
REMARK    3  A    between atoms: C_6  and  C_9
REMARK    4  A    between atoms: C_14  and  O_23
REMARK    5  A    between atoms: C_18  and  N_22
REMARK    6  A    between atoms: C_19  and  C_20
REMARK    7  A    between atoms: O_23  and  C_24
REMARK    8  A    between atoms: C_24  and  C_26
REMARK    9  A    between atoms: C_29  and  O_33
REMARK   10  A    between atoms: O_33  and  C_34
REMARK                            x       y       z     vdW  Elec       q    Type
REMARK                         _______ _______ _______ _____ _____    ______ ____
ROOT
ATOM      1  C   UNL     1       2.608  -2.499   4.276  0.00  0.00    +0.098 C 
ATOM      2  C   UNL     1       3.745  -3.342   3.762  0.00  0.00    +0.008 A 
ATOM      3  C   UNL     1       4.888  -2.726   3.285  0.00  0.00    +0.012 A 
ATOM      4  C   UNL     1       5.940  -3.483   2.811  0.00  0.00    +0.047 A 
ATOM      5  C   UNL     1       5.854  -4.869   2.811  0.00  0.00    +0.135 A 
ATOM      6  C   UNL     1       4.710  -5.489   3.288  0.00  0.00    +0.093 A 
ATOM      7  C   UNL     1       3.652  -4.725   3.765  0.00  0.00    +0.138 A 
ATOM      8  O   UNL     1       2.540  -5.347   4.228  0.00  0.00    -0.441 OA
ATOM      9  C   UNL     1       1.689  -4.688   5.032  0.00  0.00    +0.199 C 
ATOM     10  C   UNL     1       1.672  -3.339   5.098  0.00  0.00    +0.098 C 
ENDROOT
BRANCH   1  14
ATOM     11  C   UNL     1       0.478  -0.830   0.968  0.00  0.00    +0.120 A 
ATOM     12  C   UNL     1       1.079   0.004   1.899  0.00  0.00    +0.046 A 
ATOM     13  C   UNL     1       1.767  -0.538   2.968  0.00  0.00    +0.008 A 
ATOM     14  C   UNL     1       1.857  -1.910   3.109  0.00  0.00    -0.034 A 
ATOM     15  C   UNL     1       1.259  -2.744   2.182  0.00  0.00    +0.008 A 
ATOM     16  C   UNL     1       0.565  -2.207   1.115  0.00  0.00    +0.046 A 
BRANCH  11  18
ATOM     17  C   UNL     1      -0.248   1.126  -0.172  0.00  0.00    +0.277 C 
ATOM     18  O   UNL     1      -0.200  -0.300  -0.084  0.00  0.00    -0.495 OA
ENDBRANCH  11  18
ENDBRANCH   1  14
BRANCH   9  19
ATOM     19  N   UNL     1       0.812  -5.406   5.805  0.00  0.00    -0.328 N 
ATOM     20  H   UNL     1       0.812  -6.375   5.767  0.00  0.00    +0.145 HD
ATOM     21  H   UNL     1       0.191  -4.944   6.390  0.00  0.00    +0.145 HD
ENDBRANCH   9  19
BRANCH  10  22
ATOM     22  C   UNL     1       0.739  -2.696   5.975  0.00  0.00    +0.101 C 
ATOM     23  N   UNL     1      -0.001  -2.187   6.670  0.00  0.00    -0.191 NA
ENDBRANCH  10  22
BRANCH   5  24
ATOM     24  O   UNL     1       6.888  -5.616   2.344  0.00  0.00    -0.422 OA
BRANCH  24  25
ATOM     25  C   UNL     1       8.027  -5.639   3.064  0.00  0.00    +0.345 C 
ATOM     26  O   UNL     1       8.073  -5.091   4.147  0.00  0.00    -0.245 OA
BRANCH  25  27
ATOM     27  C   UNL     1       9.219  -6.330   2.537  0.00  0.00    +0.062 A 
ATOM     28  C   UNL     1       9.170  -6.957   1.288  0.00  0.00    +0.038 A 
ATOM     29  C   UNL     1      10.286  -7.601   0.799  0.00  0.00    +0.085 A 
ATOM     30  C   UNL     1      11.458  -7.630   1.546  0.00  0.00    +0.157 A 
ATOM     31  C   UNL     1      11.510  -7.009   2.789  0.00  0.00    +0.085 A 
ATOM     32  C   UNL     1      10.401  -6.356   3.282  0.00  0.00    +0.038 A 
ATOM     33 CL   UNL     1      12.976  -7.049   3.718  0.00  0.00    -0.080 Cl
ATOM     34 CL   UNL     1      10.227  -8.380  -0.752  0.00  0.00    -0.080 Cl
BRANCH  30  35
ATOM     35  O   UNL     1      12.555  -8.267   1.061  0.00  0.00    -0.492 OA
ATOM     36  C   UNL     1      13.460  -7.491   0.273  0.00  0.00    +0.277 C 
ENDBRANCH  30  35
ENDBRANCH  25  27
ENDBRANCH  24  25
ENDBRANCH   5  24
TORSDOF 8
