REMARK  Name = ZINC48655941
REMARK  8 active torsions:
REMARK  status: ('A' for Active; 'I' for Inactive)
REMARK    1  A    between atoms: C_1  and  C_2
REMARK    2  A    between atoms: C_2  and  C_3
REMARK    3  A    between atoms: C_6  and  S_8
REMARK    4  A    between atoms: S_8  and  N_11
REMARK    5  A    between atoms: N_11  and  C_12
REMARK    6  A    between atoms: N_11  and  C_13
REMARK    7  A    between atoms: C_15  and  C_20
REMARK    8  A    between atoms: C_17  and  C_19
REMARK                            x       y       z     vdW  Elec       q    Type
REMARK                         _______ _______ _______ _____ _____    ______ ____
ROOT
ATOM      1  S   UNL     1       1.788  -1.887  -5.280  0.00  0.00    +0.081 S 
ATOM      2  O   UNL     1       0.735  -1.346  -6.066  0.00  0.00    -0.149 OA
ATOM      3  O   UNL     1       3.156  -1.615  -5.549  0.00  0.00    -0.149 OA
ENDROOT
BRANCH   1   7
ATOM      4  C   UNL     1       0.584  -0.562  -1.214  0.00  0.00    -0.009 A 
ATOM      5  C   UNL     1       1.905  -0.828  -1.364  0.00  0.00    +0.013 A 
ATOM      6  C   UNL     1       2.369  -1.247  -2.596  0.00  0.00    +0.037 A 
ATOM      7  C   UNL     1       1.490  -1.379  -3.620  0.00  0.00    +0.146 A 
ATOM      8  S   UNL     1      -0.050  -0.911  -2.846  0.00  0.00    -0.073 S 
BRANCH   4  10
ATOM      9  C   UNL     1      -0.181   1.431   0.047  0.00  0.00    +0.009 C 
ATOM     10  C   UNL     1      -0.158  -0.098   0.013  0.00  0.00    +0.039 C 
ENDBRANCH   4  10
ENDBRANCH   1   7
BRANCH   1  11
ATOM     11  N   UNL     1       1.614  -3.534  -5.327  0.00  0.00    -0.206 N 
ATOM     12  C   UNL     1       0.284  -4.126  -5.483  0.00  0.00    +0.157 C 
BRANCH  11  13
ATOM     13  C   UNL     1       2.737  -4.357  -5.218  0.00  0.00    +0.051 A 
ATOM     14  C   UNL     1       3.547  -4.285  -4.092  0.00  0.00    +0.028 A 
ATOM     15  C   UNL     1       4.656  -5.101  -3.987  0.00  0.00    -0.048 A 
ATOM     16  C   UNL     1       4.961  -5.990  -5.001  0.00  0.00    +0.006 A 
ATOM     17  C   UNL     1       4.156  -6.065  -6.123  0.00  0.00    -0.048 A 
ATOM     18  C   UNL     1       3.043  -5.256  -6.232  0.00  0.00    +0.028 A 
ATOM     19  C   UNL     1       4.492  -7.035  -7.226  0.00  0.00    +0.044 C 
ATOM     20  C   UNL     1       5.535  -5.023  -2.765  0.00  0.00    +0.044 C 
ENDBRANCH  11  13
ENDBRANCH   1  11
TORSDOF 4
