REMARK  Name = ZINC08632552
REMARK  8 active torsions:
REMARK  status: ('A' for Active; 'I' for Inactive)
REMARK    1  A    between atoms: C_1  and  C_2
REMARK    2  A    between atoms: N_13  and  C_28
REMARK    3  A    between atoms: C_14  and  S_16
REMARK    4  A    between atoms: S_16  and  C_17
REMARK    5  A    between atoms: C_17  and  C_19
REMARK    6  A    between atoms: C_17  and  C_22
REMARK    7  A    between atoms: C_19  and  C_20
REMARK    8  A    between atoms: C_19  and  C_21
REMARK                            x       y       z     vdW  Elec       q    Type
REMARK                         _______ _______ _______ _____ _____    ______ ____
ROOT
ATOM      1  C   UNL     1       2.866  -6.629   0.109  0.00  0.00    +0.008 C 
ATOM      2  C   UNL     1       2.368  -5.232  -0.267  0.00  0.00    -0.009 C 
ATOM      3  C   UNL     1       1.105  -4.905   0.535  0.00  0.00    +0.008 C 
ATOM      4  C   UNL     1       0.463  -3.627  -0.006  0.00  0.00    +0.037 C 
ATOM      5  C   UNL     1       1.519  -2.526  -0.052  0.00  0.00    -0.023 A 
ATOM      6  C   UNL     1       2.832  -2.829  -0.015  0.00  0.00    -0.004 A 
ATOM      7  S   UNL     1       3.668  -1.268  -0.090  0.00  0.00    -0.073 S 
ATOM      8  C   UNL     1       2.247  -0.208  -0.171  0.00  0.00    +0.117 A 
ATOM      9  C   UNL     1       1.167  -1.107  -0.137  0.00  0.00    +0.076 A 
ATOM     10  C   UNL     1      -0.136  -0.518  -0.189  0.00  0.00    +0.268 A 
ATOM     11  O   UNL     1      -1.132  -1.220  -0.164  0.00  0.00    -0.267 OA
ATOM     12  N   UNL     1      -0.247   0.820  -0.266  0.00  0.00    -0.255 N 
ATOM     13  C   UNL     1       0.859   1.623  -0.295  0.00  0.00    +0.178 A 
ATOM     14  N   UNL     1       2.071   1.106  -0.248  0.00  0.00    -0.215 NA
ATOM     15  C   UNL     1       3.447  -4.193   0.069  0.00  0.00    +0.046 C 
ENDROOT
BRANCH  12  16
ATOM     16  C   UNL     1      -1.520   1.403  -0.324  0.00  0.00    +0.052 A 
ATOM     17  C   UNL     1      -2.011   2.111   0.765  0.00  0.00    +0.026 A 
ATOM     18  C   UNL     1      -3.264   2.688   0.704  0.00  0.00    +0.002 A 
ATOM     19  C   UNL     1      -4.034   2.552  -0.437  0.00  0.00    +0.000 A 
ATOM     20  C   UNL     1      -3.550   1.843  -1.520  0.00  0.00    +0.002 A 
ATOM     21  C   UNL     1      -2.296   1.268  -1.467  0.00  0.00    +0.026 A 
ENDBRANCH  12  16
BRANCH  13  22
ATOM     22  S   UNL     1       0.663   3.371  -0.398  0.00  0.00    -0.074 S 
BRANCH  22  23
ATOM     23  C   UNL     1       2.396   3.873  -0.553  0.00  0.00    +0.143 C 
BRANCH  23  24
ATOM     24  C   UNL     1       2.937   3.408  -1.881  0.00  0.00    +0.234 C 
ATOM     25  O   UNL     1       2.182   3.219  -2.810  0.00  0.00    -0.274 OA
ATOM     26  N   UNL     1       4.260   3.201  -2.034  0.00  0.00    -0.239 N 
ATOM     27  C   UNL     1       4.743   2.785  -3.221  0.00  0.00    +0.303 C 
ATOM     28  O   UNL     1       3.986   2.597  -4.154  0.00  0.00    -0.253 OA
ATOM     29  N   UNL     1       6.066   2.579  -3.375  0.00  0.00    -0.313 N 
ATOM     30  H   UNL     1       4.864   3.352  -1.290  0.00  0.00    +0.159 HD
ATOM     31  H   UNL     1       6.670   2.730  -2.631  0.00  0.00    +0.146 HD
ATOM     32  H   UNL     1       6.414   2.280  -4.229  0.00  0.00    +0.146 HD
ENDBRANCH  23  24
BRANCH  23  33
ATOM     33  C   UNL     1       2.494   5.397  -0.468  0.00  0.00    +0.005 C 
ATOM     34  C   UNL     1       1.590   6.027  -1.529  0.00  0.00    +0.009 C 
ATOM     35  C   UNL     1       2.050   5.860   0.921  0.00  0.00    +0.009 C 
ENDBRANCH  23  33
ENDBRANCH  22  23
ENDBRANCH  13  22
TORSDOF 5
