REMARK  Name = ZINC03192236
REMARK  3 active torsions:
REMARK  status: ('A' for Active; 'I' for Inactive)
REMARK    1  A    between atoms: C_6  and  S_7
REMARK    2  A    between atoms: S_7  and  C_10
REMARK    3  A    between atoms: N_15  and  C_16
REMARK                            x       y       z     vdW  Elec       q    Type
REMARK                         _______ _______ _______ _____ _____    ______ ____
ROOT
ATOM      1  C   UNL     1      -2.117   5.574   0.346  0.00  0.00    +0.209 A 
ATOM      2  C   UNL     1      -0.866   6.095   0.325  0.00  0.00    +0.125 A 
ATOM      3  S   UNL     1       0.110   4.606   0.156  0.00  0.00    -0.039 S 
ATOM      4  C   UNL     1      -1.255   3.451   0.132  0.00  0.00    +0.166 A 
ATOM      5  N   UNL     1      -2.287   4.270   0.243  0.00  0.00    -0.204 NA
ATOM      6  N   UNL     1      -1.236   2.068   0.019  0.00  0.00    -0.294 N 
ATOM      7 CL   UNL     1      -0.353   7.750   0.433  0.00  0.00    -0.072 Cl
ATOM      8  H   UNL     1      -2.059   1.563   0.105  0.00  0.00    +0.154 HD
ENDROOT
BRANCH   6   9
ATOM      9  C   UNL     1      -0.030   1.403  -0.217  0.00  0.00    +0.036 A 
ATOM     10  C   UNL     1       0.914   1.956  -1.074  0.00  0.00    +0.043 A 
ATOM     11  C   UNL     1       2.104   1.294  -1.310  0.00  0.00    +0.044 A 
ATOM     12  C   UNL     1       2.355   0.080  -0.694  0.00  0.00    +0.040 A 
ATOM     13  C   UNL     1       1.417  -0.474   0.159  0.00  0.00    +0.044 A 
ATOM     14  C   UNL     1       0.226   0.185   0.399  0.00  0.00    +0.043 A 
ATOM     15 CL   UNL     1       1.737  -1.996   0.929  0.00  0.00    -0.083 Cl
ATOM     16 CL   UNL     1       3.284   1.984  -2.379  0.00  0.00    -0.083 Cl
ENDBRANCH   6   9
BRANCH   1  17
ATOM     17  S   UNL     1      -3.514   6.637   0.500  0.00  0.00    +0.044 S 
ATOM     18  O   UNL     1      -4.565   5.849   1.043  0.00  0.00    -0.163 OA
ATOM     19  O   UNL     1      -3.052   7.826   1.126  0.00  0.00    -0.163 OA
BRANCH  17  25
ATOM     20  C   UNL     1      -3.482   8.214  -1.727  0.00  0.00    +0.029 A 
ATOM     21  C   UNL     1      -3.867   8.564  -3.007  0.00  0.00    +0.022 A 
ATOM     22  C   UNL     1      -4.790   7.789  -3.688  0.00  0.00    +0.041 A 
ATOM     23  C   UNL     1      -5.323   6.662  -3.087  0.00  0.00    +0.022 A 
ATOM     24  C   UNL     1      -4.933   6.311  -1.809  0.00  0.00    +0.029 A 
ATOM     25  C   UNL     1      -4.011   7.085  -1.130  0.00  0.00    +0.095 A 
ATOM     26 CL   UNL     1      -5.279   8.231  -5.294  0.00  0.00    -0.084 Cl
ENDBRANCH  17  25
ENDBRANCH   1  17
TORSDOF 3
