REMARK  Name = ZINC13643629
REMARK  6 active torsions:
REMARK  status: ('A' for Active; 'I' for Inactive)
REMARK    1  A    between atoms: C_1  and  C_2
REMARK    2  A    between atoms: C_3  and  N_27
REMARK    3  A    between atoms: C_9  and  C_18
REMARK    4  A    between atoms: C_21  and  N_24
REMARK    5  A    between atoms: N_24  and  C_25
REMARK    6  A    between atoms: N_24  and  C_26
REMARK                            x       y       z     vdW  Elec       q    Type
REMARK                         _______ _______ _______ _____ _____    ______ ____
ROOT
ATOM      1  C   UNL     1      -3.666   4.870   3.397  0.00  0.00    +0.048 C 
ATOM      2  C   UNL     1      -3.823   3.798   2.349  0.00  0.00    +0.001 A 
ATOM      3  C   UNL     1      -5.084   3.392   1.967  0.00  0.00    +0.131 A 
ATOM      4  C   UNL     1      -5.227   2.408   1.006  0.00  0.00    +0.033 A 
ATOM      5  C   UNL     1      -4.110   1.836   0.432  0.00  0.00    +0.008 A 
ATOM      6  C   UNL     1      -2.836   2.238   0.809  0.00  0.00    -0.019 A 
ATOM      7  C   UNL     1      -2.692   3.221   1.772  0.00  0.00    +0.036 A 
ATOM      8  N   UNL     1      -1.441   3.664   2.200  0.00  0.00    -0.336 N 
ATOM      9  C   UNL     1      -0.409   3.478   1.179  0.00  0.00    +0.105 C 
ATOM     10  C   UNL     1      -0.328   1.999   0.801  0.00  0.00    +0.029 C 
ATOM     11  C   UNL     1      -1.665   1.579   0.143  0.00  0.00    +0.049 C 
ATOM     12  C   UNL     1      -1.535   2.043  -1.289  0.00  0.00    -0.023 C 
ATOM     13  C   UNL     1      -0.275   2.209  -1.604  0.00  0.00    -0.030 C 
ATOM     14  C   UNL     1       0.618   1.871  -0.427  0.00  0.00    +0.033 C 
ATOM     15  H   UNL     1      -1.177   3.220   3.067  0.00  0.00    +0.147 HD
ENDROOT
BRANCH   9  16
ATOM     16  C   UNL     1      -0.755   4.293  -0.040  0.00  0.00    -0.027 A 
ATOM     17  C   UNL     1       0.229   4.619  -0.954  0.00  0.00    +0.007 A 
ATOM     18  C   UNL     1      -0.086   5.362  -2.075  0.00  0.00    +0.023 A 
ATOM     19  C   UNL     1      -1.391   5.790  -2.278  0.00  0.00    +0.029 A 
ATOM     20  C   UNL     1      -2.377   5.466  -1.355  0.00  0.00    +0.023 A 
ATOM     21  C   UNL     1      -2.056   4.718  -0.238  0.00  0.00    +0.007 A 
BRANCH  19  22
ATOM     22  N   UNL     1      -1.712   6.546  -3.408  0.00  0.00    -0.336 N 
ATOM     23  C   UNL     1      -3.090   6.997  -3.621  0.00  0.00    +0.129 C 
ATOM     24  C   UNL     1      -0.672   6.887  -4.381  0.00  0.00    +0.129 C 
ENDBRANCH  19  22
ENDBRANCH   9  16
BRANCH   3  25
ATOM     25  N   UNL     1      -6.281   4.007   2.584  0.00  0.00    +0.057 N 
ATOM     26  O   UNL     1      -6.263   4.330   3.759  0.00  0.00    -0.126 OA
ATOM     27  O   UNL     1      -7.283   4.191   1.917  0.00  0.00    -0.126 OA
ENDBRANCH   3  25
TORSDOF 3
