REMARK  Name = ZINC38678541
REMARK  8 active torsions:
REMARK  status: ('A' for Active; 'I' for Inactive)
REMARK    1  A    between atoms: C_5  and  C_7
REMARK    2  A    between atoms: C_12  and  O_21
REMARK    3  A    between atoms: C_16  and  N_20
REMARK    4  A    between atoms: C_17  and  C_18
REMARK    5  A    between atoms: O_21  and  C_22
REMARK    6  A    between atoms: C_22  and  C_24
REMARK    7  A    between atoms: C_24  and  O_25
REMARK    8  A    between atoms: O_25  and  C_26
REMARK                            x       y       z     vdW  Elec       q    Type
REMARK                         _______ _______ _______ _____ _____    ______ ____
ROOT
ATOM      1  C   UNL     1       1.191  -2.224   0.014  0.00  0.00    +0.099 C 
ATOM      2  C   UNL     1       0.492  -2.716  -1.226  0.00  0.00    +0.008 A 
ATOM      3  C   UNL     1       1.105  -2.565  -2.457  0.00  0.00    +0.012 A 
ATOM      4  C   UNL     1       0.479  -3.010  -3.605  0.00  0.00    +0.047 A 
ATOM      5  C   UNL     1      -0.769  -3.612  -3.526  0.00  0.00    +0.135 A 
ATOM      6  C   UNL     1      -1.385  -3.765  -2.294  0.00  0.00    +0.093 A 
ATOM      7  C   UNL     1      -0.754  -3.316  -1.141  0.00  0.00    +0.138 A 
ATOM      8  O   UNL     1      -1.370  -3.473   0.057  0.00  0.00    -0.441 OA
ATOM      9  C   UNL     1      -0.654  -3.415   1.192  0.00  0.00    +0.199 C 
ATOM     10  C   UNL     1       0.566  -2.836   1.236  0.00  0.00    +0.098 C 
ENDROOT
BRANCH   1  15
ATOM     11  C   UNL     1      -0.282   1.246   0.227  0.00  0.00    +0.000 A 
ATOM     12  C   UNL     1       0.857   2.030   0.232  0.00  0.00    +0.001 A 
ATOM     13  C   UNL     1       2.104   1.438   0.167  0.00  0.00    +0.015 A 
ATOM     14  C   UNL     1       2.213   0.060   0.096  0.00  0.00    +0.022 A 
ATOM     15  C   UNL     1       1.073  -0.724   0.091  0.00  0.00    -0.021 A 
ATOM     16  C   UNL     1      -0.174  -0.130   0.157  0.00  0.00    +0.005 A 
ATOM     17 BR   UNL     1       3.919  -0.751   0.007  0.00  0.00    -0.050 Br
ENDBRANCH   1  15
BRANCH   9  18
ATOM     18  N   UNL     1      -1.177  -3.959   2.338  0.00  0.00    -0.328 N 
ATOM     19  H   UNL     1      -2.052  -4.378   2.321  0.00  0.00    +0.145 HD
ATOM     20  H   UNL     1      -0.671  -3.925   3.166  0.00  0.00    +0.145 HD
ENDBRANCH   9  18
BRANCH  10  21
ATOM     21  C   UNL     1       1.278  -2.806   2.478  0.00  0.00    +0.101 C 
ATOM     22  N   UNL     1       1.843  -2.782   3.463  0.00  0.00    -0.191 NA
ENDBRANCH  10  21
BRANCH   5  23
ATOM     23  O   UNL     1      -1.386  -4.050  -4.654  0.00  0.00    -0.423 OA
BRANCH  23  24
ATOM     24  C   UNL     1      -2.483  -3.396  -5.067  0.00  0.00    +0.350 C 
ATOM     25  O   UNL     1      -2.834  -2.388  -4.502  0.00  0.00    -0.247 OA
BRANCH  24  26
ATOM     26  C   UNL     1      -3.277  -3.920  -6.236  0.00  0.00    +0.349 C 
BRANCH  26  27
ATOM     27  O   UNL     1      -4.390  -3.057  -6.481  0.00  0.00    -0.481 OA
BRANCH  27  28
ATOM     28  C   UNL     1      -5.214  -3.389  -7.510  0.00  0.00    +0.121 A 
ATOM     29  C   UNL     1      -4.960  -4.525  -8.264  0.00  0.00    +0.048 A 
ATOM     30  C   UNL     1      -5.798  -4.861  -9.310  0.00  0.00    +0.042 A 
ATOM     31  C   UNL     1      -6.891  -4.065  -9.605  0.00  0.00    +0.124 A 
ATOM     32  C   UNL     1      -7.146  -2.931  -8.853  0.00  0.00    +0.042 A 
ATOM     33  C   UNL     1      -6.314  -2.595  -7.803  0.00  0.00    +0.048 A 
ATOM     34  F   UNL     1      -7.710  -4.395 -10.628  0.00  0.00    -0.205 F 
ENDBRANCH  27  28
ENDBRANCH  26  27
ENDBRANCH  24  26
ENDBRANCH  23  24
ENDBRANCH   5  23
TORSDOF 8
