REMARK  Name = ZINC28052117
REMARK  3 active torsions:
REMARK  status: ('A' for Active; 'I' for Inactive)
REMARK    1  A    between atoms: C_1  and  C_2
REMARK    2  A    between atoms: C_10  and  C_12
REMARK    3  A    between atoms: C_23  and  C_26
REMARK                            x       y       z     vdW  Elec       q    Type
REMARK                         _______ _______ _______ _____ _____    ______ ____
ROOT
ATOM      1  C   UNL     1       4.418  -1.465  -0.869  0.00  0.00    +0.069 C 
ATOM      2  C   UNL     1       3.756  -0.123  -0.696  0.00  0.00    +0.087 A 
ATOM      3  C   UNL     1       2.433   0.117  -0.335  0.00  0.00    +0.049 A 
ATOM      4  C   UNL     1       2.325   1.484  -0.315  0.00  0.00    +0.226 A 
ATOM      5  O   UNL     1       3.523   1.957  -0.643  0.00  0.00    -0.339 OA
ATOM      6  N   UNL     1       4.309   1.054  -0.854  0.00  0.00    -0.081 NA
ATOM      7  N   UNL     1       1.133   2.101   0.003  0.00  0.00    -0.286 N 
ATOM      8  C   UNL     1      -0.016   1.346   0.009  0.00  0.00    +0.019 C 
ATOM      9  C   UNL     1       0.002  -0.004   0.002  0.00  0.00    +0.024 C 
ATOM     10  C   UNL     1       1.294  -0.796  -0.015  0.00  0.00    +0.093 C 
ATOM     11  C   UNL     1      -1.194  -0.744   0.014  0.00  0.00    +0.162 C 
ATOM     12  O   UNL     1      -1.142  -1.958  -0.016  0.00  0.00    -0.292 OA
ATOM     13  C   UNL     1      -2.536  -0.068   0.064  0.00  0.00    +0.088 C 
ATOM     14  C   UNL     1      -2.384   1.285   0.767  0.00  0.00    +0.032 C 
ATOM     15  C   UNL     1      -1.327   2.099   0.019  0.00  0.00    +0.059 C 
ATOM     16  H   UNL     1       1.115   3.174   0.243  0.00  0.00    +0.155 HD
ENDROOT
BRANCH  10  17
ATOM     17  C   UNL     1       1.516  -1.424   1.337  0.00  0.00    +0.001 A 
ATOM     18  C   UNL     1       1.635  -0.625   2.459  0.00  0.00    +0.022 A 
ATOM     19  C   UNL     1       1.833  -1.200   3.700  0.00  0.00    +0.018 A 
ATOM     20  C   UNL     1       1.925  -2.576   3.819  0.00  0.00    +0.018 A 
ATOM     21  C   UNL     1       1.812  -3.375   2.698  0.00  0.00    +0.040 A 
ATOM     22  C   UNL     1       1.607  -2.800   1.455  0.00  0.00    +0.128 A 
ATOM     23  F   UNL     1       1.497  -3.581   0.359  0.00  0.00    -0.205 F 
ATOM     24 BR   UNL     1       1.988  -0.107   5.235  0.00  0.00    -0.050 Br
ENDBRANCH  10  17
BRANCH  14  25
ATOM     25  C   UNL     1      -3.700   2.019   0.746  0.00  0.00    -0.043 A 
ATOM     26  C   UNL     1      -4.290   2.344  -0.461  0.00  0.00    +0.005 A 
ATOM     27  C   UNL     1      -5.500   3.013  -0.480  0.00  0.00    +0.020 A 
ATOM     28  C   UNL     1      -6.114   3.367   0.708  0.00  0.00    +0.041 A 
ATOM     29  C   UNL     1      -5.519   3.046   1.915  0.00  0.00    +0.020 A 
ATOM     30  C   UNL     1      -4.312   2.373   1.934  0.00  0.00    +0.005 A 
ATOM     31 CL   UNL     1      -7.629   4.213   0.684  0.00  0.00    -0.084 Cl
ENDBRANCH  14  25
TORSDOF 2
