REMARK  Name = ZINC63393796
REMARK  9 active torsions:
REMARK  status: ('A' for Active; 'I' for Inactive)
REMARK    1  A    between atoms: C_1  and  C_2
REMARK    2  A    between atoms: C_2  and  O_3
REMARK    3  A    between atoms: O_3  and  C_4
REMARK    4  A    between atoms: C_7  and  C_10
REMARK    5  A    between atoms: C_11  and  C_28
REMARK    6  A    between atoms: C_12  and  C_21
REMARK    7  A    between atoms: N_29  and  C_30
REMARK    8  A    between atoms: C_30  and  C_31
REMARK    9  A    between atoms: C_31  and  C_32
REMARK                            x       y       z     vdW  Elec       q    Type
REMARK                         _______ _______ _______ _____ _____    ______ ____
ROOT
ATOM      1  C   UNL     1       1.262  -6.019   1.678  0.00  0.00    +0.141 C 
ATOM      2  C   UNL     1       1.933  -6.514   2.744  0.00  0.00    +0.023 C 
ATOM      3  C   UNL     1       2.019  -7.994   2.995  0.00  0.00    +0.087 C 
ATOM      4  C   UNL     1       1.655  -8.755   1.748  0.00  0.00    +0.007 A 
ATOM      5  C   UNL     1       1.996 -10.092   1.643  0.00  0.00    +0.008 A 
ATOM      6  C   UNL     1       1.669 -10.805   0.505  0.00  0.00    +0.001 A 
ATOM      7  C   UNL     1       0.999 -10.183  -0.533  0.00  0.00    +0.004 A 
ATOM      8  C   UNL     1       0.657  -8.849  -0.433  0.00  0.00    +0.046 A 
ATOM      9  C   UNL     1       0.984  -8.130   0.710  0.00  0.00    +0.133 A 
ATOM     10  O   UNL     1       0.637  -6.820   0.796  0.00  0.00    -0.455 OA
ENDROOT
BRANCH   3  11
ATOM     11  C   UNL     1       1.067  -8.368   4.101  0.00  0.00    -0.035 A 
ATOM     12  C   UNL     1      -0.288  -8.135   3.955  0.00  0.00    +0.007 A 
ATOM     13  C   UNL     1      -1.162  -8.479   4.968  0.00  0.00    +0.038 A 
ATOM     14  C   UNL     1      -0.681  -9.057   6.130  0.00  0.00    +0.123 A 
ATOM     15  C   UNL     1       0.676  -9.290   6.276  0.00  0.00    +0.038 A 
ATOM     16  C   UNL     1       1.548  -8.950   5.259  0.00  0.00    +0.007 A 
ATOM     17  F   UNL     1      -1.535  -9.393   7.122  0.00  0.00    -0.205 F 
ENDBRANCH   3  11
BRANCH   1  21
ATOM     18  C   UNL     1       1.109  -1.814   1.113  0.00  0.00    +0.121 A 
ATOM     19  C   UNL     1      -0.067  -2.554   1.128  0.00  0.00    +0.046 A 
ATOM     20  C   UNL     1      -0.022  -3.919   1.311  0.00  0.00    +0.015 A 
ATOM     21  C   UNL     1       1.209  -4.559   1.482  0.00  0.00    +0.018 A 
ATOM     22  C   UNL     1       2.389  -3.810   1.466  0.00  0.00    +0.015 A 
ATOM     23  C   UNL     1       2.335  -2.447   1.277  0.00  0.00    +0.046 A 
BRANCH  18  24
ATOM     24  O   UNL     1       1.060  -0.469   0.932  0.00  0.00    -0.492 OA
BRANCH  24  26
ATOM     25  C   UNL     1      -0.088   1.628   0.581  0.00  0.00    +0.048 C 
ATOM     26  C   UNL     1      -0.233   0.117   0.770  0.00  0.00    +0.225 C 
ENDBRANCH  24  26
ENDBRANCH  18  24
ENDBRANCH   1  21
BRANCH   2  27
ATOM     27  C   UNL     1       2.566  -5.624   3.637  0.00  0.00    +0.086 C 
ATOM     28  N   UNL     1       3.271  -6.088   4.628  0.00  0.00    -0.390 N 
ATOM     29  H   UNL     1       3.428  -7.042   4.708  0.00  0.00    +0.159 HD
BRANCH  28  30
ATOM     30  C   UNL     1       3.829  -5.169   5.624  0.00  0.00    +0.116 C 
BRANCH  30  31
ATOM     31  C   UNL     1       3.177  -5.432   6.983  0.00  0.00    +0.054 C 
BRANCH  31  32
ATOM     32  C   UNL     1       3.663  -4.411   7.979  0.00  0.00    -0.040 C 
ATOM     33  C   UNL     1       3.052  -3.254   8.321  0.00  0.00    -0.001 A 
ATOM     34  C   UNL     1       1.800  -2.624   7.884  0.00  0.00    +0.010 A 
ATOM     35  C   UNL     1       1.443  -1.434   8.419  0.00  0.00    +0.001 A 
ATOM     36  C   UNL     1       2.237  -0.789   9.377  0.00  0.00    +0.002 A 
ATOM     37  C   UNL     1       3.399  -1.306   9.829  0.00  0.00    +0.026 A 
ATOM     38  C   UNL     1       3.871  -2.553   9.335  0.00  0.00    +0.043 A 
ATOM     39  N   UNL     1       4.947  -3.250   9.609  0.00  0.00    -0.380 N 
ATOM     40  C   UNL     1       4.929  -4.476   8.804  0.00  0.00    +0.144 C 
ATOM     41  H   UNL     1       5.638  -2.998  10.242  0.00  0.00    +0.160 HD
ENDBRANCH  31  32
ENDBRANCH  30  31
ENDBRANCH  28  30
ENDBRANCH   2  27
TORSDOF 8
