REMARK  Name = ZINC09463667
REMARK  11 active torsions:
REMARK  status: ('A' for Active; 'I' for Inactive)
REMARK    1  A    between atoms: C_1  and  C_2
REMARK    2  A    between atoms: C_2  and  C_3
REMARK    3  A    between atoms: C_3  and  C_4
REMARK    4  A    between atoms: C_4  and  S_5
REMARK    5  A    between atoms: S_5  and  C_6
REMARK    6  A    between atoms: C_9  and  C_12
REMARK    7  A    between atoms: C_13  and  C_23
REMARK    8  A    between atoms: N_15  and  C_17
REMARK    9  A    between atoms: C_24  and  C_25
REMARK   10  A    between atoms: C_24  and  C_27
REMARK   11  A    between atoms: N_29  and  C_30
REMARK                            x       y       z     vdW  Elec       q    Type
REMARK                         _______ _______ _______ _____ _____    ______ ____
ROOT
ATOM      1  C   UNL     1       4.848  -1.588   0.724  0.00  0.00    +0.100 A 
ATOM      2  C   UNL     1       5.908  -0.575   0.626  0.00  0.00    +0.022 A 
ATOM      3  C   UNL     1       5.367   0.602   1.119  0.00  0.00    +0.123 A 
ATOM      4  N   UNL     1       4.099   0.348   1.486  0.00  0.00    -0.239 N 
ATOM      5  N   UNL     1       3.797  -0.994   1.244  0.00  0.00    -0.166 NA
ENDROOT
BRANCH   1   9
ATOM      6  C   UNL     1       5.130  -5.668  -0.439  0.00  0.00    +0.008 A 
ATOM      7  C   UNL     1       4.366  -5.313   0.668  0.00  0.00    +0.015 A 
ATOM      8  C   UNL     1       4.273  -3.991   1.046  0.00  0.00    +0.011 A 
ATOM      9  C   UNL     1       4.946  -3.009   0.319  0.00  0.00    +0.003 A 
ATOM     10  C   UNL     1       5.707  -3.368  -0.794  0.00  0.00    +0.011 A 
ATOM     11  C   UNL     1       5.801  -4.691  -1.166  0.00  0.00    +0.015 A 
BRANCH   6  12
ATOM     12  S   UNL     1       5.247  -7.359  -0.921  0.00  0.00    -0.125 S 
BRANCH  12  13
ATOM     13  C   UNL     1       6.324  -7.326  -2.380  0.00  0.00    +0.074 C 
BRANCH  13  14
ATOM     14  C   UNL     1       6.512  -8.750  -2.908  0.00  0.00    +0.011 C 
BRANCH  14  16
ATOM     15  C   UNL     1       7.608 -10.146  -4.666  0.00  0.00    +0.004 C 
ATOM     16  C   UNL     1       7.421  -8.722  -4.139  0.00  0.00    -0.003 C 
ENDBRANCH  14  16
ENDBRANCH  13  14
ENDBRANCH  12  13
ENDBRANCH   6  12
ENDBRANCH   1   9
BRANCH   4  17
ATOM     17  C   UNL     1       3.216   1.287   2.033  0.00  0.00    +0.065 A 
ATOM     18  C   UNL     1       1.924   0.909   2.376  0.00  0.00    +0.028 A 
ATOM     19  C   UNL     1       1.055   1.837   2.915  0.00  0.00    +0.002 A 
ATOM     20  C   UNL     1       1.470   3.142   3.114  0.00  0.00    +0.000 A 
ATOM     21  C   UNL     1       2.755   3.521   2.774  0.00  0.00    +0.002 A 
ATOM     22  C   UNL     1       3.629   2.597   2.234  0.00  0.00    +0.028 A 
ENDBRANCH   4  17
BRANCH   2  23
ATOM     23  C   UNL     1       7.222  -0.764   0.128  0.00  0.00    +0.035 C 
ATOM     24  C   UNL     1       7.762   0.146  -0.759  0.00  0.00    +0.114 C 
BRANCH  24  25
ATOM     25  C   UNL     1       6.903   1.162  -1.383  0.00  0.00    +0.255 C 
ATOM     26  O   UNL     1       5.698   1.124  -1.219  0.00  0.00    -0.269 OA
ATOM     27  N   UNL     1       7.450   2.137  -2.136  0.00  0.00    -0.306 N 
ATOM     28  H   UNL     1       8.411   2.167  -2.267  0.00  0.00    +0.149 HD
BRANCH  27  29
ATOM     29  C   UNL     1       6.593   3.150  -2.758  0.00  0.00    +0.096 C 
ATOM     30  C   UNL     1       6.336   4.286  -1.754  0.00  0.00    +0.046 C 
ATOM     31  C   UNL     1       5.700   5.478  -2.525  0.00  0.00    +0.168 C 
ATOM     32  S   UNL     1       6.699   5.449  -4.073  0.00  0.00    -0.029 S 
ATOM     33  O   UNL     1       7.810   6.322  -3.922  0.00  0.00    -0.174 OA
ATOM     34  O   UNL     1       5.830   5.607  -5.186  0.00  0.00    -0.174 OA
ATOM     35  C   UNL     1       7.293   3.710  -4.020  0.00  0.00    +0.188 C 
ENDBRANCH  27  29
ENDBRANCH  24  25
BRANCH  24  36
ATOM     36  C   UNL     1       9.159   0.100  -1.071  0.00  0.00    +0.104 C 
ATOM     37  N   UNL     1      10.267   0.063  -1.318  0.00  0.00    -0.191 NA
ENDBRANCH  24  36
ENDBRANCH   2  23
TORSDOF 10
