REMARK  Name = ZINC07660643
REMARK  6 active torsions:
REMARK  status: ('A' for Active; 'I' for Inactive)
REMARK    1  A    between atoms: C_1  and  C_2
REMARK    2  A    between atoms: C_2  and  C_4
REMARK    3  A    between atoms: C_2  and  N_17
REMARK    4  A    between atoms: C_4  and  O_6
REMARK    5  A    between atoms: O_6  and  C_7
REMARK    6  A    between atoms: C_7  and  N_8
REMARK                            x       y       z     vdW  Elec       q    Type
REMARK                         _______ _______ _______ _____ _____    ______ ____
ROOT
ATOM      1  C   UNL     1       1.760   5.393  -1.216  0.00  0.00    +0.329 C 
ATOM      2  O   UNL     1       0.876   5.155  -2.004  0.00  0.00    -0.249 OA
ENDROOT
BRANCH   1   4
ATOM      3  C   UNL     1       1.780   5.393   1.264  0.00  0.00    +0.040 C 
ATOM      4  C   UNL     1       1.930   4.531   0.008  0.00  0.00    +0.187 C 
BRANCH   4   5
ATOM      5  N   UNL     1       0.908   3.481   0.012  0.00  0.00    -0.251 N 
ATOM      6  C   UNL     1       1.185   2.116   0.002  0.00  0.00    +0.049 A 
ATOM      7  C   UNL     1       2.389   1.424  -0.014  0.00  0.00    +0.024 A 
ATOM      8  C   UNL     1       2.397   0.042  -0.021  0.00  0.00    +0.002 A 
ATOM      9  C   UNL     1       1.210  -0.671  -0.013  0.00  0.00    +0.001 A 
ATOM     10  C   UNL     1       0.002  -0.004   0.002  0.00  0.00    +0.014 A 
ATOM     11  C   UNL     1      -0.017   1.391   0.010  0.00  0.00    +0.048 A 
ATOM     12  C   UNL     1      -1.108   2.383   0.019  0.00  0.00    +0.250 C 
ATOM     13  O   UNL     1      -2.303   2.169   0.023  0.00  0.00    -0.282 OA
ATOM     14  C   UNL     1      -0.416   3.713   0.026  0.00  0.00    +0.292 C 
ATOM     15  O   UNL     1      -0.953   4.801   0.037  0.00  0.00    -0.266 OA
ENDBRANCH   4   5
ENDBRANCH   1   4
BRANCH   1  16
ATOM     16  O   UNL     1       2.591   6.426  -1.430  0.00  0.00    -0.443 OA
BRANCH  16  17
ATOM     17  C   UNL     1       2.368   7.213  -2.630  0.00  0.00    +0.359 C 
BRANCH  17  18
ATOM     18  N   UNL     1       1.267   8.157  -2.398  0.00  0.00    -0.214 N 
ATOM     19  C   UNL     1       1.731   9.330  -1.788  0.00  0.00    +0.071 A 
ATOM     20  C   UNL     1       2.393   9.555  -0.591  0.00  0.00    +0.026 A 
ATOM     21  C   UNL     1       2.740  10.843  -0.226  0.00  0.00    +0.002 A 
ATOM     22  C   UNL     1       2.429  11.906  -1.053  0.00  0.00    +0.002 A 
ATOM     23  C   UNL     1       1.768  11.690  -2.247  0.00  0.00    +0.026 A 
ATOM     24  C   UNL     1       1.415  10.400  -2.623  0.00  0.00    +0.065 A 
ATOM     25  N   UNL     1       0.755   9.911  -3.755  0.00  0.00    -0.263 N 
ATOM     26  N   UNL     1       0.647   8.554  -3.655  0.00  0.00    -0.158 NA
ATOM     27  H   UNL     1       0.428  10.450  -4.493  0.00  0.00    +0.168 HD
ATOM     28  H   UNL     1       1.090   8.097  -4.437  0.00  0.00    +0.168 HD
ENDBRANCH  17  18
ENDBRANCH  16  17
ENDBRANCH   1  16
TORSDOF 5
