REMARK  Name = ZINC40016423
REMARK  6 active torsions:
REMARK  status: ('A' for Active; 'I' for Inactive)
REMARK    1  A    between atoms: C_1  and  C_2
REMARK    2  A    between atoms: C_2  and  O_3
REMARK    3  A    between atoms: O_3  and  C_4
REMARK    4  A    between atoms: C_7  and  C_10
REMARK    5  A    between atoms: C_18  and  C_19
REMARK    6  A    between atoms: C_26  and  C_29
REMARK                            x       y       z     vdW  Elec       q    Type
REMARK                         _______ _______ _______ _____ _____    ______ ____
ROOT
ATOM      1  C   UNL     1       3.205  -6.411   0.835  0.00  0.00    +0.183 A 
ATOM      2  N   UNL     1       2.546  -7.281   0.055  0.00  0.00    -0.200 NA
ATOM      3  C   UNL     1       2.363  -8.393   0.711  0.00  0.00    +0.200 A 
ATOM      4  N   UNL     1       2.904  -8.285   1.960  0.00  0.00    -0.169 N 
ATOM      5  N   UNL     1       3.449  -6.972   1.993  0.00  0.00    -0.141 NA
ATOM      6  C   UNL     1       2.819  -9.330   2.795  0.00  0.00    +0.288 A 
ATOM      7  O   UNL     1       3.287  -9.278   3.918  0.00  0.00    -0.265 OA
ATOM      8  C   UNL     1       2.141 -10.540   2.309  0.00  0.00    +0.082 A 
ATOM      9  C   UNL     1       1.922 -11.721   2.944  0.00  0.00    +0.028 C 
ATOM     10  S   UNL     1       1.684 -10.035   0.657  0.00  0.00    -0.044 S 
ENDROOT
BRANCH   9  11
ATOM     11  C   UNL     1       1.384 -12.866   2.199  0.00  0.00    -0.023 A 
ATOM     12  C   UNL     1       0.980 -14.024   2.876  0.00  0.00    +0.011 A 
ATOM     13  C   UNL     1       0.472 -15.091   2.176  0.00  0.00    +0.046 A 
ATOM     14  C   UNL     1       0.355 -15.036   0.786  0.00  0.00    +0.124 A 
ATOM     15  C   UNL     1       0.765 -13.886   0.116  0.00  0.00    -0.002 A 
ATOM     16  C   UNL     1       1.264 -12.808   0.803  0.00  0.00    +0.015 A 
ATOM     17  C   UNL     1       0.541 -14.132  -1.364  0.00  0.00    +0.083 C 
ATOM     18  C   UNL     1       0.347 -15.666  -1.408  0.00  0.00    +0.175 C 
ATOM     19  O   UNL     1      -0.125 -15.965  -0.084  0.00  0.00    -0.488 OA
ATOM     20  C   UNL     1       1.676 -16.372  -1.686  0.00  0.00    +0.052 C 
ENDBRANCH   9  11
BRANCH   1  24
ATOM     21  C   UNL     1       4.336  -2.466  -0.282  0.00  0.00    +0.121 A 
ATOM     22  C   UNL     1       3.650  -3.271  -1.182  0.00  0.00    +0.046 A 
ATOM     23  C   UNL     1       3.281  -4.550  -0.823  0.00  0.00    +0.015 A 
ATOM     24  C   UNL     1       3.600  -5.035   0.445  0.00  0.00    +0.021 A 
ATOM     25  C   UNL     1       4.290  -4.226   1.345  0.00  0.00    +0.015 A 
ATOM     26  C   UNL     1       4.660  -2.949   0.979  0.00  0.00    +0.046 A 
BRANCH  21  27
ATOM     27  O   UNL     1       4.697  -1.206  -0.639  0.00  0.00    -0.492 OA
BRANCH  27  29
ATOM     28  C   UNL     1       4.820   0.660  -2.170  0.00  0.00    +0.048 C 
ATOM     29  C   UNL     1       4.332  -0.773  -1.951  0.00  0.00    +0.225 C 
ENDBRANCH  27  29
ENDBRANCH  21  27
ENDBRANCH   1  24
TORSDOF 4
