REMARK  Name = ZINC19333437
REMARK  6 active torsions:
REMARK  status: ('A' for Active; 'I' for Inactive)
REMARK    1  A    between atoms: C_1  and  C_2
REMARK    2  A    between atoms: C_2  and  C_28
REMARK    3  A    between atoms: C_6  and  C_16
REMARK    4  A    between atoms: C_13  and  O_15
REMARK    5  A    between atoms: C_23  and  S_25
REMARK    6  A    between atoms: S_25  and  C_26
REMARK                            x       y       z     vdW  Elec       q    Type
REMARK                         _______ _______ _______ _____ _____    ______ ____
ROOT
ATOM      1  C   UNL     1       2.790   3.428   3.012  0.00  0.00    +0.027 C 
ATOM      2  C   UNL     1       3.185   2.627   1.764  0.00  0.00    +0.013 C 
ATOM      3  C   UNL     1       2.034   1.715   1.366  0.00  0.00    +0.014 C 
ATOM      4  C   UNL     1       1.445   2.031  -0.001  0.00  0.00    -0.029 C 
ATOM      5  C   UNL     1      -0.019   1.527   0.010  0.00  0.00    +0.042 C 
ATOM      6  C   UNL     1       0.002  -0.004   0.002  0.00  0.00    +0.203 C 
ATOM      7  O   UNL     1       0.506  -0.412  -1.273  0.00  0.00    -0.484 OA
ATOM      8  C   UNL     1       1.691   0.137  -1.659  0.00  0.00    +0.127 A 
ATOM      9  C   UNL     1       2.197   1.290  -1.077  0.00  0.00    -0.016 A 
ATOM     10  C   UNL     1       3.427   1.766  -1.501  0.00  0.00    +0.009 A 
ATOM     11  C   UNL     1       4.137   1.121  -2.495  0.00  0.00    +0.046 A 
ATOM     12  C   UNL     1       3.616  -0.015  -3.095  0.00  0.00    +0.120 A 
ATOM     13  C   UNL     1       2.390  -0.503  -2.676  0.00  0.00    +0.091 A 
ATOM     14  N   UNL     1       1.380   3.456  -0.272  0.00  0.00    +0.410 N 
ATOM     15  C   UNL     1       2.551   4.267   0.018  0.00  0.00    +0.086 C 
ATOM     16  N   UNL     1       3.600   3.516   0.694  0.00  0.00    -0.304 NA
ATOM     17  I   UNL     1       3.340   5.047  -1.848  0.00  0.00    -0.071 I 
ATOM     18  C   UNL     1       4.388   1.740   2.151  0.00  0.00    +0.027 C 
ATOM     19  H   UNL     1       1.183   3.617  -1.342  0.00  0.00    -0.079 HD
ATOM     20  H   UNL     1       4.295   4.270   1.092  0.00  0.00    +0.123 HD
ATOM     21  H   UNL     1       0.571   3.906   0.322  0.00  0.00    -0.079 HD
ENDROOT
BRANCH   6  22
ATOM     22  C   UNL     1      -1.395  -0.538   0.189  0.00  0.00    -0.007 A 
ATOM     23  C   UNL     1      -2.234  -0.676  -0.901  0.00  0.00    +0.007 A 
ATOM     24  C   UNL     1      -3.513  -1.170  -0.730  0.00  0.00    +0.000 A 
ATOM     25  C   UNL     1      -3.957  -1.517   0.532  0.00  0.00    +0.000 A 
ATOM     26  C   UNL     1      -3.120  -1.375   1.623  0.00  0.00    +0.000 A 
ATOM     27  C   UNL     1      -1.839  -0.885   1.451  0.00  0.00    +0.007 A 
ENDBRANCH   6  22
BRANCH  12  28
ATOM     28  O   UNL     1       4.301  -0.643  -4.086  0.00  0.00    -0.507 OA
ATOM     29  H   UNL     1       3.882  -1.544  -4.559  0.00  0.00    +0.292 HD
ENDBRANCH  12  28
BRANCH  15  30
ATOM     30  S   UNL     1       2.049   5.680   1.053  0.00  0.00    -0.151 S 
ATOM     31  C   UNL     1       3.571   6.650   1.239  0.00  0.00    +0.085 C 
ENDBRANCH  15  30
TORSDOF 3
