REMARK  Name = ZINC16810913
REMARK  10 active torsions:
REMARK  status: ('A' for Active; 'I' for Inactive)
REMARK    1  A    between atoms: C_1  and  C_2
REMARK    2  A    between atoms: C_2  and  C_4
REMARK    3  A    between atoms: C_2  and  N_20
REMARK    4  A    between atoms: C_4  and  O_6
REMARK    5  A    between atoms: O_6  and  C_7
REMARK    6  A    between atoms: C_7  and  C_8
REMARK    7  A    between atoms: C_11  and  C_17
REMARK    8  A    between atoms: C_13  and  N_14
REMARK    9  A    between atoms: N_20  and  S_21
REMARK   10  A    between atoms: S_21  and  C_24
REMARK                            x       y       z     vdW  Elec       q    Type
REMARK                         _______ _______ _______ _____ _____    ______ ____
ROOT
ATOM      1  C   UNL     1      -2.143   1.058   1.278  0.00  0.00    +0.326 C 
ATOM      2  O   UNL     1      -2.520   0.353   2.184  0.00  0.00    -0.249 OA
ENDROOT
BRANCH   1   4
ATOM      3  C   UNL     1      -0.013   1.086   0.008  0.00  0.00    +0.037 C 
ATOM      4  C   UNL     1      -0.729   1.579   1.267  0.00  0.00    +0.182 C 
BRANCH   4   5
ATOM      5  N   UNL     1      -0.020   1.094   2.454  0.00  0.00    -0.176 NA
ATOM      6  H   UNL     1      -0.211   0.210   2.804  0.00  0.00    +0.149 HD
BRANCH   5   7
ATOM      7  S   UNL     1       1.106   2.055   3.196  0.00  0.00    +0.059 S 
ATOM      8  O   UNL     1       1.588   1.324   4.315  0.00  0.00    -0.153 OA
ATOM      9  O   UNL     1       1.966   2.538   2.173  0.00  0.00    -0.153 OA
BRANCH   7  10
ATOM     10  C   UNL     1       0.252   3.455   3.840  0.00  0.00    +0.107 A 
ATOM     11  C   UNL     1       0.104   4.590   3.064  0.00  0.00    +0.030 A 
ATOM     12  C   UNL     1      -0.570   5.688   3.566  0.00  0.00    +0.023 A 
ATOM     13  C   UNL     1      -1.087   5.655   4.848  0.00  0.00    +0.059 A 
ATOM     14  C   UNL     1      -0.934   4.521   5.627  0.00  0.00    +0.061 A 
ATOM     15  C   UNL     1      -0.264   3.421   5.122  0.00  0.00    +0.050 A 
ATOM     16 CL   UNL     1      -1.582   4.478   7.237  0.00  0.00    -0.082 Cl
ATOM     17 CL   UNL     1      -1.928   7.036   5.481  0.00  0.00    -0.082 Cl
ENDBRANCH   7  10
ENDBRANCH   5   7
ENDBRANCH   4   5
ENDBRANCH   1   4
BRANCH   1  18
ATOM     18  O   UNL     1      -2.983   1.376   0.281  0.00  0.00    -0.459 OA
BRANCH  18  19
ATOM     19  C   UNL     1      -4.330   0.838   0.356  0.00  0.00    +0.270 C 
BRANCH  19  20
ATOM     20  C   UNL     1      -5.122   1.298  -0.840  0.00  0.00    +0.020 A 
ATOM     21  C   UNL     1      -4.528   2.110  -1.790  0.00  0.00    +0.010 A 
ATOM     22  C   UNL     1      -5.247   2.534  -2.887  0.00  0.00    +0.013 A 
ATOM     23  C   UNL     1      -6.579   2.143  -3.038  0.00  0.00    +0.039 A 
ATOM     24  C   UNL     1      -7.173   1.325  -2.076  0.00  0.00    +0.046 A 
ATOM     25  C   UNL     1      -6.440   0.903  -0.986  0.00  0.00    +0.133 A 
BRANCH  23  26
ATOM     26  C   UNL     1      -7.357   2.595  -4.212  0.00  0.00    +0.242 C 
ATOM     27  O   UNL     1      -8.516   2.252  -4.341  0.00  0.00    -0.270 OA
ATOM     28  N   UNL     1      -6.780   3.385  -5.139  0.00  0.00    -0.325 N 
ATOM     29  H   UNL     1      -5.855   3.658  -5.036  0.00  0.00    +0.145 HD
ATOM     30  H   UNL     1      -7.290   3.681  -5.909  0.00  0.00    +0.145 HD
ENDBRANCH  23  26
BRANCH  25  31
ATOM     31  N   UNL     1      -7.067   0.030   0.032  0.00  0.00    +0.057 N 
ATOM     32  O   UNL     1      -8.227  -0.319  -0.096  0.00  0.00    -0.126 OA
ATOM     33  O   UNL     1      -6.422  -0.339   0.997  0.00  0.00    -0.126 OA
ENDBRANCH  25  31
ENDBRANCH  19  20
ENDBRANCH  18  19
ENDBRANCH   1  18
TORSDOF 9
