REMARK  Name = ZINC08684699
REMARK  8 active torsions:
REMARK  status: ('A' for Active; 'I' for Inactive)
REMARK    1  A    between atoms: C_1  and  O_2
REMARK    2  A    between atoms: O_2  and  C_3
REMARK    3  A    between atoms: C_6  and  C_11
REMARK    4  A    between atoms: C_8  and  O_9
REMARK    5  A    between atoms: O_9  and  C_10
REMARK    6  A    between atoms: C_26  and  N_27
REMARK    7  A    between atoms: N_28  and  C_31
REMARK    8  A    between atoms: C_31  and  C_32
REMARK                            x       y       z     vdW  Elec       q    Type
REMARK                         _______ _______ _______ _____ _____    ______ ____
ROOT
ATOM      1  C   UNL     1       2.590  -2.548   4.315  0.00  0.00    +0.091 C 
ATOM      2  C   UNL     1       4.035  -2.121   4.350  0.00  0.00    +0.008 A 
ATOM      3  C   UNL     1       4.927  -2.700   3.445  0.00  0.00    +0.009 A 
ATOM      4  C   UNL     1       6.243  -2.356   3.429  0.00  0.00    +0.009 A 
ATOM      5  C   UNL     1       6.723  -1.399   4.338  0.00  0.00    -0.014 A 
ATOM      6  C   UNL     1       8.076  -1.018   4.352  0.00  0.00    +0.008 A 
ATOM      7  C   UNL     1       8.503  -0.086   5.247  0.00  0.00    +0.001 A 
ATOM      8  C   UNL     1       7.619   0.498   6.152  0.00  0.00    +0.001 A 
ATOM      9  C   UNL     1       6.302   0.153   6.167  0.00  0.00    +0.012 A 
ATOM     10  C   UNL     1       5.825  -0.806   5.258  0.00  0.00    +0.025 A 
ATOM     11  C   UNL     1       4.465  -1.188   5.248  0.00  0.00    +0.142 A 
ATOM     12  O   UNL     1       3.615  -0.617   6.136  0.00  0.00    -0.437 OA
ATOM     13  C   UNL     1       2.451  -1.224   6.444  0.00  0.00    +0.229 A 
ATOM     14  C   UNL     1       1.905  -2.169   5.596  0.00  0.00    +0.064 A 
ATOM     15  C   UNL     1       0.702  -2.767   5.959  0.00  0.00    +0.107 A 
ATOM     16  N   UNL     1       0.125  -2.405   7.104  0.00  0.00    -0.313 N 
ATOM     17  C   UNL     1       0.681  -1.498   7.881  0.00  0.00    +0.204 A 
ATOM     18  N   UNL     1       1.810  -0.918   7.570  0.00  0.00    -0.202 NA
ENDROOT
BRANCH   1  22
ATOM     19  C   UNL     1       0.626  -0.619   1.042  0.00  0.00    +0.162 A 
ATOM     20  C   UNL     1       1.202   0.137   2.051  0.00  0.00    +0.050 A 
ATOM     21  C   UNL     1       1.836  -0.490   3.108  0.00  0.00    +0.008 A 
ATOM     22  C   UNL     1       1.897  -1.870   3.161  0.00  0.00    -0.032 A 
ATOM     23  C   UNL     1       1.325  -2.630   2.158  0.00  0.00    +0.054 A 
ATOM     24  C   UNL     1       0.683  -2.008   1.099  0.00  0.00    +0.162 A 
BRANCH  19  26
ATOM     25  C   UNL     1      -0.017   1.425   0.010  0.00  0.00    +0.277 C 
ATOM     26  O   UNL     1       0.002  -0.004   0.002  0.00  0.00    -0.491 OA
ENDBRANCH  19  26
BRANCH  24  27
ATOM     27  O   UNL     1       0.115  -2.754   0.114  0.00  0.00    -0.491 OA
ATOM     28  C   UNL     1       0.211  -4.174   0.238  0.00  0.00    +0.277 C 
ENDBRANCH  24  27
ENDBRANCH   1  22
BRANCH  15  29
ATOM     29  N   UNL     1       0.115  -3.721   5.143  0.00  0.00    -0.344 N 
ATOM     30  H   UNL     1       0.543  -3.978   4.312  0.00  0.00    +0.144 HD
ATOM     31  H   UNL     1      -0.724  -4.132   5.405  0.00  0.00    +0.144 HD
ENDBRANCH  15  29
BRANCH  16  32
ATOM     32  C   UNL     1      -1.142  -3.022   7.503  0.00  0.00    +0.198 C 
BRANCH  32  33
ATOM     33  C   UNL     1      -0.865  -4.321   8.216  0.00  0.00    +0.124 A 
ATOM     34  C   UNL     1      -0.685  -4.468   9.541  0.00  0.00    +0.046 A 
ATOM     35  C   UNL     1      -0.454  -5.843   9.773  0.00  0.00    +0.041 A 
ATOM     36  C   UNL     1      -0.507  -6.454   8.576  0.00  0.00    +0.195 A 
ATOM     37  O   UNL     1      -0.762  -5.528   7.638  0.00  0.00    -0.466 OA
ENDBRANCH  32  33
ENDBRANCH  16  32
TORSDOF 6
