REMARK  Name = ZINC06442585
REMARK  9 active torsions:
REMARK  status: ('A' for Active; 'I' for Inactive)
REMARK    1  A    between atoms: C_1  and  C_2
REMARK    2  A    between atoms: C_7  and  C_15
REMARK    3  A    between atoms: C_13  and  C_14
REMARK    4  A    between atoms: C_15  and  C_17
REMARK    5  A    between atoms: C_15  and  N_66
REMARK    6  A    between atoms: N_21  and  C_22
REMARK    7  A    between atoms: C_22  and  C_23
REMARK    8  A    between atoms: C_29  and  N_66
REMARK    9  A    between atoms: C_30  and  N_66
REMARK                            x       y       z     vdW  Elec       q    Type
REMARK                         _______ _______ _______ _____ _____    ______ ____
ROOT
ATOM      1  C   UNL     1       1.469  -1.447  -1.732  0.00  0.00    +0.039 C 
ENDROOT
BRANCH   1   8
ATOM      2  C   UNL     1      -3.465  -0.014  -7.834  0.00  0.00    +0.044 C 
ATOM      3  C   UNL     1      -2.385  -0.141  -6.791  0.00  0.00    -0.046 A 
ATOM      4  C   UNL     1      -1.195   0.557  -6.946  0.00  0.00    +0.004 A 
ATOM      5  C   UNL     1      -0.203   0.456  -6.012  0.00  0.00    +0.010 A 
ATOM      6  C   UNL     1      -0.388  -0.358  -4.889  0.00  0.00    -0.001 A 
ATOM      7  C   UNL     1       0.652  -0.484  -3.866  0.00  0.00    +0.017 A 
ATOM      8  C   UNL     1       0.418  -1.291  -2.801  0.00  0.00    +0.011 A 
ATOM      9  C   UNL     1      -0.808  -1.981  -2.688  0.00  0.00    +0.251 A 
ATOM     10  O   UNL     1      -0.999  -2.698  -1.721  0.00  0.00    -0.268 OA
ATOM     11  N   UNL     1      -1.770  -1.868  -3.620  0.00  0.00    -0.322 N 
ATOM     12  H   UNL     1      -2.601  -2.356  -3.511  0.00  0.00    +0.169 HD
ATOM     13  C   UNL     1      -1.593  -1.067  -4.729  0.00  0.00    +0.052 A 
ATOM     14  C   UNL     1      -2.588  -0.950  -5.694  0.00  0.00    -0.024 A 
ATOM     15  C   UNL     1      -3.885  -1.702  -5.538  0.00  0.00    +0.046 C 
ENDBRANCH   1   8
BRANCH   1  16
ATOM     16  C   UNL     1       2.331  -0.212  -1.692  0.00  0.00    +0.143 A 
ATOM     17  N   UNL     1       3.289   0.102  -2.530  0.00  0.00    -0.115 NA
ATOM     18  N   UNL     1       3.791   1.228  -2.158  0.00  0.00    -0.023 NA
ATOM     19  N   UNL     1       3.175   1.644  -1.106  0.00  0.00    -0.044 NA
ATOM     20  N   UNL     1       2.265   0.785  -0.790  0.00  0.00    -0.226 N 
BRANCH  20  21
ATOM     21  C   UNL     1       1.340   0.875   0.342  0.00  0.00    +0.182 C 
BRANCH  21  22
ATOM     22  C   UNL     1       0.158   1.727  -0.043  0.00  0.00    -0.026 A 
ATOM     23  C   UNL     1      -0.979   1.137  -0.563  0.00  0.00    +0.005 A 
ATOM     24  C   UNL     1      -2.062   1.919  -0.920  0.00  0.00    +0.000 A 
ATOM     25  C   UNL     1      -2.011   3.290  -0.748  0.00  0.00    +0.000 A 
ATOM     26  C   UNL     1      -0.874   3.880  -0.227  0.00  0.00    +0.000 A 
ATOM     27  C   UNL     1       0.210   3.098   0.126  0.00  0.00    +0.005 A 
ENDBRANCH  21  22
ENDBRANCH  20  21
ENDBRANCH   1  16
BRANCH   1  29
ATOM     28  C   UNL     1       2.817  -2.559  -3.409  0.00  0.00    -0.094 C 
ATOM     29  N   UNL     1       2.326  -2.617  -2.016  0.00  0.00    +0.389 N 
ATOM     30  H   UNL     1       3.131  -2.603  -1.378  0.00  0.00    -0.080 HD
BRANCH  29  31
ATOM     31  C   UNL     1       1.565  -3.865  -1.800  0.00  0.00    -0.068 C 
ATOM     32  C   UNL     1       1.169  -3.955  -0.325  0.00  0.00    -0.015 C 
ATOM     33  C   UNL     1       0.399  -5.255  -0.082  0.00  0.00    -0.002 C 
ATOM     34  C   UNL     1       1.285  -6.448  -0.446  0.00  0.00    -0.000 C 
ATOM     35  C   UNL     1       1.681  -6.358  -1.922  0.00  0.00    -0.002 C 
ATOM     36  C   UNL     1       2.450  -5.058  -2.165  0.00  0.00    -0.015 C 
ENDBRANCH  29  31
ENDBRANCH   1  29
TORSDOF 6
