REMARK  Name = ZINC36203574
REMARK  11 active torsions:
REMARK  status: ('A' for Active; 'I' for Inactive)
REMARK    1  A    between atoms: C_1  and  C_2
REMARK    2  A    between atoms: C_5  and  C_7
REMARK    3  A    between atoms: C_7  and  N_8
REMARK    4  A    between atoms: N_8  and  C_9
REMARK    5  A    between atoms: N_8  and  C_31
REMARK    6  A    between atoms: C_9  and  C_10
REMARK    7  A    between atoms: C_13  and  C_15
REMARK    8  A    between atoms: C_15  and  C_16
REMARK    9  A    between atoms: C_15  and  C_23
REMARK   10  A    between atoms: C_15  and  O_30
REMARK   11  A    between atoms: C_31  and  C_32
REMARK                            x       y       z     vdW  Elec       q    Type
REMARK                         _______ _______ _______ _____ _____    ______ ____
ROOT
ATOM      1  C   UNL     1       1.894  -4.631  -2.549  0.00  0.00    +0.089 A 
ATOM      2  C   UNL     1       3.211  -4.839  -2.729  0.00  0.00    +0.043 A 
ATOM      3  C   UNL     1       3.340  -5.705  -3.839  0.00  0.00    +0.048 A 
ATOM      4  C   UNL     1       2.095  -5.975  -4.270  0.00  0.00    +0.146 A 
ATOM      5  O   UNL     1       1.223  -5.326  -3.481  0.00  0.00    -0.463 OA
ENDROOT
BRANCH   1   6
ATOM      6  C   UNL     1       1.277  -3.769  -1.478  0.00  0.00    -0.003 C 
BRANCH   6   7
ATOM      7  N   UNL     1       1.126  -2.397  -1.980  0.00  0.00    +0.389 N 
ATOM      8  H   UNL     1       2.023  -2.051  -2.286  0.00  0.00    -0.081 HD
BRANCH   7   9
ATOM      9  C   UNL     1       0.610  -1.537  -0.906  0.00  0.00    -0.035 C 
BRANCH   9  14
ATOM     10  C   UNL     1       1.500   3.863  -2.370  0.00  0.00    +0.051 C 
ATOM     11  C   UNL     1       1.019   2.466  -2.071  0.00  0.00    -0.013 A 
ATOM     12  C   UNL     1      -0.204   1.921  -2.281  0.00  0.00    +0.011 A 
ATOM     13  C   UNL     1      -0.421   0.604  -1.924  0.00  0.00    +0.009 A 
ATOM     14  C   UNL     1       0.595  -0.104  -1.374  0.00  0.00    -0.026 A 
ATOM     15  S   UNL     1       1.914   1.099  -1.353  0.00  0.00    -0.100 S 
ENDBRANCH   9  14
ENDBRANCH   7   9
BRANCH   7  16
ATOM     16  C   UNL     1       0.186  -2.389  -3.108  0.00  0.00    -0.046 C 
BRANCH  16  17
ATOM     17  C   UNL     1      -1.213  -2.756  -2.610  0.00  0.00    +0.102 C 
ATOM     18  C   UNL     1      -2.238  -2.661  -3.767  0.00  0.00    +0.032 C 
ATOM     19  C   UNL     1      -3.337  -3.639  -3.268  0.00  0.00    +0.030 C 
ATOM     20  C   UNL     1      -2.510  -4.713  -2.531  0.00  0.00    +0.160 C 
ATOM     21  O   UNL     1      -1.247  -4.128  -2.187  0.00  0.00    -0.378 OA
ENDBRANCH  16  17
ENDBRANCH   7  16
ENDBRANCH   6   7
ENDBRANCH   1   6
BRANCH   4  22
ATOM     22  C   UNL     1       1.739  -6.860  -5.437  0.00  0.00    +0.174 C 
BRANCH  22  23
ATOM     23  C   UNL     1       0.397  -7.500  -5.191  0.00  0.00    -0.002 A 
ATOM     24  C   UNL     1      -0.759  -6.751  -5.316  0.00  0.00    +0.007 A 
ATOM     25  C   UNL     1      -1.991  -7.337  -5.090  0.00  0.00    +0.003 A 
ATOM     26  C   UNL     1      -2.068  -8.671  -4.739  0.00  0.00    +0.038 A 
ATOM     27  C   UNL     1      -0.912  -9.422  -4.614  0.00  0.00    +0.124 A 
ATOM     28  C   UNL     1       0.321  -8.836  -4.846  0.00  0.00    +0.045 A 
ATOM     29  F   UNL     1      -0.986 -10.726  -4.270  0.00  0.00    -0.205 F 
ENDBRANCH  22  23
BRANCH  22  30
ATOM     30  C   UNL     1       1.678  -6.032  -6.695  0.00  0.00    -0.002 A 
ATOM     31  C   UNL     1       1.054  -4.798  -6.680  0.00  0.00    +0.007 A 
ATOM     32  C   UNL     1       0.997  -4.038  -7.833  0.00  0.00    +0.003 A 
ATOM     33  C   UNL     1       1.564  -4.511  -9.002  0.00  0.00    +0.038 A 
ATOM     34  C   UNL     1       2.188  -5.746  -9.018  0.00  0.00    +0.124 A 
ATOM     35  C   UNL     1       2.250  -6.504  -7.860  0.00  0.00    +0.045 A 
ATOM     36  F   UNL     1       2.742  -6.209 -10.160  0.00  0.00    -0.205 F 
ENDBRANCH  22  30
BRANCH  22  37
ATOM     37  O   UNL     1       2.732  -7.877  -5.584  0.00  0.00    -0.372 OA
ATOM     38  H   UNL     1       2.826  -8.450  -4.810  0.00  0.00    +0.212 HD
ENDBRANCH  22  37
ENDBRANCH   4  22
TORSDOF 10
