REMARK  Name = ZINC46485953
REMARK  2 active torsions:
REMARK  status: ('A' for Active; 'I' for Inactive)
REMARK    1  A    between atoms: C_13  and  C_15
REMARK    2  A    between atoms: C_21  and  C_23
REMARK                            x       y       z     vdW  Elec       q    Type
REMARK                         _______ _______ _______ _____ _____    ______ ____
ROOT
ATOM      1  C   UNL     1       0.315  -4.045  -2.186  0.00  0.00    +0.162 C 
ATOM      2  C   UNL     1       1.807  -4.141  -2.568  0.00  0.00    +0.033 C 
ATOM      3  C   UNL     1       1.833  -5.323  -3.573  0.00  0.00    +0.021 C 
ATOM      4  C   UNL     1       0.483  -5.135  -4.310  0.00  0.00    +0.108 C 
ATOM      5  N   UNL     1      -0.457  -4.678  -3.266  0.00  0.00    -0.289 N 
ATOM      6  C   UNL     1      -1.797  -4.817  -3.296  0.00  0.00    +0.222 C 
ATOM      7  O   UNL     1      -2.478  -4.321  -2.423  0.00  0.00    -0.275 OA
ENDROOT
BRANCH   1  18
ATOM      8  C   UNL     1       2.696  -2.713   1.803  0.00  0.00    +0.002 C 
ATOM      9  C   UNL     1       1.801  -2.358   2.993  0.00  0.00    +0.003 C 
ATOM     10  C   UNL     1       0.398  -2.916   2.751  0.00  0.00    +0.033 C 
ATOM     11  C   UNL     1      -0.186  -2.317   1.475  0.00  0.00    +0.139 C 
ATOM     12  C   UNL     1       0.713  -2.632   0.277  0.00  0.00    +0.105 C 
ATOM     13  C   UNL     1       2.120  -2.085   0.533  0.00  0.00    +0.025 C 
ATOM     14  N   UNL     1       0.154  -1.939  -0.899  0.00  0.00    -0.292 N 
ATOM     15  C   UNL     1      -0.131  -0.501  -0.772  0.00  0.00    +0.136 C 
ATOM     16  C   UNL     1      -0.969  -0.277   0.492  0.00  0.00    +0.179 C 
ATOM     17  O   UNL     1      -0.312  -0.901   1.601  0.00  0.00    -0.373 OA
ATOM     18  C   UNL     1      -0.087  -2.599  -2.049  0.00  0.00    +0.236 C 
ATOM     19  O   UNL     1      -0.628  -2.030  -2.973  0.00  0.00    -0.274 OA
ENDBRANCH   1  18
BRANCH   6  20
ATOM     20  C   UNL     1      -2.450  -5.590  -4.413  0.00  0.00    +0.048 C 
ATOM     21  C   UNL     1      -1.990  -5.026  -5.759  0.00  0.00    +0.019 C 
ATOM     22  C   UNL     1      -2.653  -5.810  -6.894  0.00  0.00    -0.009 C 
ATOM     23  C   UNL     1      -4.173  -5.684  -6.780  0.00  0.00    +0.007 C 
ATOM     24  C   UNL     1      -4.633  -6.248  -5.434  0.00  0.00    -0.009 C 
ATOM     25  C   UNL     1      -3.970  -5.464  -4.300  0.00  0.00    +0.019 C 
ATOM     26  C   UNL     1      -4.234  -7.722  -5.336  0.00  0.00    +0.007 C 
ATOM     27  C   UNL     1      -2.714  -7.848  -5.449  0.00  0.00    -0.009 C 
ATOM     28  C   UNL     1      -2.254  -7.284  -6.795  0.00  0.00    +0.007 C 
ATOM     29  C   UNL     1      -2.051  -7.064  -4.315  0.00  0.00    +0.019 C 
ENDBRANCH   6  20
TORSDOF 2
