REMARK  Name = ZINC27383402
REMARK  7 active torsions:
REMARK  status: ('A' for Active; 'I' for Inactive)
REMARK    1  A    between atoms: C_1  and  C_2
REMARK    2  A    between atoms: C_2  and  C_4
REMARK    3  A    between atoms: C_2  and  N_14
REMARK    4  A    between atoms: C_7  and  S_10
REMARK    5  A    between atoms: S_10  and  N_13
REMARK    6  A    between atoms: N_14  and  C_15
REMARK    7  A    between atoms: C_16  and  C_18
REMARK                            x       y       z     vdW  Elec       q    Type
REMARK                         _______ _______ _______ _____ _____    ______ ____
ROOT
ATOM      1  C   UNL     1      -0.084   1.556  -0.176  0.00  0.00    +0.033 C 
ATOM      2  C   UNL     1      -0.075   0.044   0.059  0.00  0.00    +0.103 C 
ENDROOT
BRANCH   2   3
ATOM      3  C   UNL     1       0.637  -0.638  -1.081  0.00  0.00    -0.027 A 
ATOM      4  C   UNL     1       0.084  -0.623  -2.348  0.00  0.00    +0.007 A 
ATOM      5  C   UNL     1       0.737  -1.248  -3.394  0.00  0.00    +0.029 A 
ATOM      6  C   UNL     1       1.942  -1.888  -3.173  0.00  0.00    +0.105 A 
ATOM      7  C   UNL     1       2.495  -1.902  -1.906  0.00  0.00    +0.029 A 
ATOM      8  C   UNL     1       1.844  -1.273  -0.861  0.00  0.00    +0.007 A 
BRANCH   6   9
ATOM      9  S   UNL     1       2.774  -2.686  -4.505  0.00  0.00    +0.056 S 
ATOM     10  O   UNL     1       3.611  -3.677  -3.926  0.00  0.00    -0.153 OA
ATOM     11  O   UNL     1       1.782  -2.997  -5.475  0.00  0.00    -0.153 OA
BRANCH   9  12
ATOM     12  N   UNL     1       3.777  -1.565  -5.198  0.00  0.00    -0.204 NA
ATOM     13  H   UNL     1       3.813  -0.662  -4.845  0.00  0.00    +0.144 HD
ATOM     14  H   UNL     1       4.328  -1.811  -5.957  0.00  0.00    +0.144 HD
ENDBRANCH   9  12
ENDBRANCH   6   9
ENDBRANCH   2   3
BRANCH   2  15
ATOM     15  N   UNL     1      -1.453  -0.447   0.138  0.00  0.00    -0.294 N 
ATOM     16  C   UNL     1      -2.399  -0.149  -0.941  0.00  0.00    +0.133 C 
ATOM     17  C   UNL     1      -1.851  -1.172   1.202  0.00  0.00    +0.247 C 
ATOM     18  O   UNL     1      -1.045  -1.494   2.053  0.00  0.00    -0.270 OA
BRANCH  17  19
ATOM     19  C   UNL     1      -3.267  -1.575   1.334  0.00  0.00    +0.037 A 
ATOM     20  C   UNL     1      -3.975  -2.022   0.217  0.00  0.00    +0.014 A 
ATOM     21  C   UNL     1      -5.296  -2.397   0.347  0.00  0.00    +0.016 A 
ATOM     22  C   UNL     1      -5.920  -2.330   1.581  0.00  0.00    +0.018 A 
ATOM     23  C   UNL     1      -5.222  -1.888   2.693  0.00  0.00    +0.016 A 
ATOM     24  C   UNL     1      -3.899  -1.516   2.577  0.00  0.00    +0.014 A 
ATOM     25 BR   UNL     1      -7.731  -2.846   1.750  0.00  0.00    -0.050 Br
ENDBRANCH  17  19
ENDBRANCH   2  15
TORSDOF 5
