REMARK  Name = ZINC63363215
REMARK  7 active torsions:
REMARK  status: ('A' for Active; 'I' for Inactive)
REMARK    1  A    between atoms: C_1  and  C_2
REMARK    2  A    between atoms: C_2  and  C_3
REMARK    3  A    between atoms: C_3  and  C_21
REMARK    4  A    between atoms: N_4  and  N_5
REMARK    5  A    between atoms: C_6  and  C_8
REMARK    6  A    between atoms: C_11  and  C_14
REMARK    7  A    between atoms: C_24  and  O_27
REMARK                            x       y       z     vdW  Elec       q    Type
REMARK                         _______ _______ _______ _____ _____    ______ ____
ROOT
ATOM      1  N   UNL     1      -3.417  -0.643  -1.057  0.00  0.00    -0.205 N 
ATOM      2  C   UNL     1      -4.102  -0.634  -2.217  0.00  0.00    +0.263 C 
ATOM      3  O   UNL     1      -3.522  -0.428  -3.263  0.00  0.00    -0.271 OA
ATOM      4  H   UNL     1      -3.881  -0.808  -0.221  0.00  0.00    +0.177 HD
ENDROOT
BRANCH   2   5
ATOM      5  C   UNL     1      -5.589  -0.879  -2.217  0.00  0.00    +0.240 C 
ATOM      6  C   UNL     1      -5.887  -2.368  -2.173  0.00  0.00    +0.041 C 
ATOM      7  C   UNL     1      -6.555  -2.597  -3.320  0.00  0.00    +0.092 C 
ATOM      8  N   UNL     1      -6.689  -1.445  -4.029  0.00  0.00    -0.153 NA
ATOM      9  N   UNL     1      -6.188  -0.451  -3.492  0.00  0.00    -0.170 NA
BRANCH   7  10
ATOM     10  C   UNL     1      -7.072  -3.920  -3.749  0.00  0.00    +0.002 A 
ATOM     11  C   UNL     1      -6.883  -5.039  -2.941  0.00  0.00    +0.011 A 
ATOM     12  C   UNL     1      -7.366  -6.268  -3.345  0.00  0.00    +0.020 A 
ATOM     13  C   UNL     1      -8.035  -6.389  -4.551  0.00  0.00    +0.041 A 
ATOM     14  C   UNL     1      -8.225  -5.279  -5.357  0.00  0.00    +0.020 A 
ATOM     15  C   UNL     1      -7.752  -4.045  -4.959  0.00  0.00    +0.011 A 
ATOM     16 CL   UNL     1      -8.639  -7.937  -5.053  0.00  0.00    -0.084 Cl
ENDBRANCH   7  10
ENDBRANCH   2   5
BRANCH   1  18
ATOM     17  C   UNL     1      -1.394  -0.309   0.067  0.00  0.00    +0.066 C 
ATOM     18  N   UNL     1      -2.035  -0.415  -1.057  0.00  0.00    -0.184 NA
BRANCH  17  19
ATOM     19  C   UNL     1      -2.139  -0.249   1.337  0.00  0.00    -0.002 A 
ATOM     20  C   UNL     1      -1.641  -0.892   2.473  0.00  0.00    +0.013 A 
ATOM     21  C   UNL     1      -2.341  -0.833   3.659  0.00  0.00    +0.046 A 
ATOM     22  C   UNL     1      -3.540  -0.135   3.725  0.00  0.00    +0.117 A 
ATOM     23  C   UNL     1      -4.040   0.505   2.599  0.00  0.00    +0.046 A 
ATOM     24  C   UNL     1      -3.343   0.457   1.411  0.00  0.00    +0.013 A 
BRANCH  22  25
ATOM     25  O   UNL     1      -4.227  -0.080   4.896  0.00  0.00    -0.507 OA
ATOM     26  H   UNL     1      -3.986   0.670   5.458  0.00  0.00    +0.292 HD
ENDBRANCH  22  25
ENDBRANCH  17  19
BRANCH  17  28
ATOM     27  C   UNL     1       0.563   1.210  -0.028  0.00  0.00    +0.010 C 
ATOM     28  C   UNL     1       0.112  -0.248   0.072  0.00  0.00    +0.054 C 
ENDBRANCH  17  28
ENDBRANCH   1  18
TORSDOF 6
