REMARK  Name = ZINC37407969
REMARK  11 active torsions:
REMARK  status: ('A' for Active; 'I' for Inactive)
REMARK    1  A    between atoms: C_1  and  C_2
REMARK    2  A    between atoms: C_5  and  C_40
REMARK    3  A    between atoms: N_8  and  C_10
REMARK    4  A    between atoms: C_10  and  C_11
REMARK    5  A    between atoms: C_11  and  C_12
REMARK    6  A    between atoms: C_12  and  N_13
REMARK    7  A    between atoms: C_21  and  O_38
REMARK    8  A    between atoms: C_26  and  C_27
REMARK    9  A    between atoms: C_26  and  C_28
REMARK   10  A    between atoms: N_30  and  C_31
REMARK   11  A    between atoms: O_38  and  C_39
REMARK                            x       y       z     vdW  Elec       q    Type
REMARK                         _______ _______ _______ _____ _____    ______ ____
ROOT
ATOM      1  N   UNL     1       2.207   0.402   6.106  0.00  0.00    -0.281 N 
ATOM      2  C   UNL     1       2.648   1.607   6.534  0.00  0.00    +0.264 C 
ATOM      3  O   UNL     1       3.420   2.277   5.873  0.00  0.00    -0.268 OA
ATOM      4  C   UNL     1       2.147   2.067   7.840  0.00  0.00    +0.106 A 
ATOM      5  C   UNL     1       2.259   3.274   8.434  0.00  0.00    +0.041 A 
ATOM      6  C   UNL     1       1.590   3.199   9.668  0.00  0.00    +0.001 A 
ATOM      7  C   UNL     1       1.392   4.153  10.678  0.00  0.00    +0.013 A 
ATOM      8  C   UNL     1       0.678   3.756  11.778  0.00  0.00    +0.046 A 
ATOM      9  C   UNL     1       0.167   2.468  11.902  0.00  0.00    +0.122 A 
ATOM     10  C   UNL     1       0.348   1.504  10.920  0.00  0.00    +0.072 A 
ATOM     11  C   UNL     1       1.072   1.879   9.789  0.00  0.00    +0.053 A 
ATOM     12  N   UNL     1       1.428   1.201   8.672  0.00  0.00    -0.334 N 
ATOM     13  C   UNL     1       1.181  -0.194   8.290  0.00  0.00    +0.157 C 
ATOM     14  C   UNL     1       1.105  -0.292   6.764  0.00  0.00    +0.128 C 
ATOM     15  C   UNL     1       1.138  -1.767   6.360  0.00  0.00    +0.043 C 
ENDROOT
BRANCH  14  16
ATOM     16  C   UNL     1      -0.196   0.308   6.296  0.00  0.00    +0.238 C 
ATOM     17  O   UNL     1      -1.173  -0.396   6.156  0.00  0.00    -0.273 OA
ATOM     18  N   UNL     1      -0.274   1.628   6.034  0.00  0.00    -0.311 N 
ATOM     19  H   UNL     1       0.508   2.192   6.146  0.00  0.00    +0.149 HD
BRANCH  18  20
ATOM     20  C   UNL     1      -1.538   2.212   5.580  0.00  0.00    +0.073 C 
ATOM     21  C   UNL     1      -1.679   1.980   4.062  0.00  0.00    +0.022 C 
ATOM     22  C   UNL     1      -3.132   2.099   3.692  0.00  0.00    +0.002 C 
ATOM     23  C   UNL     1      -3.506   3.517   3.221  0.00  0.00    +0.000 C 
ATOM     24  C   UNL     1      -2.856   4.622   4.075  0.00  0.00    +0.000 C 
ATOM     25  C   UNL     1      -2.887   4.306   5.546  0.00  0.00    +0.002 C 
ATOM     26  C   UNL     1      -1.558   3.624   5.930  0.00  0.00    +0.022 C 
ENDBRANCH  18  20
ENDBRANCH  14  16
BRANCH   9  27
ATOM     27  O   UNL     1      -0.532   2.143  13.020  0.00  0.00    -0.495 OA
ATOM     28  C   UNL     1      -0.694   3.166  14.005  0.00  0.00    +0.277 C 
ENDBRANCH   9  27
BRANCH   1  29
ATOM     29  C   UNL     1       2.850  -0.222   4.947  0.00  0.00    +0.107 C 
BRANCH  29  30
ATOM     30  C   UNL     1       2.136   0.221   3.668  0.00  0.00    +0.000 C 
BRANCH  30  31
ATOM     31  C   UNL     1       2.808  -0.431   2.458  0.00  0.00    -0.077 C 
BRANCH  31  37
ATOM     32  C   UNL     1      -0.019   1.526   0.010  0.00  0.00    +0.005 C 
ATOM     33  C   UNL     1       0.002  -0.004   0.002  0.00  0.00    -0.031 C 
ATOM     34  C   UNL     1       0.721  -0.499  -1.257  0.00  0.00    +0.003 C 
ATOM     35  C   UNL     1       2.177  -0.027  -1.220  0.00  0.00    -0.031 C 
ATOM     36  C   UNL     1       2.839  -0.534   0.063  0.00  0.00    -0.076 C 
ATOM     37  N   UNL     1       2.123  -0.005   1.230  0.00  0.00    +0.380 N 
ATOM     38  C   UNL     1       0.744  -0.512   1.240  0.00  0.00    -0.076 C 
ATOM     39  C   UNL     1       2.924  -0.581  -2.434  0.00  0.00    +0.005 C 
ATOM     40  H   UNL     1       2.109   1.003   1.187  0.00  0.00    -0.082 HD
ENDBRANCH  31  37
ENDBRANCH  30  31
ENDBRANCH  29  30
ENDBRANCH   1  29
TORSDOF 7
