REMARK  Name = ZINC12441378
REMARK  4 active torsions:
REMARK  status: ('A' for Active; 'I' for Inactive)
REMARK    1  A    between atoms: C_11  and  C_25
REMARK    2  A    between atoms: C_16  and  C_18
REMARK    3  A    between atoms: C_18  and  C_19
REMARK    4  A    between atoms: C_19  and  C_20
REMARK                            x       y       z     vdW  Elec       q    Type
REMARK                         _______ _______ _______ _____ _____    ______ ____
ROOT
ATOM      1  C   UNL     1       4.311   5.545   4.963  0.00  0.00    +0.001 A 
ATOM      2  C   UNL     1       4.567   4.320   5.558  0.00  0.00    +0.002 A 
ATOM      3  C   UNL     1       4.554   3.135   4.843  0.00  0.00    +0.026 A 
ATOM      4  C   UNL     1       4.270   3.223   3.481  0.00  0.00    +0.047 A 
ATOM      5  C   UNL     1       4.010   4.480   2.878  0.00  0.00    +0.003 A 
ATOM      6  C   UNL     1       4.029   5.662   3.624  0.00  0.00    +0.010 A 
ATOM      7  C   UNL     1       3.759   4.207   1.477  0.00  0.00    -0.015 A 
ATOM      8  C   UNL     1       3.871   2.872   1.309  0.00  0.00    +0.046 A 
ATOM      9  N   UNL     1       4.178   2.275   2.502  0.00  0.00    -0.356 N 
ATOM     10  H   UNL     1       4.310   1.323   2.633  0.00  0.00    +0.166 HD
ATOM     11  C   UNL     1       3.676   2.180  -0.022  0.00  0.00    +0.157 C 
ATOM     12  N   UNL     1       3.632   3.221  -1.062  0.00  0.00    -0.289 N 
ATOM     13  C   UNL     1       2.829   4.427  -0.806  0.00  0.00    +0.113 C 
ATOM     14  C   UNL     1       3.435   5.188   0.379  0.00  0.00    +0.056 C 
ATOM     15  C   UNL     1       4.311   3.074  -2.217  0.00  0.00    +0.217 C 
ATOM     16  O   UNL     1       4.970   2.074  -2.410  0.00  0.00    -0.276 OA
ENDROOT
BRANCH  11  17
ATOM     17  C   UNL     1       2.381   1.410  -0.013  0.00  0.00    +0.032 A 
ATOM     18  C   UNL     1       1.597   1.385   1.128  0.00  0.00    +0.130 A 
ATOM     19  C   UNL     1       0.407   0.678   1.135  0.00  0.00    +0.039 A 
ATOM     20  C   UNL     1       0.002  -0.003   0.002  0.00  0.00    +0.004 A 
ATOM     21  C   UNL     1       0.783   0.021  -1.137  0.00  0.00    +0.020 A 
ATOM     22  C   UNL     1       1.973   0.728  -1.145  0.00  0.00    +0.049 A 
ATOM     23 CL   UNL     1       2.955   0.759  -2.577  0.00  0.00    -0.083 Cl
ATOM     24  F   UNL     1       1.994   2.051   2.235  0.00  0.00    -0.205 F 
ENDBRANCH  11  17
BRANCH  15  25
ATOM     25  C   UNL     1       4.253   4.152  -3.268  0.00  0.00    +0.104 C 
BRANCH  25  26
ATOM     26  C   UNL     1       5.105   3.739  -4.470  0.00  0.00    +0.083 C 
BRANCH  26  27
ATOM     27  C   UNL     1       5.046   4.817  -5.522  0.00  0.00    +0.105 A 
ATOM     28  C   UNL     1       5.883   5.865  -5.622  0.00  0.00    +0.044 A 
ATOM     29  C   UNL     1       5.466   6.617  -6.744  0.00  0.00    +0.041 A 
ATOM     30  C   UNL     1       4.399   5.984  -7.262  0.00  0.00    +0.195 A 
ATOM     31  O   UNL     1       4.152   4.891  -6.521  0.00  0.00    -0.468 OA
ENDBRANCH  26  27
ENDBRANCH  25  26
ENDBRANCH  15  25
TORSDOF 4
