REMARK  Name = ZINC06720784
REMARK  6 active torsions:
REMARK  status: ('A' for Active; 'I' for Inactive)
REMARK    1  A    between atoms: C_1  and  O_2
REMARK    2  A    between atoms: O_2  and  C_3
REMARK    3  A    between atoms: C_8  and  C_9
REMARK    4  A    between atoms: C_13  and  C_23
REMARK    5  A    between atoms: C_18  and  N_22
REMARK    6  A    between atoms: C_19  and  C_20
REMARK                            x       y       z     vdW  Elec       q    Type
REMARK                         _______ _______ _______ _____ _____    ______ ____
ROOT
ATOM      1  C   UNL     1       0.018  -2.829  -0.013  0.00  0.00    +0.086 C 
ATOM      2  C   UNL     1       0.075  -3.723   1.231  0.00  0.00    +0.140 C 
ATOM      3  C   UNL     1      -0.588  -3.048   2.410  0.00  0.00    +0.084 C 
ATOM      4  N   UNL     1      -1.618  -3.788   2.719  0.00  0.00    -0.150 NA
ATOM      5  N   UNL     1      -1.761  -4.880   1.862  0.00  0.00    -0.115 NA
ATOM      6  C   UNL     1      -0.847  -4.903   0.939  0.00  0.00    +0.227 C 
ATOM      7  O   UNL     1      -0.667  -5.680  -0.151  0.00  0.00    -0.425 OA
ATOM      8  C   UNL     1      -0.281  -5.002  -1.263  0.00  0.00    +0.200 C 
ATOM      9  C   UNL     1       0.051  -3.694  -1.244  0.00  0.00    +0.095 C 
ENDROOT
BRANCH   3  10
ATOM     10  C   UNL     1      -0.160  -1.807   3.074  0.00  0.00    +0.000 A 
ATOM     11  C   UNL     1       0.971  -1.120   2.619  0.00  0.00    +0.011 A 
ATOM     12  C   UNL     1       1.367   0.042   3.245  0.00  0.00    +0.022 A 
ATOM     13  C   UNL     1       0.649   0.531   4.324  0.00  0.00    +0.059 A 
ATOM     14  C   UNL     1      -0.473  -0.144   4.782  0.00  0.00    +0.060 A 
ATOM     15  C   UNL     1      -0.884  -1.305   4.160  0.00  0.00    +0.031 A 
ATOM     16 CL   UNL     1      -1.365   0.477   6.135  0.00  0.00    -0.082 Cl
ATOM     17 CL   UNL     1       1.156   1.995   5.108  0.00  0.00    -0.082 Cl
ENDBRANCH   3  10
BRANCH   1  23
ATOM     18  C   UNL     1      -1.200  -0.637   0.010  0.00  0.00    +0.124 A 
ATOM     19  C   UNL     1      -2.375   0.101   0.019  0.00  0.00    +0.046 A 
ATOM     20  C   UNL     1      -3.596  -0.545   0.027  0.00  0.00    +0.004 A 
ATOM     21  C   UNL     1      -3.648  -1.927   0.026  0.00  0.00    +0.001 A 
ATOM     22  C   UNL     1      -2.479  -2.665   0.017  0.00  0.00    +0.008 A 
ATOM     23  C   UNL     1      -1.255  -2.023   0.003  0.00  0.00    +0.004 A 
BRANCH  18  25
ATOM     24  C   UNL     1      -0.017   1.425   0.010  0.00  0.00    +0.277 C 
ATOM     25  O   UNL     1       0.002  -0.004   0.002  0.00  0.00    -0.495 OA
ENDBRANCH  18  25
ENDBRANCH   1  23
BRANCH   8  26
ATOM     26  N   UNL     1      -0.227  -5.676  -2.457  0.00  0.00    -0.328 N 
ATOM     27  H   UNL     1      -0.461  -6.617  -2.495  0.00  0.00    +0.145 HD
ATOM     28  H   UNL     1       0.046  -5.212  -3.264  0.00  0.00    +0.145 HD
ENDBRANCH   8  26
BRANCH   9  29
ATOM     29  C   UNL     1       0.463  -3.088  -2.475  0.00  0.00    +0.100 C 
ATOM     30  N   UNL     1       0.789  -2.608  -3.452  0.00  0.00    -0.191 NA
ENDBRANCH   9  29
TORSDOF 5
