REMARK  Name = ZINC34750125
REMARK  10 active torsions:
REMARK  status: ('A' for Active; 'I' for Inactive)
REMARK    1  A    between atoms: C_1  and  C_2
REMARK    2  A    between atoms: C_5  and  C_9
REMARK    3  A    between atoms: C_6  and  C_8
REMARK    4  A    between atoms: C_9  and  S_10
REMARK    5  A    between atoms: S_10  and  C_11
REMARK    6  A    between atoms: C_22  and  C_24
REMARK    7  A    between atoms: C_22  and  C_25
REMARK    8  A    between atoms: N_29  and  C_32
REMARK    9  A    between atoms: C_32  and  C_33
REMARK   10  A    between atoms: C_33  and  C_35
REMARK                            x       y       z     vdW  Elec       q    Type
REMARK                         _______ _______ _______ _____ _____    ______ ____
ROOT
ATOM      1  C   UNL     1       1.809  -6.313   0.310  0.00  0.00    +0.191 A 
ATOM      2  N   UNL     1       2.867  -7.111   0.221  0.00  0.00    -0.206 NA
ATOM      3  C   UNL     1       2.749  -8.415   0.037  0.00  0.00    +0.134 A 
ATOM      4  C   UNL     1       1.451  -8.990  -0.068  0.00  0.00    +0.051 A 
ATOM      5  C   UNL     1       1.082 -10.390  -0.270  0.00  0.00    -0.020 A 
ATOM      6  C   UNL     1      -0.236 -10.674  -0.335  0.00  0.00    +0.021 A 
ATOM      7  S   UNL     1      -1.055  -9.118  -0.132  0.00  0.00    -0.071 S 
ATOM      8  C   UNL     1       0.376  -8.084   0.038  0.00  0.00    +0.115 A 
ATOM      9  N   UNL     1       0.576  -6.793   0.226  0.00  0.00    -0.215 NA
ATOM     10  C   UNL     1      -0.841 -12.029  -0.538  0.00  0.00    +0.203 C 
ATOM     11  O   UNL     1       0.201 -12.919  -0.968  0.00  0.00    -0.368 OA
ATOM     12  C   UNL     1       1.381 -12.845  -0.163  0.00  0.00    +0.068 C 
ATOM     13  C   UNL     1       2.103 -11.516  -0.408  0.00  0.00    +0.071 C 
ATOM     14  C   UNL     1       0.995 -12.948   1.313  0.00  0.00    +0.041 C 
ATOM     15  C   UNL     1       2.314 -14.002  -0.523  0.00  0.00    +0.041 C 
ATOM     16  N   UNL     1       3.876  -9.213  -0.051  0.00  0.00    -0.318 N 
ATOM     17  C   UNL     1       4.449  -9.569  -1.359  0.00  0.00    +0.088 C 
ATOM     18  C   UNL     1       5.950  -9.261  -1.330  0.00  0.00    -0.059 C 
ATOM     19  N   UNL     1       6.568  -9.949  -0.190  0.00  0.00    +0.384 N 
ATOM     20  C   UNL     1       6.032  -9.414   1.068  0.00  0.00    -0.059 C 
ATOM     21  C   UNL     1       4.538  -9.724   1.159  0.00  0.00    +0.088 C 
ATOM     22  H   UNL     1       6.369 -10.937  -0.245  0.00  0.00    -0.081 HD
ENDROOT
BRANCH   1  23
ATOM     23  S   UNL     1       2.049  -4.584   0.555  0.00  0.00    -0.081 S 
BRANCH  23  24
ATOM     24  C   UNL     1       0.365  -3.913   0.623  0.00  0.00    +0.112 C 
BRANCH  24  29
ATOM     25  C   UNL     1       0.599   1.805   1.423  0.00  0.00    +0.044 C 
ATOM     26  C   UNL     1       0.538   0.314   1.214  0.00  0.00    -0.050 A 
ATOM     27  C   UNL     1       0.528  -0.205  -0.067  0.00  0.00    +0.003 A 
ATOM     28  C   UNL     1       0.472  -1.573  -0.258  0.00  0.00    +0.005 A 
ATOM     29  C   UNL     1       0.427  -2.422   0.832  0.00  0.00    -0.034 A 
ATOM     30  C   UNL     1       0.437  -1.903   2.113  0.00  0.00    -0.046 A 
ATOM     31  C   UNL     1       0.497  -0.535   2.304  0.00  0.00    +0.007 A 
ATOM     32  C   UNL     1       0.387  -2.829   3.301  0.00  0.00    +0.044 C 
ENDBRANCH  24  29
ENDBRANCH  23  24
ENDBRANCH   1  23
BRANCH  19  33
ATOM     33  C   UNL     1       8.022  -9.745  -0.226  0.00  0.00    -0.048 C 
BRANCH  33  34
ATOM     34  C   UNL     1       8.596 -10.430  -1.439  0.00  0.00    -0.096 C 
ATOM     35  C   UNL     1       8.813  -9.747  -2.536  0.00  0.00    +0.005 C 
ATOM     36  C   UNL     1       8.920 -11.901  -1.391  0.00  0.00    +0.036 C 
ENDBRANCH  33  34
ENDBRANCH  19  33
TORSDOF 5
