REMARK  Name = ZINC07126787
REMARK  5 active torsions:
REMARK  status: ('A' for Active; 'I' for Inactive)
REMARK    1  A    between atoms: C_1  and  C_2
REMARK    2  A    between atoms: C_3  and  C_15
REMARK    3  A    between atoms: C_4  and  C_14
REMARK    4  A    between atoms: N_5  and  C_7
REMARK    5  A    between atoms: C_7  and  C_8
REMARK                            x       y       z     vdW  Elec       q    Type
REMARK                         _______ _______ _______ _____ _____    ______ ____
ROOT
ATOM      1  C   UNL     1      -1.999   2.133  -0.205  0.00  0.00    +0.212 C 
ATOM      2  N   UNL     1      -2.728   1.462   0.887  0.00  0.00    -0.293 N 
ATOM      3  C   UNL     1      -3.773   2.099   1.502  0.00  0.00    +0.183 C 
ATOM      4  N   UNL     1      -3.816   3.416   1.601  0.00  0.00    -0.183 NA
ATOM      5  C   UNL     1      -2.828   4.138   1.021  0.00  0.00    +0.236 A 
ATOM      6  N   UNL     1      -1.927   3.555   0.150  0.00  0.00    -0.285 N 
ATOM      7  C   UNL     1      -1.052   4.530  -0.262  0.00  0.00    +0.072 A 
ATOM      8  C   UNL     1       0.049   4.552  -1.106  0.00  0.00    +0.028 A 
ATOM      9  C   UNL     1       0.728   5.733  -1.323  0.00  0.00    +0.002 A 
ATOM     10  C   UNL     1       0.319   6.904  -0.704  0.00  0.00    +0.002 A 
ATOM     11  C   UNL     1      -0.771   6.904   0.138  0.00  0.00    +0.030 A 
ATOM     12  C   UNL     1      -1.470   5.716   0.371  0.00  0.00    +0.091 A 
ATOM     13  N   UNL     1      -2.553   5.411   1.136  0.00  0.00    -0.210 NA
ATOM     14  N   UNL     1      -4.795   1.355   2.026  0.00  0.00    -0.331 N 
ATOM     15  H   UNL     1      -2.468   0.572   1.170  0.00  0.00    +0.151 HD
ATOM     16  H   UNL     1      -4.774   0.388   1.960  0.00  0.00    +0.145 HD
ATOM     17  H   UNL     1      -5.541   1.795   2.463  0.00  0.00    +0.145 HD
ENDROOT
BRANCH   1  20
ATOM     18  C   UNL     1      -2.924   4.464  -2.142  0.00  0.00    +0.068 C 
ATOM     19  C   UNL     1      -3.153   2.991  -2.359  0.00  0.00    +0.067 A 
ATOM     20  C   UNL     1      -2.744   1.962  -1.504  0.00  0.00    +0.036 A 
ATOM     21  C   UNL     1      -3.142   0.788  -2.045  0.00  0.00    +0.043 A 
ATOM     22  N   UNL     1      -3.774   1.063  -3.205  0.00  0.00    -0.264 N 
ATOM     23  N   UNL     1      -3.765   2.452  -3.382  0.00  0.00    -0.176 NA
ATOM     24  C   UNL     1      -2.918  -0.582  -1.458  0.00  0.00    +0.065 C 
BRANCH  22  25
ATOM     25  C   UNL     1      -4.366   0.081  -4.118  0.00  0.00    +0.178 C 
BRANCH  25  26
ATOM     26  C   UNL     1      -5.804  -0.158  -3.735  0.00  0.00    -0.026 A 
ATOM     27  C   UNL     1      -6.122  -1.156  -2.833  0.00  0.00    +0.005 A 
ATOM     28  C   UNL     1      -7.441  -1.372  -2.478  0.00  0.00    +0.000 A 
ATOM     29  C   UNL     1      -8.441  -0.597  -3.033  0.00  0.00    +0.000 A 
ATOM     30  C   UNL     1      -8.124   0.399  -3.938  0.00  0.00    +0.000 A 
ATOM     31  C   UNL     1      -6.805   0.618  -4.289  0.00  0.00    +0.005 A 
ENDBRANCH  25  26
ENDBRANCH  22  25
ENDBRANCH   1  20
TORSDOF 3
