REMARK  Name = ZINC40663502
REMARK  9 active torsions:
REMARK  status: ('A' for Active; 'I' for Inactive)
REMARK    1  A    between atoms: C_1  and  O_2
REMARK    2  A    between atoms: O_2  and  C_3
REMARK    3  A    between atoms: C_6  and  C_9
REMARK    4  A    between atoms: C_9  and  C_11
REMARK    5  A    between atoms: C_9  and  C_17
REMARK    6  A    between atoms: C_11  and  C_12
REMARK    7  A    between atoms: N_19  and  C_20
REMARK    8  A    between atoms: C_20  and  C_21
REMARK    9  A    between atoms: C_21  and  O_26
REMARK                            x       y       z     vdW  Elec       q    Type
REMARK                         _______ _______ _______ _____ _____    ______ ____
ROOT
ATOM      1  C   UNL     1       2.747  -2.756   4.474  0.00  0.00    +0.110 C 
ENDROOT
BRANCH   1   5
ATOM      2  C   UNL     1       0.193  -0.382   2.003  0.00  0.00    +0.120 A 
ATOM      3  C   UNL     1       0.911   0.210   3.032  0.00  0.00    +0.046 A 
ATOM      4  C   UNL     1       1.736  -0.559   3.829  0.00  0.00    +0.008 A 
ATOM      5  C   UNL     1       1.846  -1.919   3.603  0.00  0.00    -0.035 A 
ATOM      6  C   UNL     1       1.131  -2.512   2.578  0.00  0.00    +0.008 A 
ATOM      7  C   UNL     1       0.301  -1.747   1.782  0.00  0.00    +0.046 A 
BRANCH   2   9
ATOM      8  C   UNL     1      -0.681   1.772   1.504  0.00  0.00    +0.277 C 
ATOM      9  O   UNL     1      -0.619   0.373   1.218  0.00  0.00    -0.495 OA
ENDBRANCH   2   9
ENDBRANCH   1   5
BRANCH   1  10
ATOM     10  C   UNL     1       3.804  -3.410   3.622  0.00  0.00    +0.221 C 
ATOM     11  O   UNL     1       3.566  -4.456   3.057  0.00  0.00    -0.275 OA
ATOM     12  N   UNL     1       5.014  -2.832   3.489  0.00  0.00    -0.312 N 
ATOM     13  H   UNL     1       5.181  -1.960   3.880  0.00  0.00    +0.149 HD
BRANCH  12  14
ATOM     14  C   UNL     1       6.078  -3.521   2.753  0.00  0.00    +0.138 C 
BRANCH  14  15
ATOM     15  C   UNL     1       7.374  -2.714   2.856  0.00  0.00    +0.081 C 
ATOM     16  C   UNL     1       7.189  -1.331   2.197  0.00  0.00    +0.036 C 
ATOM     17  C   UNL     1       8.551  -1.051   1.514  0.00  0.00    +0.003 C 
ATOM     18  C   UNL     1       8.959  -2.446   0.980  0.00  0.00    +0.003 C 
ATOM     19  C   UNL     1       8.499  -3.423   2.082  0.00  0.00    +0.036 C 
BRANCH  15  20
ATOM     20  O   UNL     1       7.745  -2.558   4.227  0.00  0.00    -0.387 OA
ATOM     21  H   UNL     1       7.053  -2.172   4.781  0.00  0.00    +0.210 HD
ENDBRANCH  15  20
ENDBRANCH  14  15
ENDBRANCH  12  14
ENDBRANCH   1  10
BRANCH   1  22
ATOM     22  C   UNL     1       1.919  -3.835   5.176  0.00  0.00    +0.059 C 
BRANCH  22  23
ATOM     23  C   UNL     1       2.789  -4.577   6.157  0.00  0.00    -0.009 A 
ATOM     24  C   UNL     1       2.959  -4.357   7.484  0.00  0.00    +0.011 A 
ATOM     25  C   UNL     1       3.818  -5.174   8.194  0.00  0.00    +0.008 A 
ATOM     26  C   UNL     1       4.466  -6.171   7.543  0.00  0.00    +0.045 A 
ATOM     27  S   UNL     1       3.858  -5.979   5.876  0.00  0.00    -0.102 S 
ENDBRANCH  22  23
ENDBRANCH   1  22
TORSDOF 8
