REMARK  Name = ZINC09243425
REMARK  12 active torsions:
REMARK  status: ('A' for Active; 'I' for Inactive)
REMARK    1  A    between atoms: C_1  and  C_2
REMARK    2  A    between atoms: C_2  and  O_3
REMARK    3  A    between atoms: O_3  and  C_4
REMARK    4  A    between atoms: C_7  and  C_12
REMARK    5  A    between atoms: C_9  and  O_10
REMARK    6  A    between atoms: O_10  and  C_11
REMARK    7  A    between atoms: C_15  and  C_30
REMARK    8  A    between atoms: N_22  and  C_23
REMARK    9  A    between atoms: C_23  and  C_24
REMARK   10  A    between atoms: C_32  and  C_38
REMARK   11  A    between atoms: C_34  and  C_37
REMARK   12  A    between atoms: C_35  and  O_36
REMARK                            x       y       z     vdW  Elec       q    Type
REMARK                         _______ _______ _______ _____ _____    ______ ____
ROOT
ATOM      1  C   UNL     1       1.142  -6.064   1.761  0.00  0.00    +0.142 C 
ATOM      2  C   UNL     1       2.249  -6.589   0.888  0.00  0.00    +0.035 A 
ATOM      3  C   UNL     1       3.573  -6.578   0.581  0.00  0.00    +0.075 A 
ATOM      4  N   UNL     1       3.741  -7.446  -0.459  0.00  0.00    -0.276 N 
ATOM      5  H   UNL     1       4.588  -7.643  -0.889  0.00  0.00    +0.189 HD
ATOM      6  N   UNL     1       2.610  -7.965  -0.784  0.00  0.00    -0.168 NA
ATOM      7  C   UNL     1       1.649  -7.498  -0.013  0.00  0.00    +0.153 A 
ATOM      8  C   UNL     1       0.206  -7.543   0.285  0.00  0.00    +0.268 C 
ATOM      9  O   UNL     1      -0.603  -8.229  -0.309  0.00  0.00    -0.268 OA
ATOM     10  N   UNL     1      -0.090  -6.718   1.306  0.00  0.00    -0.281 N 
ENDROOT
BRANCH   3  11
ATOM     11  C   UNL     1       4.627  -5.780   1.246  0.00  0.00    +0.042 A 
ATOM     12  C   UNL     1       5.299  -4.783   0.540  0.00  0.00    +0.017 A 
ATOM     13  C   UNL     1       6.281  -4.042   1.165  0.00  0.00    -0.049 A 
ATOM     14  C   UNL     1       6.602  -4.284   2.489  0.00  0.00    +0.010 A 
ATOM     15  C   UNL     1       5.942  -5.270   3.198  0.00  0.00    -0.008 A 
ATOM     16  C   UNL     1       4.950  -6.019   2.586  0.00  0.00    +0.129 A 
ATOM     17  C   UNL     1       6.299  -5.528   4.639  0.00  0.00    +0.047 C 
ATOM     18  C   UNL     1       7.008  -2.964   0.402  0.00  0.00    +0.044 C 
BRANCH  16  19
ATOM     19  O   UNL     1       4.296  -6.984   3.283  0.00  0.00    -0.506 OA
ATOM     20  H   UNL     1       4.713  -7.855   3.234  0.00  0.00    +0.292 HD
ENDBRANCH  16  19
ENDBRANCH   3  11
BRANCH   1  24
ATOM     21  C   UNL     1       0.802  -1.825   1.306  0.00  0.00    +0.162 A 
ATOM     22  C   UNL     1       0.261  -2.673   0.353  0.00  0.00    +0.050 A 
ATOM     23  C   UNL     1       0.372  -4.043   0.502  0.00  0.00    +0.009 A 
ATOM     24  C   UNL     1       1.024  -4.570   1.602  0.00  0.00    -0.019 A 
ATOM     25  C   UNL     1       1.566  -3.730   2.557  0.00  0.00    +0.055 A 
ATOM     26  C   UNL     1       1.462  -2.356   2.410  0.00  0.00    +0.162 A 
BRANCH  26  27
ATOM     27  O   UNL     1       2.000  -1.528   3.345  0.00  0.00    -0.491 OA
ATOM     28  C   UNL     1       2.664  -2.143   4.451  0.00  0.00    +0.277 C 
ENDBRANCH  26  27
BRANCH  21  29
ATOM     29  O   UNL     1       0.693  -0.477   1.160  0.00  0.00    -0.489 OA
BRANCH  29  31
ATOM     30  C   UNL     1      -0.019   1.526   0.010  0.00  0.00    +0.048 C 
ATOM     31  C   UNL     1       0.002  -0.004   0.002  0.00  0.00    +0.226 C 
ENDBRANCH  29  31
ENDBRANCH  21  29
ENDBRANCH   1  24
BRANCH  10  32
ATOM     32  C   UNL     1      -1.424  -6.508   1.872  0.00  0.00    +0.145 C 
BRANCH  32  33
ATOM     33  C   UNL     1      -2.105  -5.376   1.147  0.00  0.00    -0.012 A 
ATOM     34  C   UNL     1      -1.962  -4.070   1.591  0.00  0.00    +0.008 A 
ATOM     35  C   UNL     1      -2.606  -3.061   0.892  0.00  0.00    +0.020 A 
ATOM     36  C   UNL     1      -3.365  -3.387  -0.216  0.00  0.00    +0.111 A 
ATOM     37  N   UNL     1      -3.480  -4.641  -0.609  0.00  0.00    -0.263 NA
ATOM     38  C   UNL     1      -2.876  -5.625   0.027  0.00  0.00    +0.115 A 
ENDBRANCH  32  33
ENDBRANCH  10  32
TORSDOF 8
