REMARK  Name = ZINC39653830
REMARK  9 active torsions:
REMARK  status: ('A' for Active; 'I' for Inactive)
REMARK    1  A    between atoms: C_1  and  C_2
REMARK    2  A    between atoms: C_2  and  O_3
REMARK    3  A    between atoms: O_3  and  C_4
REMARK    4  A    between atoms: C_7  and  C_10
REMARK    5  A    between atoms: C_10  and  C_11
REMARK    6  A    between atoms: C_11  and  N_12
REMARK    7  A    between atoms: C_13  and  C_15
REMARK    8  A    between atoms: C_26  and  C_28
REMARK    9  A    between atoms: C_28  and  C_34
REMARK                            x       y       z     vdW  Elec       q    Type
REMARK                         _______ _______ _______ _____ _____    ______ ____
ROOT
ATOM      1  C   UNL     1       3.725 -10.156   0.877  0.00  0.00    +0.100 C 
ATOM      2  C   UNL     1       3.960 -10.511   2.362  0.00  0.00    +0.121 C 
ATOM      3  N   UNL     1       4.918 -11.641   2.330  0.00  0.00    -0.300 N 
ATOM      4  C   UNL     1       5.863 -11.293   1.242  0.00  0.00    +0.115 C 
ATOM      5  C   UNL     1       4.976 -10.670   0.145  0.00  0.00    -0.004 C 
ATOM      6  C   UNL     1       5.707  -9.513  -0.529  0.00  0.00    -0.010 C 
ATOM      7  C   UNL     1       6.914 -10.056  -1.299  0.00  0.00    -0.082 C 
ATOM      8  N   UNL     1       6.461 -11.026  -2.303  0.00  0.00    +0.379 N 
ATOM      9  C   UNL     1       5.842 -12.180  -1.640  0.00  0.00    -0.082 C 
ATOM     10  C   UNL     1       4.590 -11.727  -0.885  0.00  0.00    -0.010 C 
ATOM     11  C   UNL     1       4.928 -12.738   3.113  0.00  0.00    +0.222 C 
ATOM     12  O   UNL     1       5.833 -13.541   3.020  0.00  0.00    -0.275 OA
ATOM     13  H   UNL     1       5.786 -10.588  -2.911  0.00  0.00    -0.086 HD
ATOM     14  H   UNL     1       7.250 -11.337  -2.849  0.00  0.00    -0.086 HD
ENDROOT
BRANCH  11  15
ATOM     15  C   UNL     1       3.816 -12.967   4.103  0.00  0.00    +0.044 C 
ATOM     16  C   UNL     1       3.695 -11.752   5.024  0.00  0.00    +0.016 C 
ATOM     17  C   UNL     1       5.012 -11.547   5.775  0.00  0.00    +0.001 C 
ATOM     18  C   UNL     1       5.322 -12.791   6.610  0.00  0.00    +0.000 C 
ATOM     19  C   UNL     1       5.443 -14.007   5.689  0.00  0.00    +0.001 C 
ATOM     20  C   UNL     1       4.125 -14.211   4.939  0.00  0.00    +0.016 C 
ATOM     21  C   UNL     1       2.499 -13.172   3.353  0.00  0.00    +0.021 C 
ENDBRANCH  11  15
BRANCH   1  23
ATOM     22  N   UNL     1       2.987  -8.161  -0.385  0.00  0.00    -0.315 N 
ATOM     23  C   UNL     1       3.594  -8.665   0.708  0.00  0.00    +0.218 C 
ATOM     24  O   UNL     1       4.034  -7.917   1.556  0.00  0.00    -0.275 OA
ATOM     25  H   UNL     1       2.635  -8.758  -1.063  0.00  0.00    +0.149 HD
BRANCH  22  26
ATOM     26  C   UNL     1       2.860  -6.711  -0.549  0.00  0.00    +0.109 C 
BRANCH  26  27
ATOM     27  C   UNL     1       2.139  -6.407  -1.864  0.00  0.00    +0.054 C 
BRANCH  27  31
ATOM     28  C   UNL     1       1.766  -2.177  -2.343  0.00  0.00    +0.121 A 
ATOM     29  C   UNL     1       2.882  -2.837  -2.837  0.00  0.00    +0.046 A 
ATOM     30  C   UNL     1       3.000  -4.205  -2.681  0.00  0.00    +0.007 A 
ATOM     31  C   UNL     1       2.007  -4.916  -2.033  0.00  0.00    -0.046 A 
ATOM     32  C   UNL     1       0.894  -4.261  -1.539  0.00  0.00    +0.007 A 
ATOM     33  C   UNL     1       0.774  -2.892  -1.688  0.00  0.00    +0.046 A 
BRANCH  28  34
ATOM     34  O   UNL     1       1.648  -0.832  -2.495  0.00  0.00    -0.492 OA
BRANCH  34  36
ATOM     35  C   UNL     1       2.400   1.336  -3.253  0.00  0.00    +0.048 C 
ATOM     36  C   UNL     1       2.708  -0.161  -3.180  0.00  0.00    +0.225 C 
ENDBRANCH  34  36
ENDBRANCH  28  34
ENDBRANCH  27  31
ENDBRANCH  26  27
ENDBRANCH  22  26
ENDBRANCH   1  23
TORSDOF 7
