REMARK  Name = ZINC39456020
REMARK  5 active torsions:
REMARK  status: ('A' for Active; 'I' for Inactive)
REMARK    1  A    between atoms: C_1  and  C_2
REMARK    2  A    between atoms: C_2  and  O_3
REMARK    3  A    between atoms: O_3  and  C_4
REMARK    4  A    between atoms: C_15  and  C_21
REMARK    5  A    between atoms: C_21  and  C_22
REMARK                            x       y       z     vdW  Elec       q    Type
REMARK                         _______ _______ _______ _____ _____    ______ ____
ROOT
ATOM      1  C   UNL     1       0.746  -1.888  -1.280  0.00  0.00    +0.211 C 
ATOM      2  C   UNL     1       1.264  -2.276  -2.669  0.00  0.00    +0.132 C 
ATOM      3  C   UNL     1       2.708  -1.869  -2.795  0.00  0.00    +0.187 C 
ATOM      4  O   UNL     1       3.157  -1.574  -3.884  0.00  0.00    -0.290 OA
ATOM      5  C   UNL     1       3.547  -1.828  -1.657  0.00  0.00    +0.127 A 
ATOM      6  C   UNL     1       3.025  -2.106  -0.410  0.00  0.00    +0.084 A 
ATOM      7  C   UNL     1       3.898  -2.069   0.776  0.00  0.00    +0.100 A 
ATOM      8  C   UNL     1       5.266  -1.735   0.586  0.00  0.00    +0.069 A 
ATOM      9  C   UNL     1       6.131  -1.683   1.669  0.00  0.00    +0.025 A 
ATOM     10  C   UNL     1       5.606  -1.969   2.939  0.00  0.00    +0.005 A 
ATOM     11  C   UNL     1       6.404  -1.939   4.095  0.00  0.00    -0.034 A 
ATOM     12  C   UNL     1       5.843  -2.225   5.302  0.00  0.00    +0.004 A 
ATOM     13  C   UNL     1       4.494  -2.550   5.419  0.00  0.00    +0.002 A 
ATOM     14  C   UNL     1       3.671  -2.596   4.337  0.00  0.00    +0.028 A 
ATOM     15  C   UNL     1       4.186  -2.308   3.059  0.00  0.00    +0.072 A 
ATOM     16  N   UNL     1       3.414  -2.340   1.974  0.00  0.00    -0.245 NA
ATOM     17  C   UNL     1       5.742  -1.446  -0.777  0.00  0.00    +0.276 A 
ATOM     18  O   UNL     1       6.909  -1.158  -0.964  0.00  0.00    -0.266 OA
ATOM     19  N   UNL     1       4.890  -1.501  -1.815  0.00  0.00    -0.213 N 
ATOM     20 CL   UNL     1       5.477  -1.156  -3.384  0.00  0.00    +0.022 Cl
ATOM     21  N   UNL     1       1.684  -2.412  -0.275  0.00  0.00    -0.315 N 
ATOM     22  H   UNL     1       1.369  -2.958   0.462  0.00  0.00    +0.149 HD
ENDROOT
BRANCH   1  23
ATOM     23  O   UNL     1       0.671  -0.465  -1.174  0.00  0.00    -0.359 OA
BRANCH  23  25
ATOM     24  C   UNL     1      -0.019   1.526   0.010  0.00  0.00    +0.034 C 
ATOM     25  C   UNL     1       0.002  -0.004   0.002  0.00  0.00    +0.159 C 
ENDBRANCH  23  25
ENDBRANCH   1  23
BRANCH  11  26
ATOM     26  C   UNL     1       7.868  -1.592   4.000  0.00  0.00    +0.071 C 
BRANCH  26  27
ATOM     27  C   UNL     1       8.032  -0.094   4.025  0.00  0.00    -0.043 A 
ATOM     28  C   UNL     1       8.017   0.623   2.843  0.00  0.00    +0.004 A 
ATOM     29  C   UNL     1       8.168   1.996   2.866  0.00  0.00    +0.000 A 
ATOM     30  C   UNL     1       8.333   2.654   4.071  0.00  0.00    +0.000 A 
ATOM     31  C   UNL     1       8.347   1.937   5.253  0.00  0.00    +0.000 A 
ATOM     32  C   UNL     1       8.192   0.563   5.230  0.00  0.00    +0.004 A 
ENDBRANCH  26  27
ENDBRANCH  11  26
TORSDOF 4
