REMARK  Name = ZINC28059085
REMARK  6 active torsions:
REMARK  status: ('A' for Active; 'I' for Inactive)
REMARK    1  A    between atoms: C_1  and  O_2
REMARK    2  A    between atoms: O_2  and  C_3
REMARK    3  A    between atoms: C_6  and  O_36
REMARK    4  A    between atoms: C_7  and  C_9
REMARK    5  A    between atoms: C_20  and  C_22
REMARK    6  A    between atoms: O_36  and  C_37
REMARK                            x       y       z     vdW  Elec       q    Type
REMARK                         _______ _______ _______ _____ _____    ______ ____
ROOT
ATOM      1  C   UNL     1       1.994  -2.352  -0.464  0.00  0.00    +0.178 C 
ATOM      2  C   UNL     1       1.419  -0.957  -0.433  0.00  0.00    +0.026 C 
ATOM      3  C   UNL     1       0.138  -0.719  -0.147  0.00  0.00    +0.050 C 
ATOM      4  C   UNL     1      -0.334   0.686  -0.137  0.00  0.00    +0.038 A 
ATOM      5  C   UNL     1      -1.686   1.000  -0.189  0.00  0.00    +0.013 A 
ATOM      6  C   UNL     1      -2.079   2.325  -0.181  0.00  0.00    +0.001 A 
ATOM      7  C   UNL     1      -1.133   3.333  -0.109  0.00  0.00    +0.004 A 
ATOM      8  C   UNL     1       0.215   3.029  -0.052  0.00  0.00    +0.046 A 
ATOM      9  C   UNL     1       0.622   1.708  -0.066  0.00  0.00    +0.131 A 
ATOM     10  O   UNL     1       1.935   1.367  -0.015  0.00  0.00    -0.479 OA
ATOM     11  C   UNL     1       2.333   0.206  -0.743  0.00  0.00    +0.234 C 
ATOM     12  N   UNL     1      -0.766  -1.747   0.151  0.00  0.00    -0.282 N 
ATOM     13  C   UNL     1      -0.237  -2.999   0.416  0.00  0.00    +0.240 A 
ATOM     14  N   UNL     1       1.060  -3.292   0.138  0.00  0.00    -0.201 N 
ATOM     15  N   UNL     1       1.238  -4.614   0.546  0.00  0.00    -0.042 NA
ATOM     16  N   UNL     1       0.098  -5.012   1.011  0.00  0.00    -0.021 NA
ATOM     17  N   UNL     1      -0.774  -4.066   0.935  0.00  0.00    -0.092 NA
ATOM     18  H   UNL     1      -1.846  -1.542   0.167  0.00  0.00    +0.155 HD
ENDROOT
BRANCH  11  19
ATOM     19  C   UNL     1       2.277   0.503  -2.220  0.00  0.00    -0.000 A 
ATOM     20  C   UNL     1       3.347   0.175  -3.032  0.00  0.00    +0.009 A 
ATOM     21  C   UNL     1       3.295   0.442  -4.387  0.00  0.00    +0.023 A 
ATOM     22  C   UNL     1       2.176   1.046  -4.931  0.00  0.00    +0.076 A 
ATOM     23  C   UNL     1       1.106   1.380  -4.117  0.00  0.00    +0.142 A 
ATOM     24  C   UNL     1       1.158   1.107  -2.760  0.00  0.00    +0.047 A 
ATOM     25  F   UNL     1       0.012   1.971  -4.646  0.00  0.00    -0.204 F 
ATOM     26 CL   UNL     1       2.114   1.388  -6.631  0.00  0.00    -0.081 Cl
ENDBRANCH  11  19
BRANCH   1  31
ATOM     27  C   UNL     1       1.444  -3.173  -4.112  0.00  0.00    +0.121 A 
ATOM     28  C   UNL     1       2.729  -3.496  -4.521  0.00  0.00    +0.049 A 
ATOM     29  C   UNL     1       3.773  -3.448  -3.618  0.00  0.00    +0.049 A 
ATOM     30  C   UNL     1       3.537  -3.077  -2.302  0.00  0.00    +0.126 A 
ATOM     31  C   UNL     1       2.251  -2.754  -1.894  0.00  0.00    +0.026 A 
ATOM     32  C   UNL     1       1.206  -2.807  -2.795  0.00  0.00    +0.055 A 
BRANCH  27  34
ATOM     33  C   UNL     1       0.732  -3.610  -6.338  0.00  0.00    +0.277 C 
ATOM     34  O   UNL     1       0.415  -3.220  -5.000  0.00  0.00    -0.495 OA
ENDBRANCH  27  34
BRANCH  30  35
ATOM     35  O   UNL     1       4.565  -3.030  -1.414  0.00  0.00    -0.495 OA
ATOM     36  C   UNL     1       5.862  -3.375  -1.903  0.00  0.00    +0.277 C 
ENDBRANCH  30  35
ENDBRANCH   1  31
TORSDOF 4
