REMARK  Name = ZINC12447048
REMARK  5 active torsions:
REMARK  status: ('A' for Active; 'I' for Inactive)
REMARK    1  A    between atoms: C_5  and  C_7
REMARK    2  A    between atoms: C_10  and  C_15
REMARK    3  A    between atoms: N_17  and  C_18
REMARK    4  A    between atoms: C_18  and  C_19
REMARK    5  A    between atoms: C_19  and  C_20
REMARK                            x       y       z     vdW  Elec       q    Type
REMARK                         _______ _______ _______ _____ _____    ______ ____
ROOT
ATOM      1  C   UNL     1       5.309  11.448   0.562  0.00  0.00    +0.092 A 
ATOM      2  C   UNL     1       4.459  10.575  -0.029  0.00  0.00    +0.122 A 
ATOM      3  N   UNL     1       3.835  11.241  -1.077  0.00  0.00    -0.289 N 
ATOM      4  C   UNL     1       2.899  10.961  -2.063  0.00  0.00    +0.117 A 
ATOM      5  C   UNL     1       2.540  11.924  -2.948  0.00  0.00    +0.080 A 
ATOM      6  S   UNL     1       3.541  13.304  -2.419  0.00  0.00    -0.057 S 
ATOM      7  C   UNL     1       4.364  12.503  -1.062  0.00  0.00    +0.178 A 
ATOM      8  N   UNL     1       5.227  12.623  -0.096  0.00  0.00    -0.221 NA
ENDROOT
BRANCH   1  13
ATOM      9  C   UNL     1       7.037   9.619   3.356  0.00  0.00    +0.001 A 
ATOM     10  C   UNL     1       7.802  10.630   3.909  0.00  0.00    +0.001 A 
ATOM     11  C   UNL     1       7.759  11.906   3.380  0.00  0.00    +0.020 A 
ATOM     12  C   UNL     1       6.956  12.177   2.289  0.00  0.00    +0.050 A 
ATOM     13  C   UNL     1       6.179  11.163   1.730  0.00  0.00    +0.020 A 
ATOM     14  C   UNL     1       6.226   9.879   2.269  0.00  0.00    +0.011 A 
ATOM     15 CL   UNL     1       6.909  13.778   1.619  0.00  0.00    -0.083 Cl
ENDBRANCH   1  13
BRANCH   4  16
ATOM     16  C   UNL     1       2.295   9.630  -2.143  0.00  0.00    +0.261 C 
ATOM     17  O   UNL     1       1.392   9.417  -2.932  0.00  0.00    -0.269 OA
ATOM     18  N   UNL     1       2.739   8.639  -1.344  0.00  0.00    -0.310 N 
ATOM     19  H   UNL     1       3.514   8.782  -0.779  0.00  0.00    +0.149 HD
BRANCH  18  20
ATOM     20  C   UNL     1       2.050   7.346  -1.329  0.00  0.00    +0.111 C 
BRANCH  20  21
ATOM     21  C   UNL     1       2.750   6.407  -0.345  0.00  0.00    +0.075 C 
BRANCH  21  22
ATOM     22  C   UNL     1       2.041   5.077  -0.329  0.00  0.00    +0.062 A 
ATOM     23  C   UNL     1       2.615   3.875  -0.555  0.00  0.00    +0.116 A 
ATOM     24  N   UNL     1       1.631   2.930  -0.449  0.00  0.00    -0.306 N 
ATOM     25  C   UNL     1       1.638   1.572  -0.577  0.00  0.00    +0.092 A 
ATOM     26  C   UNL     1       0.501   0.861  -0.419  0.00  0.00    +0.018 A 
ATOM     27  C   UNL     1      -0.708   1.513  -0.126  0.00  0.00    +0.005 A 
ATOM     28  C   UNL     1      -0.727   2.867   0.011  0.00  0.00    +0.047 A 
ATOM     29  C   UNL     1       0.468   3.595  -0.157  0.00  0.00    +0.138 A 
ATOM     30  N   UNL     1       0.741   4.890  -0.090  0.00  0.00    -0.233 NA
ENDBRANCH  21  22
ENDBRANCH  20  21
ENDBRANCH  18  20
ENDBRANCH   4  16
TORSDOF 5
