REMARK  Name = ZINC08882129
REMARK  10 active torsions:
REMARK  status: ('A' for Active; 'I' for Inactive)
REMARK    1  A    between atoms: C_1  and  C_2
REMARK    2  A    between atoms: C_2  and  C_27
REMARK    3  A    between atoms: N_5  and  C_9
REMARK    4  A    between atoms: C_9  and  C_10
REMARK    5  A    between atoms: N_12  and  C_13
REMARK    6  A    between atoms: C_13  and  C_15
REMARK    7  A    between atoms: C_13  and  C_22
REMARK    8  A    between atoms: C_27  and  C_28
REMARK    9  A    between atoms: C_33  and  O_34
REMARK   10  A    between atoms: O_34  and  C_35
REMARK                            x       y       z     vdW  Elec       q    Type
REMARK                         _______ _______ _______ _____ _____    ______ ____
ROOT
ATOM      1  C   UNL     1       4.687  -4.761  -1.958  0.00  0.00    +0.042 C 
ATOM      2  C   UNL     1       4.173  -3.337  -2.185  0.00  0.00    +0.114 C 
ATOM      3  C   UNL     1       3.344  -2.875  -1.003  0.00  0.00    +0.247 C 
ATOM      4  O   UNL     1       3.712  -2.747   0.145  0.00  0.00    -0.273 OA
ATOM      5  N   UNL     1       2.112  -2.637  -1.494  0.00  0.00    -0.215 N 
ATOM      6  C   UNL     1       2.046  -2.886  -2.807  0.00  0.00    +0.310 C 
ATOM      7  O   UNL     1       1.038  -2.749  -3.471  0.00  0.00    -0.252 OA
ATOM      8  N   UNL     1       3.223  -3.303  -3.310  0.00  0.00    -0.285 N 
ATOM      9  H   UNL     1       3.408  -3.538  -4.232  0.00  0.00    +0.151 HD
ENDROOT
BRANCH   5  10
ATOM     10  C   UNL     1       0.981  -2.168  -0.689  0.00  0.00    +0.213 C 
BRANCH  10  11
ATOM     11  C   UNL     1       0.961  -0.661  -0.680  0.00  0.00    +0.232 C 
ATOM     12  O   UNL     1       1.807  -0.040  -1.287  0.00  0.00    -0.274 OA
ATOM     13  N   UNL     1       0.002  -0.004   0.002  0.00  0.00    -0.303 N 
ATOM     14  H   UNL     1      -0.675  -0.501   0.488  0.00  0.00    +0.150 HD
BRANCH  13  15
ATOM     15  C   UNL     1      -0.018   1.461   0.010  0.00  0.00    +0.140 C 
BRANCH  15  16
ATOM     16  C   UNL     1      -0.723   1.947   1.250  0.00  0.00    -0.022 A 
ATOM     17  C   UNL     1      -1.859   1.298   1.698  0.00  0.00    +0.008 A 
ATOM     18  C   UNL     1      -2.503   1.740   2.837  0.00  0.00    +0.038 A 
ATOM     19  C   UNL     1      -2.018   2.839   3.525  0.00  0.00    +0.123 A 
ATOM     20  C   UNL     1      -0.884   3.492   3.072  0.00  0.00    +0.038 A 
ATOM     21  C   UNL     1      -0.238   3.045   1.935  0.00  0.00    +0.008 A 
ATOM     22  F   UNL     1      -2.651   3.275   4.636  0.00  0.00    -0.205 F 
ENDBRANCH  15  16
BRANCH  15  23
ATOM     23  C   UNL     1      -0.747   1.960  -1.211  0.00  0.00    +0.014 A 
ATOM     24  C   UNL     1      -0.450   3.014  -2.011  0.00  0.00    +0.013 A 
ATOM     25  C   UNL     1      -1.270   3.288  -3.089  0.00  0.00    +0.008 A 
ATOM     26  C   UNL     1      -2.346   2.495  -3.315  0.00  0.00    +0.045 A 
ATOM     27  S   UNL     1      -2.220   1.313  -1.984  0.00  0.00    -0.099 S 
ENDBRANCH  15  23
ENDBRANCH  13  15
ENDBRANCH  10  11
ENDBRANCH   5  10
BRANCH   2  28
ATOM     28  C   UNL     1       5.338  -2.377  -2.434  0.00  0.00    +0.073 C 
BRANCH  28  29
ATOM     29  C   UNL     1       6.071  -2.790  -3.684  0.00  0.00    -0.003 A 
ATOM     30  C   UNL     1       7.189  -3.598  -3.595  0.00  0.00    +0.007 A 
ATOM     31  C   UNL     1       7.862  -3.977  -4.741  0.00  0.00    +0.000 A 
ATOM     32  C   UNL     1       7.419  -3.550  -5.979  0.00  0.00    +0.004 A 
ATOM     33  C   UNL     1       6.302  -2.743  -6.074  0.00  0.00    +0.046 A 
ATOM     34  C   UNL     1       5.622  -2.364  -4.925  0.00  0.00    +0.123 A 
BRANCH  34  35
ATOM     35  O   UNL     1       4.519  -1.575  -5.016  0.00  0.00    -0.495 OA
ATOM     36  C   UNL     1       4.114  -1.174  -6.326  0.00  0.00    +0.277 C 
ENDBRANCH  34  35
ENDBRANCH  28  29
ENDBRANCH   2  28
TORSDOF 8
