REMARK  Name = ZINC63993662
REMARK  5 active torsions:
REMARK  status: ('A' for Active; 'I' for Inactive)
REMARK    1  A    between atoms: C_4  and  C_7
REMARK    2  A    between atoms: C_7  and  N_8
REMARK    3  A    between atoms: C_11  and  C_13
REMARK    4  A    between atoms: N_23  and  C_26
REMARK    5  A    between atoms: C_26  and  C_27
REMARK                            x       y       z     vdW  Elec       q    Type
REMARK                         _______ _______ _______ _____ _____    ______ ____
ROOT
ATOM      1  N   UNL     1       4.216  -0.994   1.308  0.00  0.00    -0.263 N 
ATOM      2  C   UNL     1       4.952  -0.146   2.040  0.00  0.00    +0.046 A 
ATOM      3  C   UNL     1       5.115  -0.707   3.266  0.00  0.00    +0.020 A 
ATOM      4  C   UNL     1       4.433  -1.932   3.221  0.00  0.00    +0.152 A 
ATOM      5  N   UNL     1       3.913  -2.033   2.009  0.00  0.00    -0.166 NA
ATOM      6  C   UNL     1       5.891  -0.069   4.384  0.00  0.00    +0.123 C 
ATOM      7  N   UNL     1       6.723   1.006   3.812  0.00  0.00    -0.295 NA
ATOM      8  C   UNL     1       5.928   1.911   2.970  0.00  0.00    +0.091 C 
ATOM      9  C   UNL     1       5.531   1.196   1.670  0.00  0.00    +0.071 C 
ENDROOT
BRANCH   4  10
ATOM     10  C   UNL     1       4.315  -2.916   4.317  0.00  0.00    +0.267 C 
ATOM     11  O   UNL     1       4.928  -2.749   5.353  0.00  0.00    -0.268 OA
ATOM     12  N   UNL     1       3.527  -3.999   4.167  0.00  0.00    -0.286 N 
ATOM     13  C   UNL     1       3.317  -4.953   5.270  0.00  0.00    +0.127 C 
ATOM     14  C   UNL     1       1.827  -4.962   5.616  0.00  0.00    +0.123 C 
ATOM     15  N   UNL     1       1.017  -5.059   4.409  0.00  0.00    -0.313 N 
ATOM     16  C   UNL     1       1.434  -4.720   3.189  0.00  0.00    +0.230 C 
ATOM     17  O   UNL     1       0.641  -4.770   2.272  0.00  0.00    -0.274 OA
ATOM     18  C   UNL     1       2.837  -4.274   2.898  0.00  0.00    +0.203 C 
ATOM     19  H   UNL     1       0.111  -5.394   4.500  0.00  0.00    +0.149 HD
ENDBRANCH   4  10
BRANCH   1  20
ATOM     20  C   UNL     1       3.812  -0.772  -0.082  0.00  0.00    +0.179 C 
BRANCH  20  24
ATOM     21  C   UNL     1       0.066   1.280  -0.166  0.00  0.00    +0.000 A 
ATOM     22  C   UNL     1       1.247   1.998  -0.151  0.00  0.00    +0.000 A 
ATOM     23  C   UNL     1       2.459   1.334  -0.123  0.00  0.00    +0.005 A 
ATOM     24  C   UNL     1       2.490  -0.048  -0.111  0.00  0.00    -0.026 A 
ATOM     25  C   UNL     1       1.309  -0.766  -0.126  0.00  0.00    +0.005 A 
ATOM     26  C   UNL     1       0.097  -0.102  -0.154  0.00  0.00    +0.000 A 
ENDBRANCH  20  24
ENDBRANCH   1  20
BRANCH   7  27
ATOM     27  C   UNL     1       7.423   1.749   4.868  0.00  0.00    +0.113 C 
BRANCH  27  28
ATOM     28  C   UNL     1       8.457   2.682   4.235  0.00  0.00    +0.117 C 
ATOM     29  C   UNL     1       9.311   3.318   5.309  0.00  0.00    +0.008 C 
ATOM     30  C   UNL     1      10.581   2.926   5.060  0.00  0.00    -0.004 A 
ATOM     31  C   UNL     1      11.857   3.201   5.731  0.00  0.00    +0.010 A 
ATOM     32  C   UNL     1      12.990   2.654   5.237  0.00  0.00    +0.001 A 
ATOM     33  C   UNL     1      12.977   1.832   4.101  0.00  0.00    +0.002 A 
ATOM     34  C   UNL     1      11.845   1.534   3.430  0.00  0.00    +0.026 A 
ATOM     35  C   UNL     1      10.594   2.055   3.862  0.00  0.00    +0.043 A 
ATOM     36  N   UNL     1       9.378   1.915   3.389  0.00  0.00    -0.377 N 
ATOM     37  H   UNL     1       9.130   1.393   2.610  0.00  0.00    +0.160 HD
ENDBRANCH  27  28
ENDBRANCH   7  27
TORSDOF 5
