REMARK  Name = ZINC14171536
REMARK  3 active torsions:
REMARK  status: ('A' for Active; 'I' for Inactive)
REMARK    1  A    between atoms: C_6  and  C_7
REMARK    2  A    between atoms: C_13  and  C_15
REMARK    3  A    between atoms: C_16  and  C_17
REMARK                            x       y       z     vdW  Elec       q    Type
REMARK                         _______ _______ _______ _____ _____    ______ ____
ROOT
ATOM      1  C   UNL     1       2.489   1.044  -0.017  0.00  0.00    +0.107 C 
ATOM      2  C   UNL     1       2.828   0.542   1.403  0.00  0.00    +0.029 C 
ATOM      3  C   UNL     1       3.455  -0.852   1.138  0.00  0.00    +0.021 C 
ATOM      4  C   UNL     1       2.620  -1.345  -0.070  0.00  0.00    +0.109 C 
ATOM      5  N   UNL     1       2.387  -0.139  -0.885  0.00  0.00    -0.291 N 
ATOM      6  C   UNL     1       2.124  -0.123  -2.207  0.00  0.00    +0.240 C 
ATOM      7  O   UNL     1       1.948   0.938  -2.780  0.00  0.00    -0.271 OA
ENDROOT
BRANCH   1  13
ATOM      8  C   UNL     1      -0.013   1.076   0.008  0.00  0.00    +0.009 A 
ATOM      9  C   UNL     1      -1.220   1.750   0.017  0.00  0.00    +0.050 A 
ATOM     10  C   UNL     1      -1.241   3.136   0.030  0.00  0.00    +0.162 A 
ATOM     11  C   UNL     1      -0.046   3.846   0.024  0.00  0.00    +0.162 A 
ATOM     12  C   UNL     1       1.161   3.164   0.008  0.00  0.00    +0.055 A 
ATOM     13  C   UNL     1       1.175   1.782   0.000  0.00  0.00    -0.023 A 
ATOM     14  O   UNL     1      -0.045   5.207   0.039  0.00  0.00    -0.485 OA
ATOM     15  C   UNL     1      -1.269   5.856  -0.321  0.00  0.00    +0.270 C 
ATOM     16  C   UNL     1      -2.418   5.164   0.425  0.00  0.00    +0.270 C 
ATOM     17  O   UNL     1      -2.438   3.785   0.038  0.00  0.00    -0.485 OA
ENDBRANCH   1  13
BRANCH   6  18
ATOM     18  C   UNL     1       2.052  -1.337  -2.928  0.00  0.00    +0.068 C 
ATOM     19  C   UNL     1       1.788  -1.321  -4.259  0.00  0.00    +0.020 C 
BRANCH  19  20
ATOM     20  C   UNL     1       1.716  -2.535  -4.981  0.00  0.00    +0.013 A 
ATOM     21  C   UNL     1       1.455  -2.738  -6.331  0.00  0.00    +0.016 A 
ATOM     22  C   UNL     1       1.449  -4.035  -6.777  0.00  0.00    +0.023 A 
ATOM     23  C   UNL     1       1.683  -5.043  -5.892  0.00  0.00    +0.055 A 
ATOM     24  S   UNL     1       1.930  -4.207  -4.394  0.00  0.00    -0.082 S 
ATOM     25 BR   UNL     1       1.728  -6.905  -6.218  0.00  0.00    -0.043 Br
ENDBRANCH  19  20
ENDBRANCH   6  18
TORSDOF 3
