REMARK  Name = ZINC35984024
REMARK  11 active torsions:
REMARK  status: ('A' for Active; 'I' for Inactive)
REMARK    1  A    between atoms: C_1  and  O_2
REMARK    2  A    between atoms: O_2  and  C_3
REMARK    3  A    between atoms: C_6  and  C_11
REMARK    4  A    between atoms: C_8  and  O_9
REMARK    5  A    between atoms: O_9  and  C_10
REMARK    6  A    between atoms: N_15  and  C_19
REMARK    7  A    between atoms: C_19  and  C_20
REMARK    8  A    between atoms: C_20  and  C_21
REMARK    9  A    between atoms: N_23  and  C_24
REMARK   10  A    between atoms: C_26  and  N_31
REMARK   11  A    between atoms: C_29  and  O_30
REMARK                            x       y       z     vdW  Elec       q    Type
REMARK                         _______ _______ _______ _____ _____    ______ ____
ROOT
ATOM      1  C   UNL     1      -4.959  -2.708   0.034  0.00  0.00    +0.028 C 
ATOM      2  C   UNL     1      -6.092  -1.969   0.148  0.00  0.00    +0.077 C 
ATOM      3  C   UNL     1      -7.494  -2.412   0.284  0.00  0.00    +0.258 C 
ATOM      4  O   UNL     1      -7.793  -3.592   0.311  0.00  0.00    -0.269 OA
ATOM      5  N   UNL     1      -8.409  -1.462   0.377  0.00  0.00    -0.255 N 
ATOM      6  C   UNL     1      -8.074  -0.156   0.347  0.00  0.00    +0.121 C 
ATOM      7  S   UNL     1      -9.103   1.208   0.452  0.00  0.00    -0.027 S 
ATOM      8  S   UNL     1      -6.297  -0.194   0.180  0.00  0.00    -0.061 S 
ENDROOT
BRANCH   1  12
ATOM      9  C   UNL     1      -1.172  -0.793   0.066  0.00  0.00    +0.162 A 
ATOM     10  C   UNL     1      -2.265  -0.178   0.662  0.00  0.00    +0.050 A 
ATOM     11  C   UNL     1      -3.497  -0.795   0.654  0.00  0.00    +0.012 A 
ATOM     12  C   UNL     1      -3.648  -2.046   0.044  0.00  0.00    -0.020 A 
ATOM     13  C   UNL     1      -2.545  -2.665  -0.557  0.00  0.00    +0.057 A 
ATOM     14  C   UNL     1      -1.315  -2.036  -0.548  0.00  0.00    +0.162 A 
BRANCH   9  16
ATOM     15  C   UNL     1       0.116   1.093   0.724  0.00  0.00    +0.277 C 
ATOM     16  O   UNL     1       0.040  -0.178   0.077  0.00  0.00    -0.491 OA
ENDBRANCH   9  16
BRANCH  14  17
ATOM     17  O   UNL     1      -0.243  -2.632  -1.135  0.00  0.00    -0.491 OA
ATOM     18  C   UNL     1      -0.461  -3.905  -1.746  0.00  0.00    +0.277 C 
ENDBRANCH  14  17
ENDBRANCH   1  12
BRANCH   5  19
ATOM     19  C   UNL     1      -9.819  -1.836   0.513  0.00  0.00    +0.124 C 
BRANCH  19  20
ATOM     20  C   UNL     1     -10.169  -1.971   1.997  0.00  0.00    +0.115 C 
BRANCH  20  21
ATOM     21  C   UNL     1     -11.619  -2.356   2.138  0.00  0.00    +0.219 C 
ATOM     22  O   UNL     1     -12.305  -2.508   1.149  0.00  0.00    -0.275 OA
ATOM     23  N   UNL     1     -12.154  -2.532   3.362  0.00  0.00    -0.282 N 
ATOM     24  H   UNL     1     -11.631  -2.328   4.154  0.00  0.00    +0.155 HD
BRANCH  23  25
ATOM     25  C   UNL     1     -13.465  -3.010   3.493  0.00  0.00    +0.078 A 
ATOM     26  C   UNL     1     -14.033  -3.768   2.479  0.00  0.00    +0.059 A 
ATOM     27  C   UNL     1     -15.326  -4.237   2.610  0.00  0.00    +0.128 A 
ATOM     28  C   UNL     1     -16.056  -3.954   3.749  0.00  0.00    +0.036 A 
ATOM     29  C   UNL     1     -15.497  -3.199   4.763  0.00  0.00    +0.049 A 
ATOM     30  C   UNL     1     -14.199  -2.729   4.643  0.00  0.00    +0.138 A 
BRANCH  27  31
ATOM     31  N   UNL     1     -15.930  -5.046   1.527  0.00  0.00    +0.056 N 
ATOM     32  O   UNL     1     -15.293  -5.294   0.530  0.00  0.00    -0.126 OA
ATOM     33  O   UNL     1     -17.061  -5.458   1.640  0.00  0.00    -0.126 OA
ENDBRANCH  27  31
BRANCH  30  34
ATOM     34  O   UNL     1     -13.646  -1.992   5.642  0.00  0.00    -0.505 OA
ATOM     35  H   UNL     1     -13.792  -1.040   5.555  0.00  0.00    +0.292 HD
ENDBRANCH  30  34
ENDBRANCH  23  25
ENDBRANCH  20  21
ENDBRANCH  19  20
ENDBRANCH   5  19
TORSDOF 9
