REMARK  Name = ZINC32885637
REMARK  7 active torsions:
REMARK  status: ('A' for Active; 'I' for Inactive)
REMARK    1  A    between atoms: C_1  and  C_2
REMARK    2  A    between atoms: C_2  and  C_3
REMARK    3  A    between atoms: C_3  and  C_4
REMARK    4  A    between atoms: C_7  and  C_10
REMARK    5  A    between atoms: C_10  and  C_12
REMARK    6  A    between atoms: C_10  and  N_17
REMARK    7  A    between atoms: C_18  and  C_20
REMARK                            x       y       z     vdW  Elec       q    Type
REMARK                         _______ _______ _______ _____ _____    ______ ____
ROOT
ATOM      1  N   UNL     1      -1.743   3.564   5.669  0.00  0.00    -0.303 N 
ATOM      2  C   UNL     1      -1.992   3.615   6.992  0.00  0.00    +0.222 C 
ATOM      3  O   UNL     1      -3.022   3.151   7.434  0.00  0.00    -0.275 OA
ATOM      4  H   UNL     1      -0.809   3.986   5.268  0.00  0.00    +0.150 HD
ENDROOT
BRANCH   2   5
ATOM      5  C   UNL     1      -0.991   4.248   7.924  0.00  0.00    +0.115 C 
ATOM      6  C   UNL     1       0.339   3.501   7.826  0.00  0.00    +0.113 C 
ATOM      7  C   UNL     1       0.215   2.147   8.469  0.00  0.00    +0.218 C 
ATOM      8  O   UNL     1       0.816   1.203   8.001  0.00  0.00    -0.275 OA
ATOM      9  N   UNL     1      -0.555   1.970   9.559  0.00  0.00    -0.285 N 
ATOM     10  C   UNL     1      -1.269   3.041  10.103  0.00  0.00    +0.037 A 
ATOM     11  C   UNL     1      -1.506   4.176   9.338  0.00  0.00    -0.014 A 
ATOM     12  C   UNL     1      -2.212   5.234   9.874  0.00  0.00    +0.006 A 
ATOM     13  C   UNL     1      -2.684   5.165  11.173  0.00  0.00    +0.000 A 
ATOM     14  C   UNL     1      -2.450   4.036  11.937  0.00  0.00    +0.002 A 
ATOM     15  C   UNL     1      -1.744   2.974  11.405  0.00  0.00    +0.023 A 
ATOM     16  H   UNL     1      -0.625   0.977  10.027  0.00  0.00    +0.155 HD
ENDBRANCH   2   5
BRANCH   1  17
ATOM     17  C   UNL     1      -2.717   2.949   4.763  0.00  0.00    +0.140 C 
BRANCH  17  21
ATOM     18  C   UNL     1      -0.718   1.572   1.248  0.00  0.00    -0.047 A 
ATOM     19  C   UNL     1      -0.360   2.779   1.819  0.00  0.00    +0.004 A 
ATOM     20  C   UNL     1      -1.010   3.227   2.954  0.00  0.00    +0.006 A 
ATOM     21  C   UNL     1      -2.012   2.463   3.523  0.00  0.00    -0.022 A 
ATOM     22  C   UNL     1      -2.366   1.254   2.955  0.00  0.00    +0.006 A 
ATOM     23  C   UNL     1      -1.719   0.808   1.818  0.00  0.00    +0.004 A 
BRANCH  18  24
ATOM     24  C   UNL     1      -0.013   1.086   0.008  0.00  0.00    +0.035 C 
BRANCH  24  26
ATOM     25  C   UNL     1      -0.037   1.099  -2.490  0.00  0.00    +0.004 C 
ATOM     26  C   UNL     1      -0.753   1.593  -1.232  0.00  0.00    +0.001 C 
ENDBRANCH  24  26
ENDBRANCH  18  24
ENDBRANCH  17  21
BRANCH  17  27
ATOM     27  C   UNL     1      -3.761   3.966   4.381  0.00  0.00    +0.014 A 
ATOM     28  C   UNL     1      -5.098   3.802   4.234  0.00  0.00    +0.013 A 
ATOM     29  C   UNL     1      -5.872   4.891   3.877  0.00  0.00    +0.008 A 
ATOM     30  C   UNL     1      -5.269   6.088   3.675  0.00  0.00    +0.045 A 
ATOM     31  S   UNL     1      -3.557   5.698   3.998  0.00  0.00    -0.099 S 
ENDBRANCH  17  27
ENDBRANCH   1  17
TORSDOF 6
