REMARK  Name = ZINC57485121
REMARK  5 active torsions:
REMARK  status: ('A' for Active; 'I' for Inactive)
REMARK    1  A    between atoms: C_4  and  C_7
REMARK    2  A    between atoms: C_7  and  N_8
REMARK    3  A    between atoms: N_8  and  C_9
REMARK    4  A    between atoms: C_9  and  C_10
REMARK    5  A    between atoms: N_16  and  C_17
REMARK                            x       y       z     vdW  Elec       q    Type
REMARK                         _______ _______ _______ _____ _____    ______ ____
ROOT
ATOM      1  N   UNL     1       4.198  -0.940   1.288  0.00  0.00    -0.281 N 
ATOM      2  C   UNL     1       4.956  -0.033   1.937  0.00  0.00    +0.303 C 
ATOM      3  O   UNL     1       5.273   1.001   1.383  0.00  0.00    -0.253 OA
ATOM      4  N   UNL     1       5.361  -0.274   3.199  0.00  0.00    -0.296 N 
ATOM      5  H   UNL     1       5.108  -1.099   3.641  0.00  0.00    +0.151 HD
ENDROOT
BRANCH   4   6
ATOM      6  C   UNL     1       6.185   0.712   3.904  0.00  0.00    +0.077 C 
ATOM      7  C   UNL     1       7.657   0.497   3.545  0.00  0.00    +0.041 C 
ATOM      8  C   UNL     1       8.511   1.550   4.256  0.00  0.00    +0.108 C 
ATOM      9  N   UNL     1       8.228   1.495   5.697  0.00  0.00    -0.317 N 
ATOM     10  C   UNL     1       6.833   1.601   6.147  0.00  0.00    +0.108 C 
ATOM     11  C   UNL     1       5.998   0.546   5.414  0.00  0.00    +0.041 C 
ATOM     12  C   UNL     1       9.260   1.345   6.616  0.00  0.00    +0.099 A 
ATOM     13  C   UNL     1       8.986   1.420   7.978  0.00  0.00    +0.042 A 
ATOM     14  C   UNL     1      10.021   1.269   8.882  0.00  0.00    +0.005 A 
ATOM     15  C   UNL     1      11.302   1.047   8.392  0.00  0.00    +0.018 A 
ATOM     16  C   UNL     1      11.502   0.984   7.027  0.00  0.00    +0.084 A 
ATOM     17  N   UNL     1      10.493   1.127   6.188  0.00  0.00    -0.350 N 
ATOM     18  H   UNL     1      10.661   1.074   5.234  0.00  0.00    +0.166 HD
ENDBRANCH   4   6
BRANCH   1  19
ATOM     19  C   UNL     1       3.757  -0.678  -0.084  0.00  0.00    +0.144 C 
BRANCH  19  23
ATOM     20  C   UNL     1      -0.001   1.351  -0.012  0.00  0.00    +0.000 A 
ATOM     21  C   UNL     1       1.176   2.076  -0.005  0.00  0.00    +0.000 A 
ATOM     22  C   UNL     1       2.392   1.419  -0.028  0.00  0.00    +0.005 A 
ATOM     23  C   UNL     1       2.431   0.038  -0.058  0.00  0.00    -0.030 A 
ATOM     24  C   UNL     1       1.254  -0.687  -0.064  0.00  0.00    +0.005 A 
ATOM     25  C   UNL     1       0.038  -0.030  -0.042  0.00  0.00    +0.000 A 
ENDBRANCH  19  23
ENDBRANCH   1  19
BRANCH   1  26
ATOM     26  C   UNL     1       3.815  -2.187   1.956  0.00  0.00    +0.113 C 
BRANCH  26  27
ATOM     27  C   UNL     1       4.875  -3.256   1.684  0.00  0.00    +0.006 C 
ATOM     28  C   UNL     1       4.631  -4.049   0.388  0.00  0.00    +0.005 C 
ATOM     29  C   UNL     1       5.078  -5.300   1.163  0.00  0.00    +0.001 C 
ATOM     30  C   UNL     1       4.630  -4.572   2.441  0.00  0.00    +0.005 C 
ENDBRANCH  26  27
ENDBRANCH   1  26
TORSDOF 5
