REMARK  Name = ZINC58420763
REMARK  4 active torsions:
REMARK  status: ('A' for Active; 'I' for Inactive)
REMARK    1  A    between atoms: C_3  and  N_24
REMARK    2  A    between atoms: C_4  and  C_8
REMARK    3  A    between atoms: C_8  and  N_9
REMARK    4  A    between atoms: C_19  and  C_21
REMARK                            x       y       z     vdW  Elec       q    Type
REMARK                         _______ _______ _______ _____ _____    ______ ____
ROOT
ATOM      1  N   UNL     1       4.392  -0.701   1.282  0.00  0.00    -0.284 NA
ATOM      2  C   UNL     1       5.778  -1.153   1.299  0.00  0.00    +0.061 C 
ATOM      3  C   UNL     1       6.857  -0.123   1.038  0.00  0.00    +0.019 C 
ATOM      4  C   UNL     1       8.209  -0.855   1.075  0.00  0.00    +0.002 C 
ATOM      5  C   UNL     1       8.418  -1.569   2.407  0.00  0.00    +0.000 C 
ATOM      6  C   UNL     1       7.254  -2.522   2.724  0.00  0.00    +0.005 C 
ATOM      7  C   UNL     1       5.987  -1.675   2.746  0.00  0.00    +0.008 C 
ATOM      8  C   UNL     1       4.687  -2.470   2.942  0.00  0.00    +0.033 C 
ATOM      9  C   UNL     1       3.645  -1.554   2.244  0.00  0.00    +0.144 C 
ENDROOT
BRANCH   9  10
ATOM     10  C   UNL     1       2.634  -2.394   1.507  0.00  0.00    +0.228 C 
ATOM     11  O   UNL     1       3.002  -3.193   0.672  0.00  0.00    -0.274 OA
ATOM     12  N   UNL     1       1.320  -2.258   1.776  0.00  0.00    -0.328 N 
ATOM     13  H   UNL     1       1.030  -1.672   2.493  0.00  0.00    +0.145 HD
ATOM     14  H   UNL     1       0.665  -2.746   1.253  0.00  0.00    +0.145 HD
ENDBRANCH   9  10
BRANCH   1  15
ATOM     15  C   UNL     1       3.821  -0.805  -0.067  0.00  0.00    +0.123 C 
BRANCH  15  19
ATOM     16  C   UNL     1       0.075   1.249  -0.191  0.00  0.00    +0.040 A 
ATOM     17  C   UNL     1       1.249   1.959  -0.021  0.00  0.00    +0.036 A 
ATOM     18  C   UNL     1       2.460   1.294   0.020  0.00  0.00    +0.131 A 
ATOM     19  C   UNL     1       2.499  -0.082  -0.111  0.00  0.00    -0.000 A 
ATOM     20  C   UNL     1       1.327  -0.794  -0.281  0.00  0.00    +0.045 A 
ATOM     21  C   UNL     1       0.113  -0.129  -0.321  0.00  0.00    +0.124 A 
ATOM     22  F   UNL     1      -1.033  -0.824  -0.487  0.00  0.00    -0.205 F 
BRANCH  18  23
ATOM     23  N   UNL     1       3.716   2.056   0.202  0.00  0.00    +0.057 N 
ATOM     24  O   UNL     1       3.682   3.259   0.315  0.00  0.00    -0.126 OA
ATOM     25  O   UNL     1       4.776   1.475   0.237  0.00  0.00    -0.126 OA
ENDBRANCH  18  23
ENDBRANCH  15  19
ENDBRANCH   1  15
TORSDOF 4
