REMARK  Name = ZINC40079883
REMARK  4 active torsions:
REMARK  status: ('A' for Active; 'I' for Inactive)
REMARK    1  A    between atoms: C_5  and  C_7
REMARK    2  A    between atoms: C_10  and  C_12
REMARK    3  A    between atoms: N_14  and  C_15
REMARK    4  A    between atoms: C_18  and  N_21
REMARK                            x       y       z     vdW  Elec       q    Type
REMARK                         _______ _______ _______ _____ _____    ______ ____
ROOT
ATOM      1  C   UNL     1       1.954  -6.189  -0.769  0.00  0.00    +0.255 C 
ATOM      2  O   UNL     1       1.489  -7.143  -0.173  0.00  0.00    -0.269 OA
ATOM      3  N   UNL     1       2.800  -6.386  -1.800  0.00  0.00    -0.281 N 
ATOM      4  H   UNL     1       3.118  -5.629  -2.318  0.00  0.00    +0.155 HD
ENDROOT
BRANCH   3   5
ATOM      5  C   UNL     1       3.220  -7.681  -2.123  0.00  0.00    +0.034 A 
ATOM      6  C   UNL     1       4.511  -7.898  -2.587  0.00  0.00    +0.025 A 
ATOM      7  C   UNL     1       4.925  -9.176  -2.905  0.00  0.00    +0.025 A 
ATOM      8  C   UNL     1       4.050 -10.245  -2.763  0.00  0.00    +0.035 A 
ATOM      9  C   UNL     1       2.759 -10.028  -2.300  0.00  0.00    +0.025 A 
ATOM     10  C   UNL     1       2.347  -8.752  -1.975  0.00  0.00    +0.025 A 
BRANCH   8  11
ATOM     11  N   UNL     1       4.470 -11.541  -3.087  0.00  0.00    -0.270 N 
ATOM     12  C   UNL     1       3.601 -12.415  -3.634  0.00  0.00    +0.301 C 
ATOM     13  O   UNL     1       2.432 -12.106  -3.768  0.00  0.00    -0.253 OA
ATOM     14  N   UNL     1       4.026 -13.630  -4.031  0.00  0.00    -0.313 N 
ATOM     15  H   UNL     1       5.386 -11.811  -2.919  0.00  0.00    +0.156 HD
ATOM     16  H   UNL     1       4.958 -13.877  -3.924  0.00  0.00    +0.146 HD
ATOM     17  H   UNL     1       3.401 -14.258  -4.424  0.00  0.00    +0.146 HD
ENDBRANCH   8  11
ENDBRANCH   3   5
BRANCH   1  21
ATOM     18  C   UNL     1       1.220  -2.182   0.017  0.00  0.00    +0.023 A 
ATOM     19  C   UNL     1       0.562  -3.075   0.848  0.00  0.00    +0.017 A 
ATOM     20  C   UNL     1       0.751  -4.414   0.654  0.00  0.00    +0.021 A 
ATOM     21  C   UNL     1       1.594  -4.827  -0.367  0.00  0.00    +0.075 A 
ATOM     22  S   UNL     1       2.122  -3.274  -1.070  0.00  0.00    -0.084 S 
BRANCH  18  27
ATOM     23  C   UNL     1      -0.076   1.342   0.056  0.00  0.00    +0.001 A 
ATOM     24  C   UNL     1       1.104   2.065   0.038  0.00  0.00    +0.003 A 
ATOM     25  C   UNL     1       2.322   1.411   0.013  0.00  0.00    +0.039 A 
ATOM     26  C   UNL     1       2.369   0.030   0.005  0.00  0.00    +0.132 A 
ATOM     27  C   UNL     1       1.180  -0.705   0.024  0.00  0.00    +0.024 A 
ATOM     28  C   UNL     1      -0.046  -0.037   0.050  0.00  0.00    +0.012 A 
ATOM     29  F   UNL     1       3.559  -0.608  -0.021  0.00  0.00    -0.205 F 
ENDBRANCH  18  27
ENDBRANCH   1  21
TORSDOF 4
