REMARK  Name = ZINC27066329
REMARK  7 active torsions:
REMARK  status: ('A' for Active; 'I' for Inactive)
REMARK    1  A    between atoms: C_1  and  C_2
REMARK    2  A    between atoms: C_5  and  C_8
REMARK    3  A    between atoms: C_8  and  C_31
REMARK    4  A    between atoms: N_11  and  C_15
REMARK    5  A    between atoms: C_15  and  C_16
REMARK    6  A    between atoms: N_18  and  C_19
REMARK    7  A    between atoms: C_24  and  N_25
REMARK                            x       y       z     vdW  Elec       q    Type
REMARK                         _______ _______ _______ _____ _____    ______ ____
ROOT
ATOM      1  C   UNL     1       2.925  -6.178   1.374  0.00  0.00    +0.214 C 
ENDROOT
BRANCH   1   5
ATOM      2  C   UNL     1       0.049  -4.272  -0.002  0.00  0.00    +0.135 C 
ATOM      3  C   UNL     1       0.863  -4.806   1.160  0.00  0.00    +0.251 C 
ATOM      4  O   UNL     1       0.641  -4.651   2.342  0.00  0.00    -0.272 OA
ATOM      5  N   UNL     1       1.883  -5.491   0.607  0.00  0.00    -0.215 N 
ATOM      6  C   UNL     1       1.828  -5.464  -0.730  0.00  0.00    +0.310 C 
ATOM      7  O   UNL     1       2.640  -6.011  -1.451  0.00  0.00    -0.252 OA
ATOM      8  N   UNL     1       0.774  -4.764  -1.187  0.00  0.00    -0.281 N 
ATOM      9  C   UNL     1      -1.374  -4.834   0.029  0.00  0.00    +0.047 C 
ATOM     10  H   UNL     1       0.537  -4.614  -2.115  0.00  0.00    +0.152 HD
BRANCH   2  15
ATOM     11  C   UNL     1      -0.052   1.505   0.067  0.00  0.00    +0.044 C 
ATOM     12  C   UNL     1      -0.025  -0.002   0.049  0.00  0.00    -0.050 A 
ATOM     13  C   UNL     1      -0.016  -0.678  -1.156  0.00  0.00    +0.004 A 
ATOM     14  C   UNL     1       0.009  -2.060  -1.173  0.00  0.00    +0.006 A 
ATOM     15  C   UNL     1       0.024  -2.766   0.016  0.00  0.00    -0.015 A 
ATOM     16  C   UNL     1       0.015  -2.089   1.221  0.00  0.00    +0.006 A 
ATOM     17  C   UNL     1      -0.005  -0.707   1.238  0.00  0.00    +0.004 A 
ENDBRANCH   2  15
ENDBRANCH   1   5
BRANCH   1  18
ATOM     18  C   UNL     1       2.494  -7.597   1.646  0.00  0.00    +0.235 C 
ATOM     19  O   UNL     1       1.422  -7.994   1.240  0.00  0.00    -0.274 OA
ATOM     20  N   UNL     1       3.299  -8.424   2.342  0.00  0.00    -0.283 N 
ATOM     21  H   UNL     1       4.189  -8.133   2.598  0.00  0.00    +0.155 HD
BRANCH  20  22
ATOM     22  C   UNL     1       2.852  -9.704   2.696  0.00  0.00    +0.055 A 
ATOM     23  C   UNL     1       1.494  -9.959   2.812  0.00  0.00    +0.025 A 
ATOM     24  C   UNL     1       1.055 -11.222   3.161  0.00  0.00    +0.002 A 
ATOM     25  C   UNL     1       1.966 -12.235   3.396  0.00  0.00    +0.002 A 
ATOM     26  C   UNL     1       3.322 -11.990   3.282  0.00  0.00    +0.025 A 
ATOM     27  C   UNL     1       3.771 -10.727   2.926  0.00  0.00    +0.051 A 
BRANCH  27  28
ATOM     28  N   UNL     1       5.143 -10.479   2.805  0.00  0.00    -0.328 N 
ATOM     29  C   UNL     1       5.928 -10.031   3.963  0.00  0.00    +0.105 C 
ATOM     30  C   UNL     1       7.125 -10.970   4.140  0.00  0.00    +0.019 C 
ATOM     31  C   UNL     1       7.916 -11.033   2.831  0.00  0.00    +0.003 C 
ATOM     32  C   UNL     1       7.024 -11.592   1.720  0.00  0.00    +0.019 C 
ATOM     33  C   UNL     1       5.826 -10.666   1.518  0.00  0.00    +0.105 C 
ENDBRANCH  27  28
ENDBRANCH  20  22
ENDBRANCH   1  18
TORSDOF 5
