REMARK  Name = ZINC05509171
REMARK  7 active torsions:
REMARK  status: ('A' for Active; 'I' for Inactive)
REMARK    1  A    between atoms: C_1  and  C_2
REMARK    2  A    between atoms: C_2  and  C_3
REMARK    3  A    between atoms: C_3  and  C_4
REMARK    4  A    between atoms: C_4  and  C_6
REMARK    5  A    between atoms: C_4  and  N_7
REMARK    6  A    between atoms: C_14  and  C_21
REMARK    7  A    between atoms: C_18  and  O_20
REMARK                            x       y       z     vdW  Elec       q    Type
REMARK                         _______ _______ _______ _____ _____    ______ ____
ROOT
ATOM      1  N   UNL     1      -0.810  -2.550   1.248  0.00  0.00    -0.264 N 
ATOM      2  C   UNL     1       0.337  -3.336   1.345  0.00  0.00    +0.161 A 
ATOM      3  C   UNL     1       0.553  -3.571   2.679  0.00  0.00    +0.079 A 
ATOM      4  C   UNL     1      -0.470  -2.918   3.406  0.00  0.00    +0.271 A 
ATOM      5  O   UNL     1      -0.589  -2.913   4.619  0.00  0.00    -0.266 OA
ATOM      6  N   UNL     1      -1.284  -2.302   2.536  0.00  0.00    -0.261 N 
ATOM      7  H   UNL     1      -2.068  -1.777   2.763  0.00  0.00    +0.190 HD
ATOM      8  C   UNL     1       1.635  -4.360   3.352  0.00  0.00    +0.116 C 
ATOM      9  S   UNL     1       3.204  -4.274   2.482  0.00  0.00    -0.138 S 
ATOM     10  C   UNL     1       2.943  -5.117   0.914  0.00  0.00    +0.165 C 
ATOM     11  C   UNL     1       2.040  -4.379   0.006  0.00  0.00    +0.199 C 
ATOM     12  N   UNL     1       1.004  -3.714   0.261  0.00  0.00    -0.197 NA
ENDROOT
BRANCH   8  13
ATOM     13  C   UNL     1       1.827  -3.829   4.749  0.00  0.00    -0.030 A 
ATOM     14  C   UNL     1       2.186  -2.508   4.942  0.00  0.00    +0.006 A 
ATOM     15  C   UNL     1       2.362  -2.021   6.224  0.00  0.00    +0.015 A 
ATOM     16  C   UNL     1       2.177  -2.854   7.312  0.00  0.00    +0.018 A 
ATOM     17  C   UNL     1       1.817  -4.175   7.118  0.00  0.00    +0.015 A 
ATOM     18  C   UNL     1       1.637  -4.661   5.836  0.00  0.00    +0.006 A 
ATOM     19 BR   UNL     1       2.418  -2.187   9.065  0.00  0.00    -0.050 Br
ENDBRANCH   8  13
BRANCH   1  20
ATOM     20  C   UNL     1      -1.413  -2.063   0.004  0.00  0.00    +0.104 C 
ATOM     21  C   UNL     1      -2.844  -2.592  -0.110  0.00  0.00    +0.032 C 
BRANCH  20  22
ATOM     22  C   UNL     1      -1.433  -0.534   0.013  0.00  0.00    +0.026 C 
BRANCH  22  24
ATOM     23  C   UNL     1      -0.019   1.526   0.010  0.00  0.00    +0.004 C 
ATOM     24  C   UNL     1       0.002  -0.004   0.002  0.00  0.00    -0.001 C 
ENDBRANCH  22  24
ENDBRANCH  20  22
ENDBRANCH   1  20
BRANCH  11  25
ATOM     25  O   UNL     1       2.379  -4.426  -1.294  0.00  0.00    -0.495 OA
ATOM     26  H   UNL     1       1.779  -3.938  -1.875  0.00  0.00    +0.293 HD
ENDBRANCH  11  25
TORSDOF 5
