REMARK  Name = ZINC60864372
REMARK  5 active torsions:
REMARK  status: ('A' for Active; 'I' for Inactive)
REMARK    1  A    between atoms: C_4  and  C_7
REMARK    2  A    between atoms: C_7  and  C_8
REMARK    3  A    between atoms: C_7  and  C_20
REMARK    4  A    between atoms: C_8  and  N_9
REMARK    5  A    between atoms: N_9  and  C_10
REMARK                            x       y       z     vdW  Elec       q    Type
REMARK                         _______ _______ _______ _____ _____    ______ ____
ROOT
ATOM      1  C   UNL     1       3.662  -0.703  -0.033  0.00  0.00    +0.068 C 
ENDROOT
BRANCH   1   2
ATOM      2  C   UNL     1       3.501  -1.571  -1.255  0.00  0.00    -0.013 A 
ATOM      3  C   UNL     1       2.457  -2.367  -1.536  0.00  0.00    +0.088 A 
ATOM      4  N   UNL     1       2.663  -3.001  -2.731  0.00  0.00    -0.360 N 
ATOM      5  H   UNL     1       2.046  -3.626  -3.143  0.00  0.00    +0.165 HD
ATOM      6  C   UNL     1       3.874  -2.618  -3.262  0.00  0.00    +0.047 A 
ATOM      7  C   UNL     1       4.449  -1.700  -2.363  0.00  0.00    +0.003 A 
ATOM      8  C   UNL     1       5.693  -1.134  -2.647  0.00  0.00    +0.010 A 
ATOM      9  C   UNL     1       6.345  -1.470  -3.800  0.00  0.00    +0.001 A 
ATOM     10  C   UNL     1       5.780  -2.372  -4.692  0.00  0.00    +0.002 A 
ATOM     11  C   UNL     1       4.557  -2.950  -4.427  0.00  0.00    +0.026 A 
ENDBRANCH   1   2
BRANCH   1  15
ATOM     12  C   UNL     1       0.453   2.111   0.147  0.00  0.00    +0.000 A 
ATOM     13  C   UNL     1       1.760   2.557   0.071  0.00  0.00    +0.000 A 
ATOM     14  C   UNL     1       2.798   1.646   0.013  0.00  0.00    +0.004 A 
ATOM     15  C   UNL     1       2.530   0.290   0.031  0.00  0.00    -0.038 A 
ATOM     16  C   UNL     1       1.224  -0.155   0.108  0.00  0.00    +0.004 A 
ATOM     17  C   UNL     1       0.185   0.755   0.165  0.00  0.00    +0.000 A 
ENDBRANCH   1  15
BRANCH   1  18
ATOM     18  C   UNL     1       3.644  -1.579   1.221  0.00  0.00    +0.114 C 
BRANCH  18  19
ATOM     19  N   UNL     1       3.920  -0.752   2.398  0.00  0.00    -0.348 N 
ATOM     20  H   UNL     1       4.078   0.200   2.296  0.00  0.00    +0.146 HD
BRANCH  19  21
ATOM     21  C   UNL     1       3.954  -1.314   3.624  0.00  0.00    +0.085 C 
ATOM     22  C   UNL     1       4.100  -0.519   4.745  0.00  0.00    +0.112 C 
ATOM     23  C   UNL     1       4.041   0.952   4.658  0.00  0.00    +0.256 C 
ATOM     24  O   UNL     1       3.862   1.508   3.590  0.00  0.00    -0.270 OA
ATOM     25  N   UNL     1       4.191   1.664   5.793  0.00  0.00    -0.263 N 
ATOM     26  C   UNL     1       4.388   1.064   6.976  0.00  0.00    +0.143 C 
ATOM     27  S   UNL     1       4.568   2.049   8.364  0.00  0.00    -0.018 S 
ATOM     28  N   UNL     1       4.453  -0.266   7.129  0.00  0.00    -0.263 N 
ATOM     29  C   UNL     1       4.314  -1.104   6.080  0.00  0.00    +0.256 C 
ATOM     30  O   UNL     1       4.370  -2.309   6.233  0.00  0.00    -0.270 OA
ATOM     31  H   UNL     1       4.155   2.632   5.753  0.00  0.00    +0.157 HD
ATOM     32  H   UNL     1       4.598  -0.635   8.014  0.00  0.00    +0.157 HD
ENDBRANCH  19  21
ENDBRANCH  18  19
ENDBRANCH   1  18
TORSDOF 5
