REMARK  Name = ZINC39466065
REMARK  10 active torsions:
REMARK  status: ('A' for Active; 'I' for Inactive)
REMARK    1  A    between atoms: C_1  and  C_2
REMARK    2  A    between atoms: C_2  and  C_3
REMARK    3  A    between atoms: C_2  and  S_4
REMARK    4  A    between atoms: S_4  and  C_7
REMARK    5  A    between atoms: C_12  and  C_13
REMARK    6  A    between atoms: C_13  and  C_14
REMARK    7  A    between atoms: P_27  and  S_30
REMARK    8  A    between atoms: S_30  and  C_33
REMARK    9  A    between atoms: C_33  and  C_34
REMARK   10  A    between atoms: C_33  and  C_35
REMARK                            x       y       z     vdW  Elec       q    Type
REMARK                         _______ _______ _______ _____ _____    ______ ____
ROOT
ATOM      1  C   UNL     1      -2.455  -0.029   0.150  0.00  0.00    +0.092 A 
ATOM      2  C   UNL     1      -2.967  -1.259  -0.210  0.00  0.00    +0.032 A 
ATOM      3  C   UNL     1      -3.171  -1.571  -1.546  0.00  0.00    -0.022 A 
ATOM      4  C   UNL     1      -2.861  -0.644  -2.517  0.00  0.00    -0.041 A 
ATOM      5  C   UNL     1      -2.348   0.592  -2.156  0.00  0.00    +0.009 A 
ATOM      6  C   UNL     1      -2.150   0.902  -0.825  0.00  0.00    -0.018 A 
ATOM      7  C   UNL     1      -3.069  -0.938  -3.981  0.00  0.00    +0.052 C 
ATOM      8  C   UNL     1      -3.187  -2.448  -4.190  0.00  0.00    +0.108 C 
ATOM      9  N   UNL     1      -4.204  -2.975  -3.268  0.00  0.00    -0.224 NA
ATOM     10  C   UNL     1      -3.731  -2.928  -1.884  0.00  0.00    +0.130 C 
ATOM     11  C   UNL     1      -4.860  -3.261  -0.905  0.00  0.00    +0.195 C 
ATOM     12  O   UNL     1      -5.311  -4.606  -1.159  0.00  0.00    -0.298 OA
ATOM     13  P   UNL     1      -5.669  -5.022  -2.690  0.00  0.00    +0.419 P 
ATOM     14  O   UNL     1      -7.030  -4.560  -3.041  0.00  0.00    -0.246 OA
ATOM     15  N   UNL     1      -4.545  -4.258  -3.634  0.00  0.00    -0.161 NA
ATOM     16  H   UNL     1      -4.147  -4.691  -4.405  0.00  0.00    +0.152 HD
ENDROOT
BRANCH   1  17
ATOM     17  S   UNL     1      -2.198   0.358   1.850  0.00  0.00    -0.001 S 
ATOM     18  O   UNL     1      -1.423   1.548   1.838  0.00  0.00    -0.169 OA
ATOM     19  O   UNL     1      -1.682  -0.837   2.419  0.00  0.00    -0.169 OA
BRANCH  17  21
ATOM     20  C   UNL     1      -4.727  -0.552   2.360  0.00  0.00    +0.032 C 
ATOM     21  C   UNL     1      -3.855   0.697   2.506  0.00  0.00    +0.130 C 
ATOM     22  C   UNL     1      -3.750   1.076   3.985  0.00  0.00    +0.032 C 
ENDBRANCH  17  21
ENDBRANCH   1  17
BRANCH  13  23
ATOM     23  S   UNL     1      -5.525  -7.124  -2.931  0.00  0.00    +0.058 S 
ATOM     24  O   UNL     1      -5.948  -7.365  -4.266  0.00  0.00    -0.164 OA
ATOM     25  O   UNL     1      -4.204  -7.446  -2.520  0.00  0.00    -0.164 OA
BRANCH  23  26
ATOM     26  C   UNL     1      -6.729  -7.810  -1.760  0.00  0.00    +0.136 C 
ATOM     27  C   UNL     1      -6.625  -9.336  -1.758  0.00  0.00    +0.032 C 
ATOM     28  C   UNL     1      -6.437  -7.276  -0.357  0.00  0.00    +0.032 C 
ENDBRANCH  23  26
ENDBRANCH  13  23
BRANCH   6  29
ATOM     29  C   UNL     1      -1.597   2.250  -0.437  0.00  0.00    +0.072 C 
BRANCH  29  30
ATOM     30  C   UNL     1      -0.094   2.223  -0.533  0.00  0.00    -0.043 A 
ATOM     31  C   UNL     1       0.618   1.197   0.061  0.00  0.00    +0.004 A 
ATOM     32  C   UNL     1       1.998   1.173  -0.027  0.00  0.00    +0.000 A 
ATOM     33  C   UNL     1       2.665   2.173  -0.708  0.00  0.00    +0.000 A 
ATOM     34  C   UNL     1       1.953   3.199  -1.302  0.00  0.00    +0.000 A 
ATOM     35  C   UNL     1       0.573   3.221  -1.218  0.00  0.00    +0.004 A 
ENDBRANCH  29  30
ENDBRANCH   6  29
TORSDOF 6
