REMARK  Name = ZINC12296961
REMARK  5 active torsions:
REMARK  status: ('A' for Active; 'I' for Inactive)
REMARK    1  A    between atoms: N_17  and  C_18
REMARK    2  A    between atoms: C_18  and  C_19
REMARK    3  A    between atoms: C_19  and  C_20
REMARK    4  A    between atoms: N_22  and  C_23
REMARK    5  A    between atoms: C_27  and  O_29
REMARK                            x       y       z     vdW  Elec       q    Type
REMARK                         _______ _______ _______ _____ _____    ______ ____
ROOT
ATOM      1  C   UNL     1       3.740   2.925   0.488  0.00  0.00    +0.001 A 
ATOM      2  C   UNL     1       4.424   1.732   0.315  0.00  0.00    +0.002 A 
ATOM      3  C   UNL     1       3.772   0.516   0.206  0.00  0.00    +0.026 A 
ATOM      4  C   UNL     1       2.381   0.537   0.278  0.00  0.00    +0.047 A 
ATOM      5  C   UNL     1       1.686   1.761   0.457  0.00  0.00    +0.003 A 
ATOM      6  C   UNL     1       2.370   2.976   0.563  0.00  0.00    +0.010 A 
ATOM      7  C   UNL     1       0.278   1.421   0.489  0.00  0.00    -0.016 A 
ATOM      8  C   UNL     1       0.192   0.082   0.334  0.00  0.00    +0.038 A 
ATOM      9  N   UNL     1       1.445  -0.455   0.209  0.00  0.00    -0.356 N 
ATOM     10  H   UNL     1       1.639  -1.397   0.088  0.00  0.00    +0.166 HD
ATOM     11  C   UNL     1      -1.119  -0.672   0.303  0.00  0.00    +0.162 C 
ATOM     12  N   UNL     1      -2.174   0.257   0.744  0.00  0.00    -0.280 N 
ATOM     13  C   UNL     1      -2.172   1.623   0.199  0.00  0.00    +0.114 C 
ATOM     14  C   UNL     1      -0.902   2.343   0.666  0.00  0.00    +0.056 C 
ATOM     15  C   UNL     1      -3.118  -0.136   1.622  0.00  0.00    +0.303 C 
ATOM     16  O   UNL     1      -3.924   0.669   2.048  0.00  0.00    -0.253 OA
ATOM     17  N   UNL     1      -3.167  -1.419   2.029  0.00  0.00    -0.299 N 
ATOM     18  H   UNL     1      -2.482  -2.045   1.746  0.00  0.00    +0.150 HD
ENDROOT
BRANCH  17  19
ATOM     19  C   UNL     1      -4.256  -1.871   2.900  0.00  0.00    +0.115 C 
BRANCH  19  20
ATOM     20  C   UNL     1      -4.077  -3.358   3.211  0.00  0.00    +0.115 C 
BRANCH  20  21
ATOM     21  C   UNL     1      -5.197  -3.822   4.106  0.00  0.00    +0.219 C 
ATOM     22  O   UNL     1      -6.054  -3.040   4.461  0.00  0.00    -0.275 OA
ATOM     23  N   UNL     1      -5.247  -5.106   4.513  0.00  0.00    -0.285 N 
ATOM     24  H   UNL     1      -4.524  -5.713   4.291  0.00  0.00    +0.155 HD
BRANCH  23  25
ATOM     25  C   UNL     1      -6.341  -5.563   5.255  0.00  0.00    +0.037 A 
ATOM     26  C   UNL     1      -6.165  -6.544   6.223  0.00  0.00    +0.023 A 
ATOM     27  C   UNL     1      -7.244  -6.992   6.959  0.00  0.00    +0.005 A 
ATOM     28  C   UNL     1      -8.504  -6.472   6.729  0.00  0.00    +0.045 A 
ATOM     29  C   UNL     1      -8.687  -5.495   5.760  0.00  0.00    +0.119 A 
ATOM     30  C   UNL     1      -7.605  -5.040   5.022  0.00  0.00    +0.068 A 
BRANCH  29  31
ATOM     31  O   UNL     1      -9.927  -4.986   5.534  0.00  0.00    -0.507 OA
ATOM     32  H   UNL     1     -10.433  -5.466   4.864  0.00  0.00    +0.292 HD
ENDBRANCH  29  31
ENDBRANCH  23  25
ENDBRANCH  20  21
ENDBRANCH  19  20
ENDBRANCH  17  19
TORSDOF 5
