REMARK  Name = ZINC39227966
REMARK  7 active torsions:
REMARK  status: ('A' for Active; 'I' for Inactive)
REMARK    1  A    between atoms: C_1  and  O_2
REMARK    2  A    between atoms: O_2  and  C_3
REMARK    3  A    between atoms: C_6  and  O_35
REMARK    4  A    between atoms: C_7  and  C_9
REMARK    5  A    between atoms: N_23  and  C_24
REMARK    6  A    between atoms: C_24  and  C_25
REMARK    7  A    between atoms: O_35  and  C_36
REMARK                            x       y       z     vdW  Elec       q    Type
REMARK                         _______ _______ _______ _____ _____    ______ ____
ROOT
ATOM      1  C   UNL     1       1.505  -4.262   2.232  0.00  0.00    +0.014 C 
ATOM      2  C   UNL     1       0.464  -4.796   3.187  0.00  0.00    +0.011 A 
ATOM      3  N   UNL     1       0.564  -4.906   4.547  0.00  0.00    -0.359 N 
ATOM      4  C   UNL     1      -0.587  -5.439   5.054  0.00  0.00    +0.047 A 
ATOM      5  C   UNL     1      -0.979  -5.747   6.354  0.00  0.00    +0.026 A 
ATOM      6  C   UNL     1      -2.242  -6.288   6.518  0.00  0.00    +0.002 A 
ATOM      7  C   UNL     1      -3.091  -6.519   5.448  0.00  0.00    +0.001 A 
ATOM      8  C   UNL     1      -2.732  -6.226   4.155  0.00  0.00    +0.010 A 
ATOM      9  C   UNL     1      -1.460  -5.678   3.960  0.00  0.00    +0.003 A 
ATOM     10  C   UNL     1      -0.744  -5.248   2.780  0.00  0.00    -0.022 A 
ATOM     11  H   UNL     1       1.337  -4.645   5.073  0.00  0.00    +0.166 HD
ATOM     12  C   UNL     1      -1.178  -5.259   1.336  0.00  0.00    +0.019 C 
ATOM     13  C   UNL     1      -0.221  -4.352   0.551  0.00  0.00    -0.072 C 
ATOM     14  N   UNL     1       1.172  -4.710   0.871  0.00  0.00    +0.391 N 
ATOM     15  H   UNL     1       1.282  -5.711   0.812  0.00  0.00    -0.080 HD
ENDROOT
BRANCH   1  20
ATOM     16  C   UNL     1       0.382  -0.686   2.718  0.00  0.00    +0.121 A 
ATOM     17  C   UNL     1       1.528   0.014   2.371  0.00  0.00    +0.049 A 
ATOM     18  C   UNL     1       2.663  -0.669   1.980  0.00  0.00    +0.049 A 
ATOM     19  C   UNL     1       2.657  -2.055   1.935  0.00  0.00    +0.122 A 
ATOM     20  C   UNL     1       1.511  -2.756   2.282  0.00  0.00    -0.010 A 
ATOM     21  C   UNL     1       0.378  -2.072   2.678  0.00  0.00    +0.051 A 
BRANCH  16  23
ATOM     22  C   UNL     1      -0.660   1.413   3.121  0.00  0.00    +0.277 C 
ATOM     23  O   UNL     1      -0.736  -0.014   3.103  0.00  0.00    -0.495 OA
ENDBRANCH  16  23
BRANCH  19  24
ATOM     24  O   UNL     1       3.774  -2.728   1.549  0.00  0.00    -0.495 OA
ATOM     25  C   UNL     1       4.917  -1.943   1.205  0.00  0.00    +0.277 C 
ENDBRANCH  19  24
ENDBRANCH   1  20
BRANCH  14  26
ATOM     26  C   UNL     1       2.079  -4.066  -0.089  0.00  0.00    -0.040 C 
BRANCH  26  27
ATOM     27  C   UNL     1       1.839  -4.633  -1.464  0.00  0.00    -0.049 A 
ATOM     28  C   UNL     1       2.573  -5.663  -1.909  0.00  0.00    +0.048 A 
ATOM     29  S   UNL     1       1.926  -5.960  -3.543  0.00  0.00    -0.096 S 
ATOM     30  C   UNL     1       0.688  -4.690  -3.585  0.00  0.00    +0.020 A 
ATOM     31  C   UNL     1       0.806  -4.071  -2.321  0.00  0.00    -0.008 A 
ATOM     32  C   UNL     1      -0.078  -2.998  -2.055  0.00  0.00    +0.029 A 
ATOM     33  C   UNL     1      -0.997  -2.603  -2.992  0.00  0.00    +0.042 A 
ATOM     34  C   UNL     1      -1.092  -3.237  -4.225  0.00  0.00    +0.021 A 
ATOM     35  C   UNL     1      -0.237  -4.280  -4.520  0.00  0.00    +0.017 A 
ATOM     36 CL   UNL     1      -2.066  -1.283  -2.631  0.00  0.00    -0.084 Cl
ENDBRANCH  26  27
ENDBRANCH  14  26
TORSDOF 5
