REMARK  Name = ZINC39623454
REMARK  7 active torsions:
REMARK  status: ('A' for Active; 'I' for Inactive)
REMARK    1  A    between atoms: C_1  and  C_2
REMARK    2  A    between atoms: C_2  and  C_3
REMARK    3  A    between atoms: C_3  and  C_4
REMARK    4  A    between atoms: C_4  and  C_5
REMARK    5  A    between atoms: C_5  and  N_6
REMARK    6  A    between atoms: C_7  and  C_9
REMARK    7  A    between atoms: C_20  and  C_22
REMARK                            x       y       z     vdW  Elec       q    Type
REMARK                         _______ _______ _______ _____ _____    ______ ____
ROOT
ATOM      1  C   UNL     1       1.679  -6.555  -3.770  0.00  0.00    +0.100 C 
ATOM      2  C   UNL     1       2.625  -6.872  -2.590  0.00  0.00    +0.121 C 
ATOM      3  N   UNL     1       3.492  -7.965  -3.088  0.00  0.00    -0.296 N 
ATOM      4  C   UNL     1       3.769  -7.602  -4.499  0.00  0.00    +0.115 C 
ATOM      5  C   UNL     1       2.434  -7.035  -5.021  0.00  0.00    -0.004 C 
ATOM      6  C   UNL     1       2.692  -5.864  -5.965  0.00  0.00    -0.010 C 
ATOM      7  C   UNL     1       3.391  -6.376  -7.227  0.00  0.00    -0.082 C 
ATOM      8  N   UNL     1       2.547  -7.383  -7.883  0.00  0.00    +0.379 N 
ATOM      9  C   UNL     1       2.381  -8.546  -7.004  0.00  0.00    -0.082 C 
ATOM     10  C   UNL     1       1.639  -8.126  -5.732  0.00  0.00    -0.010 C 
ATOM     11  C   UNL     1       3.930  -9.045  -2.412  0.00  0.00    +0.249 C 
ATOM     12  O   UNL     1       4.717  -9.811  -2.934  0.00  0.00    -0.270 OA
ATOM     13  H   UNL     1       1.643  -6.982  -8.083  0.00  0.00    -0.086 HD
ATOM     14  H   UNL     1       2.982  -7.674  -8.745  0.00  0.00    -0.086 HD
ENDROOT
BRANCH  11  15
ATOM     15  C   UNL     1       3.454  -9.299  -1.037  0.00  0.00    +0.073 A 
ATOM     16  C   UNL     1       3.200  -8.230  -0.174  0.00  0.00    +0.036 A 
ATOM     17  C   UNL     1       2.755  -8.474   1.109  0.00  0.00    +0.042 A 
ATOM     18  C   UNL     1       2.560  -9.775   1.543  0.00  0.00    +0.023 A 
ATOM     19  C   UNL     1       2.808 -10.838   0.696  0.00  0.00    +0.040 A 
ATOM     20  C   UNL     1       3.250 -10.609  -0.595  0.00  0.00    +0.136 A 
ATOM     21  F   UNL     1       3.487 -11.649  -1.424  0.00  0.00    -0.205 F 
ATOM     22 CL   UNL     1       2.440  -7.147   2.182  0.00  0.00    -0.084 Cl
ENDBRANCH  11  15
BRANCH   1  24
ATOM     23  N   UNL     1       0.256  -4.620  -4.359  0.00  0.00    -0.315 N 
ATOM     24  C   UNL     1       1.419  -5.073  -3.851  0.00  0.00    +0.218 C 
ATOM     25  O   UNL     1       2.256  -4.288  -3.459  0.00  0.00    -0.275 OA
ATOM     26  H   UNL     1      -0.414  -5.248  -4.673  0.00  0.00    +0.149 HD
BRANCH  23  27
ATOM     27  C   UNL     1       0.003  -3.179  -4.438  0.00  0.00    +0.104 C 
BRANCH  27  28
ATOM     28  C   UNL     1      -1.379  -2.936  -5.049  0.00  0.00    +0.019 C 
BRANCH  28  29
ATOM     29  C   UNL     1      -1.643  -1.431  -5.131  0.00  0.00    +0.001 C 
BRANCH  29  31
ATOM     30  C   UNL     1      -3.289   0.316  -5.824  0.00  0.00    +0.004 C 
ATOM     31  C   UNL     1      -3.025  -1.189  -5.742  0.00  0.00    -0.003 C 
ENDBRANCH  29  31
ENDBRANCH  28  29
ENDBRANCH  27  28
ENDBRANCH  23  27
ENDBRANCH   1  24
TORSDOF 6
