REMARK  Name = ZINC34686391
REMARK  11 active torsions:
REMARK  status: ('A' for Active; 'I' for Inactive)
REMARK    1  A    between atoms: C_1  and  C_2
REMARK    2  A    between atoms: C_2  and  C_3
REMARK    3  A    between atoms: C_3  and  C_5
REMARK    4  A    between atoms: C_3  and  O_15
REMARK    5  A    between atoms: N_7  and  C_8
REMARK    6  A    between atoms: C_8  and  C_9
REMARK    7  A    between atoms: C_9  and  N_10
REMARK    8  A    between atoms: O_15  and  C_16
REMARK    9  A    between atoms: C_22  and  C_32
REMARK   10  A    between atoms: C_27  and  C_29
REMARK   11  A    between atoms: C_35  and  C_38
REMARK                            x       y       z     vdW  Elec       q    Type
REMARK                         _______ _______ _______ _____ _____    ______ ____
ROOT
ATOM      1  C   UNL     1       2.166   1.331  -2.865  0.00  0.00    +0.122 A 
ATOM      2  C   UNL     1       1.414   2.299  -3.516  0.00  0.00    +0.046 A 
ATOM      3  C   UNL     1       2.000   3.491  -3.880  0.00  0.00    +0.007 A 
ATOM      4  C   UNL     1       3.339   3.738  -3.599  0.00  0.00    -0.040 A 
ATOM      5  C   UNL     1       4.084   2.782  -2.945  0.00  0.00    -0.016 A 
ATOM      6  C   UNL     1       3.498   1.579  -2.578  0.00  0.00    +0.051 A 
ATOM      7  C   UNL     1       5.533   2.996  -2.583  0.00  0.00    +0.137 C 
ATOM      8  N   UNL     1       6.042   4.189  -3.268  0.00  0.00    -0.290 N 
ATOM      9  C   UNL     1       5.186   5.387  -3.265  0.00  0.00    +0.113 C 
ATOM     10  C   UNL     1       3.913   5.058  -4.043  0.00  0.00    +0.054 C 
ATOM     11  C   UNL     1       7.245   4.189  -3.876  0.00  0.00    +0.219 C 
ATOM     12  O   UNL     1       7.962   3.213  -3.802  0.00  0.00    -0.275 OA
ENDROOT
BRANCH   7  13
ATOM     13  C   UNL     1       6.338   1.794  -3.007  0.00  0.00    -0.023 A 
ATOM     14  C   UNL     1       6.520   1.522  -4.350  0.00  0.00    +0.006 A 
ATOM     15  C   UNL     1       7.258   0.420  -4.738  0.00  0.00    +0.004 A 
ATOM     16  C   UNL     1       7.815  -0.410  -3.783  0.00  0.00    -0.050 A 
ATOM     17  C   UNL     1       7.634  -0.137  -2.440  0.00  0.00    +0.004 A 
ATOM     18  C   UNL     1       6.899   0.967  -2.052  0.00  0.00    +0.006 A 
ATOM     19  C   UNL     1       8.619  -1.612  -4.206  0.00  0.00    +0.044 C 
ENDBRANCH   7  13
BRANCH  11  20
ATOM     20  C   UNL     1       7.699   5.401  -4.649  0.00  0.00    +0.075 C 
ATOM     21  C   UNL     1       7.806   5.269  -6.169  0.00  0.00    +0.013 C 
ATOM     22  C   UNL     1       9.074   5.338  -5.316  0.00  0.00    +0.013 C 
ENDBRANCH  11  20
BRANCH   1  23
ATOM     23  O   UNL     1       1.598   0.150  -2.506  0.00  0.00    -0.480 OA
BRANCH  23  24
ATOM     24  C   UNL     1       0.247  -0.071  -2.917  0.00  0.00    +0.258 C 
BRANCH  24  25
ATOM     25  C   UNL     1       0.076  -1.512  -3.324  0.00  0.00    +0.254 C 
ATOM     26  O   UNL     1       0.991  -2.295  -3.182  0.00  0.00    -0.272 OA
ATOM     27  N   UNL     1      -1.094  -1.931  -3.845  0.00  0.00    -0.314 N 
ATOM     28  H   UNL     1      -1.826  -1.305  -3.958  0.00  0.00    +0.149 HD
BRANCH  27  29
ATOM     29  C   UNL     1      -1.261  -3.332  -4.240  0.00  0.00    +0.086 C 
BRANCH  29  30
ATOM     30  C   UNL     1      -2.670  -3.541  -4.797  0.00  0.00    -0.060 C 
BRANCH  30  31
ATOM     31  N   UNL     1      -2.837  -4.945  -5.194  0.00  0.00    +0.381 N 
ATOM     32  C   UNL     1      -2.848  -5.818  -3.992  0.00  0.00    -0.079 C 
ATOM     33  C   UNL     1      -3.571  -7.096  -4.489  0.00  0.00    -0.020 C 
ATOM     34  C   UNL     1      -4.659  -6.533  -5.432  0.00  0.00    -0.020 C 
ATOM     35  C   UNL     1      -4.151  -5.139  -5.845  0.00  0.00    -0.079 C 
ATOM     36  H   UNL     1      -2.095  -5.221  -5.819  0.00  0.00    -0.082 HD
ENDBRANCH  30  31
ENDBRANCH  29  30
ENDBRANCH  27  29
ENDBRANCH  24  25
BRANCH  24  38
ATOM     37  C   UNL     1      -0.615   1.738  -1.426  0.00  0.00    +0.008 C 
ATOM     38  C   UNL     1      -0.698   0.247  -1.757  0.00  0.00    +0.051 C 
ENDBRANCH  24  38
ENDBRANCH  23  24
ENDBRANCH   1  23
TORSDOF 9
