REMARK  Name = ZINC02775346
REMARK  8 active torsions:
REMARK  status: ('A' for Active; 'I' for Inactive)
REMARK    1  A    between atoms: C_1  and  C_2
REMARK    2  A    between atoms: C_2  and  C_3
REMARK    3  A    between atoms: C_2  and  C_4
REMARK    4  A    between atoms: C_4  and  O_5
REMARK    5  A    between atoms: O_5  and  C_6
REMARK    6  A    between atoms: C_10  and  C_12
REMARK    7  A    between atoms: C_14  and  C_22
REMARK    8  A    between atoms: N_24  and  N_25
REMARK                            x       y       z     vdW  Elec       q    Type
REMARK                         _______ _______ _______ _____ _____    ______ ____
ROOT
ATOM      1  C   UNL     1      -0.076   5.330   0.047  0.00  0.00    +0.073 A 
ATOM      2  C   UNL     1      -1.316   5.987   0.063  0.00  0.00    +0.042 A 
ATOM      3  C   UNL     1      -1.352   7.374   0.057  0.00  0.00    +0.049 A 
ATOM      4  C   UNL     1      -0.070   8.079   0.035  0.00  0.00    +0.013 A 
ATOM      5  C   UNL     1      -0.005   9.477   0.029  0.00  0.00    +0.011 A 
ATOM      6  C   UNL     1       1.211  10.094   0.007  0.00  0.00    +0.001 A 
ATOM      7  C   UNL     1       2.389   9.350  -0.007  0.00  0.00    +0.002 A 
ATOM      8  C   UNL     1       2.361   7.989  -0.001  0.00  0.00    +0.028 A 
ATOM      9  C   UNL     1       1.125   7.317   0.020  0.00  0.00    +0.072 A 
ATOM     10  N   UNL     1       1.066   5.984   0.032  0.00  0.00    -0.247 NA
ENDROOT
BRANCH   1  15
ATOM     11  C   UNL     1       1.182   1.784   0.044  0.00  0.00    +0.121 A 
ATOM     12  C   UNL     1      -0.012   1.076   0.066  0.00  0.00    +0.045 A 
ATOM     13  C   UNL     1      -1.219   1.748   0.076  0.00  0.00    +0.004 A 
ATOM     14  C   UNL     1      -1.245   3.129   0.075  0.00  0.00    +0.010 A 
ATOM     15  C   UNL     1      -0.051   3.848   0.053  0.00  0.00    +0.004 A 
ATOM     16  C   UNL     1       1.166   3.169   0.037  0.00  0.00    +0.055 A 
BRANCH  11  17
ATOM     17  O   UNL     1       2.367   1.119   0.029  0.00  0.00    -0.492 OA
BRANCH  17  18
ATOM     18  C   UNL     1       2.309  -0.309   0.037  0.00  0.00    +0.232 C 
BRANCH  18  20
ATOM     19  C   UNL     1       4.450  -0.494   1.312  0.00  0.00    +0.010 C 
ATOM     20  C   UNL     1       3.729  -0.877   0.018  0.00  0.00    +0.020 C 
ATOM     21  C   UNL     1       3.667  -2.402  -0.099  0.00  0.00    +0.010 C 
ENDBRANCH  18  20
ENDBRANCH  17  18
ENDBRANCH  11  17
ENDBRANCH   1  15
BRANCH   3  22
ATOM     22  C   UNL     1      -2.635   8.110   0.074  0.00  0.00    +0.258 C 
ATOM     23  O   UNL     1      -2.640   9.321   0.174  0.00  0.00    -0.269 OA
ATOM     24  N   UNL     1      -3.799   7.437  -0.021  0.00  0.00    -0.250 N 
ATOM     25  H   UNL     1      -3.796   6.471  -0.101  0.00  0.00    +0.169 HD
BRANCH  24  26
ATOM     26  N   UNL     1      -4.984   8.117  -0.006  0.00  0.00    -0.254 NA
ATOM     27  H   UNL     1      -5.010   8.815  -0.734  0.00  0.00    +0.140 HD
ATOM     28  H   UNL     1      -5.765   7.483  -0.085  0.00  0.00    +0.140 HD
ENDBRANCH  24  26
ENDBRANCH   3  22
TORSDOF 6
