REMARK  Name = ZINC19912267
REMARK  12 active torsions:
REMARK  status: ('A' for Active; 'I' for Inactive)
REMARK    1  A    between atoms: C_1  and  C_2
REMARK    2  A    between atoms: C_4  and  C_36
REMARK    3  A    between atoms: C_6  and  O_8
REMARK    4  A    between atoms: O_8  and  C_9
REMARK    5  A    between atoms: C_14  and  O_20
REMARK    6  A    between atoms: O_20  and  C_21
REMARK    7  A    between atoms: C_21  and  C_22
REMARK    8  A    between atoms: C_22  and  C_24
REMARK    9  A    between atoms: C_22  and  O_35
REMARK   10  A    between atoms: C_24  and  N_25
REMARK   11  A    between atoms: C_27  and  C_34
REMARK   12  A    between atoms: C_30  and  C_33
REMARK                            x       y       z     vdW  Elec       q    Type
REMARK                         _______ _______ _______ _____ _____    ______ ____
ROOT
ATOM      1  C   UNL     1       6.141  11.982   1.304  0.00  0.00    +0.210 A 
ATOM      2  C   UNL     1       7.133  11.087   1.481  0.00  0.00    +0.245 A 
ATOM      3  O   UNL     1       6.923   9.764   1.489  0.00  0.00    -0.459 OA
ATOM      4  C   UNL     1       5.698   9.226   1.319  0.00  0.00    +0.142 A 
ATOM      5  C   UNL     1       5.514   7.851   1.339  0.00  0.00    +0.092 A 
ATOM      6  C   UNL     1       4.246   7.325   1.158  0.00  0.00    +0.124 A 
ATOM      7  C   UNL     1       3.151   8.165   0.966  0.00  0.00    +0.046 A 
ATOM      8  C   UNL     1       3.315   9.521   0.949  0.00  0.00    +0.019 A 
ATOM      9  C   UNL     1       4.587  10.066   1.125  0.00  0.00    +0.068 A 
ATOM     10  C   UNL     1       4.807  11.523   1.114  0.00  0.00    +0.234 A 
ATOM     11  O   UNL     1       3.884  12.303   0.950  0.00  0.00    -0.283 OA
ENDROOT
BRANCH   1  12
ATOM     12  O   UNL     1       6.413  13.316   1.305  0.00  0.00    -0.449 OA
BRANCH  12  18
ATOM     13  C   UNL     1       9.963  15.373   3.948  0.00  0.00    +0.044 C 
ATOM     14  C   UNL     1       9.478  14.707   2.687  0.00  0.00    -0.047 A 
ATOM     15  C   UNL     1      10.354  14.489   1.639  0.00  0.00    +0.007 A 
ATOM     16  C   UNL     1       9.911  13.878   0.480  0.00  0.00    -0.047 A 
ATOM     17  C   UNL     1       8.592  13.485   0.366  0.00  0.00    +0.049 A 
ATOM     18  C   UNL     1       7.711  13.702   1.415  0.00  0.00    +0.129 A 
ATOM     19  C   UNL     1       8.156  14.320   2.575  0.00  0.00    +0.049 A 
ATOM     20  C   UNL     1      10.869  13.642  -0.659  0.00  0.00    +0.044 C 
ENDBRANCH  12  18
ENDBRANCH   1  12
BRANCH   6  21
ATOM     21  O   UNL     1       4.067   5.979   1.173  0.00  0.00    -0.489 OA
BRANCH  21  22
ATOM     22  C   UNL     1       2.734   5.500   0.986  0.00  0.00    +0.261 C 
BRANCH  22  23
ATOM     23  C   UNL     1       2.731   3.971   1.033  0.00  0.00    +0.166 C 
BRANCH  23  24
ATOM     24  O   UNL     1       3.110   3.534   2.340  0.00  0.00    -0.387 OA
ATOM     25  H   UNL     1       3.165   2.459   2.566  0.00  0.00    +0.210 HD
ENDBRANCH  23  24
BRANCH  23  26
ATOM     26  C   UNL     1       1.328   3.454   0.710  0.00  0.00    +0.119 C 
BRANCH  26  27
ATOM     27  N   UNL     1       1.336   1.985   0.705  0.00  0.00    -0.295 NA
ATOM     28  C   UNL     1       2.160   1.466  -0.397  0.00  0.00    +0.115 C 
ATOM     29  C   UNL     1       2.190  -0.063  -0.329  0.00  0.00    +0.130 C 
ATOM     30  O   UNL     1       0.851  -0.563  -0.373  0.00  0.00    -0.371 OA
ATOM     31  C   UNL     1       0.021  -0.079   0.687  0.00  0.00    +0.130 C 
ATOM     32  C   UNL     1      -0.031   1.450   0.629  0.00  0.00    +0.115 C 
ATOM     33  C   UNL     1      -1.392  -0.644   0.528  0.00  0.00    +0.039 C 
ATOM     34  C   UNL     1       2.858  -0.503   0.975  0.00  0.00    +0.039 C 
ENDBRANCH  26  27
ENDBRANCH  23  26
ENDBRANCH  22  23
ENDBRANCH  21  22
ENDBRANCH   6  21
TORSDOF 8
