REMARK  Name = ZINC03361221
REMARK  15 active torsions:
REMARK  status: ('A' for Active; 'I' for Inactive)
REMARK    1  A    between atoms: C_1  and  C_2
REMARK    2  A    between atoms: C_2  and  C_3
REMARK    3  A    between atoms: C_2  and  C_4
REMARK    4  A    between atoms: C_4  and  N_5
REMARK    5  A    between atoms: C_6  and  N_31
REMARK    6  A    between atoms: C_7  and  N_14
REMARK    7  A    between atoms: N_14  and  C_15
REMARK    8  A    between atoms: C_15  and  C_16
REMARK    9  A    between atoms: C_16  and  C_17
REMARK   10  A    between atoms: C_16  and  C_18
REMARK   11  A    between atoms: C_19  and  C_21
REMARK   12  A    between atoms: C_21  and  N_63
REMARK   13  A    between atoms: C_22  and  N_63
REMARK   14  A    between atoms: C_23  and  C_24
REMARK   15  A    between atoms: C_23  and  N_63
REMARK                            x       y       z     vdW  Elec       q    Type
REMARK                         _______ _______ _______ _____ _____    ______ ____
ROOT
ATOM      1  N   UNL     1       1.275   2.130  -0.487  0.00  0.00    -0.266 N 
ATOM      2  C   UNL     1       0.077   1.514  -0.414  0.00  0.00    +0.203 C 
ATOM      3  O   UNL     1       0.015   0.341  -0.113  0.00  0.00    -0.277 OA
ENDROOT
BRANCH   1   6
ATOM      4  N   UNL     1       4.345   1.177   1.293  0.00  0.00    -0.280 N 
ATOM      5  C   UNL     1       3.208   1.872   0.954  0.00  0.00    +0.127 A 
ATOM      6  C   UNL     1       2.447   1.439  -0.114  0.00  0.00    +0.140 A 
ATOM      7  C   UNL     1       2.858   0.294  -0.820  0.00  0.00    +0.277 A 
ATOM      8  O   UNL     1       2.203  -0.113  -1.765  0.00  0.00    -0.266 OA
ATOM      9  N   UNL     1       3.984  -0.348  -0.450  0.00  0.00    -0.273 N 
ATOM     10  H   UNL     1       4.282  -1.157  -0.957  0.00  0.00    +0.173 HD
ATOM     11  C   UNL     1       4.712   0.088   0.593  0.00  0.00    +0.331 A 
ATOM     12  O   UNL     1       5.721  -0.512   0.910  0.00  0.00    -0.246 OA
BRANCH   5  13
ATOM     13  N   UNL     1       2.833   2.984   1.668  0.00  0.00    -0.343 N 
ATOM     14  H   UNL     1       1.981   3.412   1.489  0.00  0.00    +0.144 HD
ATOM     15  H   UNL     1       3.420   3.342   2.352  0.00  0.00    +0.144 HD
ENDBRANCH   5  13
BRANCH   4  16
ATOM     16  C   UNL     1       5.161   1.625   2.425  0.00  0.00    +0.131 C 
BRANCH  16  18
ATOM     17  C   UNL     1       5.599   1.318   4.865  0.00  0.00    +0.009 C 
ATOM     18  C   UNL     1       4.671   0.948   3.706  0.00  0.00    +0.003 C 
ATOM     19  C   UNL     1       3.250   1.419   4.021  0.00  0.00    +0.009 C 
ENDBRANCH  16  18
ENDBRANCH   4  16
ENDBRANCH   1   6
BRANCH   1  20
ATOM     20  C   UNL     1       1.359   3.517  -0.953  0.00  0.00    +0.117 C 
BRANCH  20  21
ATOM     21  C   UNL     1       1.401   3.539  -2.482  0.00  0.00    +0.001 C 
ATOM     22  C   UNL     1       1.334   4.987  -2.973  0.00  0.00    +0.009 C 
ATOM     23  C   UNL     1       2.703   2.896  -2.966  0.00  0.00    +0.009 C 
ENDBRANCH  20  21
ENDBRANCH   1  20
BRANCH   2  24
ATOM     24  C   UNL     1      -1.185   2.283  -0.714  0.00  0.00    +0.019 C 
BRANCH  24  26
ATOM     25  C   UNL     1      -2.455   1.140   1.001  0.00  0.00    -0.095 C 
ATOM     26  N   UNL     1      -2.348   1.411  -0.448  0.00  0.00    +0.386 N 
ATOM     27  H   UNL     1      -2.219   0.522  -0.945  0.00  0.00    -0.081 HD
BRANCH  26  28
ATOM     28  C   UNL     1      -3.585   2.058  -0.933  0.00  0.00    -0.043 C 
BRANCH  28  29
ATOM     29  C   UNL     1      -4.716   1.065  -0.852  0.00  0.00    -0.063 A 
ATOM     30  C   UNL     1      -4.983   0.232  -1.923  0.00  0.00    +0.002 A 
ATOM     31  C   UNL     1      -6.018  -0.681  -1.848  0.00  0.00    +0.002 A 
ATOM     32  C   UNL     1      -6.793  -0.756  -0.706  0.00  0.00    +0.020 A 
ATOM     33  C   UNL     1      -6.529   0.080   0.364  0.00  0.00    +0.041 A 
ATOM     34  C   UNL     1      -5.490   0.991   0.290  0.00  0.00    +0.021 A 
ATOM     35 CL   UNL     1      -7.502  -0.013   1.799  0.00  0.00    -0.084 Cl
ENDBRANCH  28  29
ENDBRANCH  26  28
ENDBRANCH  24  26
ENDBRANCH   2  24
TORSDOF 10
