REMARK  Name = ZINC18030963
REMARK  4 active torsions:
REMARK  status: ('A' for Active; 'I' for Inactive)
REMARK    1  A    between atoms: C_1  and  C_2
REMARK    2  A    between atoms: C_7  and  C_8
REMARK    3  A    between atoms: N_16  and  C_19
REMARK    4  A    between atoms: N_26  and  C_27
REMARK                            x       y       z     vdW  Elec       q    Type
REMARK                         _______ _______ _______ _____ _____    ______ ____
ROOT
ATOM      1  C   UNL     1       0.242   0.060   2.486  0.00  0.00    +0.157 C 
ATOM      2  C   UNL     1       1.648   0.622   2.656  0.00  0.00    +0.145 C 
ATOM      3  C   UNL     1       2.283  -0.639   3.357  0.00  0.00    +0.249 C 
ATOM      4  C   UNL     1       3.699  -0.393   3.167  0.00  0.00    +0.259 C 
ATOM      5  O   UNL     1       4.604  -0.693   3.916  0.00  0.00    -0.272 OA
ATOM      6  N   UNL     1       3.797   0.251   1.961  0.00  0.00    -0.208 N 
ATOM      7  C   UNL     1       2.583   0.703   1.491  0.00  0.00    +0.235 C 
ATOM      8  O   UNL     1       2.319   1.082   0.370  0.00  0.00    -0.274 OA
ATOM      9  O   UNL     1       1.377  -0.929   4.338  0.00  0.00    -0.257 OA
ATOM     10  N   UNL     1       0.089  -0.865   3.646  0.00  0.00    -0.244 N 
ENDROOT
BRANCH   1  17
ATOM     11  C   UNL     1      -0.668   1.418   0.103  0.00  0.00    +0.044 C 
ATOM     12  C   UNL     1      -0.309  -0.045   0.046  0.00  0.00    -0.045 A 
ATOM     13  C   UNL     1      -0.409  -0.736  -1.147  0.00  0.00    +0.004 A 
ATOM     14  C   UNL     1      -0.080  -2.077  -1.199  0.00  0.00    +0.000 A 
ATOM     15  C   UNL     1       0.351  -2.728  -0.058  0.00  0.00    +0.000 A 
ATOM     16  C   UNL     1       0.452  -2.037   1.135  0.00  0.00    +0.006 A 
ATOM     17  C   UNL     1       0.127  -0.694   1.186  0.00  0.00    -0.019 A 
ENDBRANCH   1  17
BRANCH   6  18
ATOM     18  C   UNL     1       5.007   0.442   1.280  0.00  0.00    +0.044 A 
ATOM     19  C   UNL     1       5.022   1.111   0.063  0.00  0.00    +0.024 A 
ATOM     20  C   UNL     1       6.215   1.298  -0.606  0.00  0.00    +0.002 A 
ATOM     21  C   UNL     1       7.395   0.820  -0.065  0.00  0.00    +0.000 A 
ATOM     22  C   UNL     1       7.383   0.154   1.147  0.00  0.00    +0.002 A 
ATOM     23  C   UNL     1       6.194  -0.031   1.823  0.00  0.00    +0.024 A 
ENDBRANCH   6  18
BRANCH  10  24
ATOM     24  C   UNL     1      -1.078  -1.540   4.008  0.00  0.00    +0.065 A 
ATOM     25  C   UNL     1      -2.236  -1.382   3.258  0.00  0.00    +0.028 A 
ATOM     26  C   UNL     1      -3.389  -2.051   3.619  0.00  0.00    +0.002 A 
ATOM     27  C   UNL     1      -3.391  -2.878   4.727  0.00  0.00    +0.000 A 
ATOM     28  C   UNL     1      -2.240  -3.038   5.477  0.00  0.00    +0.002 A 
ATOM     29  C   UNL     1      -1.083  -2.377   5.118  0.00  0.00    +0.028 A 
ENDBRANCH  10  24
TORSDOF 3
