REMARK  Name = ZINC51171570
REMARK  4 active torsions:
REMARK  status: ('A' for Active; 'I' for Inactive)
REMARK    1  A    between atoms: C_1  and  N_2
REMARK    2  A    between atoms: N_2  and  C_3
REMARK    3  A    between atoms: C_3  and  C_5
REMARK    4  A    between atoms: C_3  and  C_11
REMARK                            x       y       z     vdW  Elec       q    Type
REMARK                         _______ _______ _______ _____ _____    ______ ____
ROOT
ATOM      1  C   UNL     1       2.137  -0.060  -1.158  0.00  0.00    -0.035 A 
ATOM      2  C   UNL     1       2.747   0.172   0.062  0.00  0.00    +0.053 A 
ATOM      3  C   UNL     1       4.076   0.555   0.103  0.00  0.00    +0.162 A 
ATOM      4  C   UNL     1       4.793   0.707  -1.075  0.00  0.00    +0.163 A 
ATOM      5  C   UNL     1       4.181   0.475  -2.295  0.00  0.00    +0.069 A 
ATOM      6  C   UNL     1       2.852   0.086  -2.333  0.00  0.00    +0.047 A 
ATOM      7 CL   UNL     1       2.081  -0.214  -3.859  0.00  0.00    -0.083 Cl
ATOM      8  O   UNL     1       6.104   1.085  -1.024  0.00  0.00    -0.488 OA
ATOM      9  C   UNL     1       6.352   2.419  -0.577  0.00  0.00    +0.232 C 
ATOM     10  C   UNL     1       6.391   2.481   0.942  0.00  0.00    +0.082 C 
ATOM     11  C   UNL     1       5.047   2.143   1.569  0.00  0.00    +0.232 C 
ATOM     12  O   UNL     1       4.690   0.785   1.300  0.00  0.00    -0.488 OA
ENDROOT
BRANCH   1  13
ATOM     13  C   UNL     1       0.690  -0.478  -1.207  0.00  0.00    -0.002 C 
BRANCH  13  14
ATOM     14  C   UNL     1       0.603  -1.981  -1.277  0.00  0.00    -0.019 A 
ATOM     15  C   UNL     1       0.398  -2.773  -2.357  0.00  0.00    +0.011 A 
ATOM     16  C   UNL     1       0.356  -4.145  -2.184  0.00  0.00    +0.028 A 
ATOM     17  C   UNL     1       0.520  -4.655  -0.938  0.00  0.00    +0.078 A 
ATOM     18  S   UNL     1       0.752  -3.178   0.038  0.00  0.00    -0.083 S 
ATOM     19 CL   UNL     1       0.514  -6.314  -0.426  0.00  0.00    -0.076 Cl
ENDBRANCH  13  14
BRANCH  13  21
ATOM     20  C   UNL     1      -0.018   1.465   0.010  0.00  0.00    -0.099 C 
ATOM     21  N   UNL     1       0.002  -0.004   0.002  0.00  0.00    +0.385 N 
ATOM     22  H   UNL     1       0.490  -0.338   0.820  0.00  0.00    -0.085 HD
ATOM     23  H   UNL     1      -0.945  -0.353   0.009  0.00  0.00    -0.085 HD
ENDBRANCH  13  21
ENDBRANCH   1  13
TORSDOF 3
