REMARK  Name = ZINC05527057
REMARK  6 active torsions:
REMARK  status: ('A' for Active; 'I' for Inactive)
REMARK    1  A    between atoms: C_1  and  O_2
REMARK    2  A    between atoms: O_2  and  C_3
REMARK    3  A    between atoms: C_6  and  C_9
REMARK    4  A    between atoms: C_9  and  C_11
REMARK    5  A    between atoms: C_9  and  N_48
REMARK    6  A    between atoms: C_20  and  O_21
REMARK                            x       y       z     vdW  Elec       q    Type
REMARK                         _______ _______ _______ _____ _____    ______ ____
ROOT
ATOM      1  C   UNL     1      -1.685   5.931   0.089  0.00  0.00    -0.003 C 
ENDROOT
BRANCH   1   2
ATOM      2  C   UNL     1      -0.348   5.238   0.148  0.00  0.00    -0.008 A 
ATOM      3  C   UNL     1      -0.274   3.869   0.454  0.00  0.00    -0.013 A 
ATOM      4  C   UNL     1      -1.433   3.116   0.709  0.00  0.00    +0.009 A 
ATOM      5  C   UNL     1      -1.325   1.790   0.996  0.00  0.00    +0.001 A 
ATOM      6  C   UNL     1      -0.080   1.168   1.052  0.00  0.00    +0.001 A 
ATOM      7  C   UNL     1       1.064   1.865   0.810  0.00  0.00    +0.008 A 
ATOM      8  C   UNL     1       0.992   3.235   0.505  0.00  0.00    -0.017 A 
ATOM      9  C   UNL     1       2.152   3.986   0.249  0.00  0.00    +0.012 A 
ATOM     10  C   UNL     1       2.047   5.310  -0.044  0.00  0.00    +0.046 A 
ATOM     11  C   UNL     1       0.799   5.938  -0.095  0.00  0.00    +0.119 A 
BRANCH  11  12
ATOM     12  O   UNL     1       0.727   7.263  -0.391  0.00  0.00    -0.507 OA
ATOM     13  H   UNL     1       0.736   7.455  -1.338  0.00  0.00    +0.292 HD
ENDBRANCH  11  12
ENDBRANCH   1   2
BRANCH   1  17
ATOM     14  C   UNL     1      -2.803   6.525  -3.993  0.00  0.00    +0.120 A 
ATOM     15  C   UNL     1      -3.235   5.396  -3.312  0.00  0.00    +0.046 A 
ATOM     16  C   UNL     1      -2.872   5.207  -1.992  0.00  0.00    +0.006 A 
ATOM     17  C   UNL     1      -2.079   6.140  -1.351  0.00  0.00    -0.056 A 
ATOM     18  C   UNL     1      -1.652   7.269  -2.026  0.00  0.00    +0.006 A 
ATOM     19  C   UNL     1      -2.007   7.460  -3.347  0.00  0.00    +0.046 A 
BRANCH  14  21
ATOM     20  C   UNL     1      -2.678   7.899  -5.929  0.00  0.00    +0.277 C 
ATOM     21  O   UNL     1      -3.159   6.715  -5.291  0.00  0.00    -0.495 OA
ENDBRANCH  14  21
ENDBRANCH   1  17
BRANCH   1  26
ATOM     22  C   UNL     1      -2.902   7.935   0.746  0.00  0.00    -0.078 C 
ATOM     23  C   UNL     1      -2.770   8.960   1.900  0.00  0.00    -0.020 C 
ATOM     24  C   UNL     1      -1.974   8.177   2.969  0.00  0.00    -0.020 C 
ATOM     25  C   UNL     1      -1.248   7.062   2.194  0.00  0.00    -0.078 C 
ATOM     26  N   UNL     1      -1.600   7.249   0.785  0.00  0.00    +0.387 N 
ATOM     27  H   UNL     1      -0.889   7.829   0.324  0.00  0.00    -0.080 HD
ENDBRANCH   1  26
TORSDOF 5
