REMARK  Name = ZINC21259908
REMARK  13 active torsions:
REMARK  status: ('A' for Active; 'I' for Inactive)
REMARK    1  A    between atoms: C_1  and  C_2
REMARK    2  A    between atoms: C_2  and  O_3
REMARK    3  A    between atoms: O_3  and  C_4
REMARK    4  A    between atoms: C_7  and  N_10
REMARK    5  A    between atoms: C_11  and  C_29
REMARK    6  A    between atoms: C_14  and  S_15
REMARK    7  A    between atoms: S_15  and  C_16
REMARK    8  A    between atoms: C_16  and  C_17
REMARK    9  A    between atoms: C_18  and  C_24
REMARK   10  A    between atoms: C_24  and  O_26
REMARK   11  A    between atoms: O_26  and  C_27
REMARK   12  A    between atoms: C_27  and  C_28
REMARK   13  A    between atoms: C_33  and  C_35
REMARK                            x       y       z     vdW  Elec       q    Type
REMARK                         _______ _______ _______ _____ _____    ______ ____
ROOT
ATOM      1  N   UNL     1      -3.409   1.341  -0.289  0.00  0.00    -0.270 N 
ATOM      2  C   UNL     1      -2.223   0.759   0.102  0.00  0.00    +0.169 A 
ATOM      3  N   UNL     1      -2.495  -0.479   0.443  0.00  0.00    -0.128 NA
ATOM      4  N   UNL     1      -3.750  -0.711   0.291  0.00  0.00    -0.122 NA
ATOM      5  C   UNL     1      -4.358   0.365  -0.158  0.00  0.00    +0.197 A 
ENDROOT
BRANCH   2   6
ATOM      6  C   UNL     1      -0.895   1.408   0.136  0.00  0.00    +0.020 A 
ATOM      7  C   UNL     1       0.145   0.839   0.874  0.00  0.00    +0.011 A 
ATOM      8  C   UNL     1       1.379   1.453   0.906  0.00  0.00    +0.001 A 
ATOM      9  C   UNL     1       1.590   2.627   0.206  0.00  0.00    +0.003 A 
ATOM     10  C   UNL     1       0.566   3.194  -0.532  0.00  0.00    -0.050 A 
ATOM     11  C   UNL     1      -0.674   2.590  -0.573  0.00  0.00    +0.015 A 
ATOM     12  C   UNL     1       0.805   4.473  -1.291  0.00  0.00    +0.044 C 
ENDBRANCH   2   6
BRANCH   1  16
ATOM     13  C   UNL     1      -3.984   5.257  -1.606  0.00  0.00    +0.121 A 
ATOM     14  C   UNL     1      -4.139   4.199  -2.490  0.00  0.00    +0.047 A 
ATOM     15  C   UNL     1      -3.948   2.902  -2.054  0.00  0.00    +0.030 A 
ATOM     16  C   UNL     1      -3.602   2.658  -0.732  0.00  0.00    +0.051 A 
ATOM     17  C   UNL     1      -3.453   3.717   0.153  0.00  0.00    +0.030 A 
ATOM     18  C   UNL     1      -3.638   5.014  -0.285  0.00  0.00    +0.047 A 
BRANCH  13  19
ATOM     19  O   UNL     1      -4.172   6.533  -2.036  0.00  0.00    -0.492 OA
BRANCH  19  21
ATOM     20  C   UNL     1      -4.247   8.930  -1.735  0.00  0.00    +0.048 C 
ATOM     21  C   UNL     1      -3.996   7.574  -1.072  0.00  0.00    +0.225 C 
ENDBRANCH  19  21
ENDBRANCH  13  19
ENDBRANCH   1  16
BRANCH   5  22
ATOM     22  S   UNL     1      -6.076   0.523  -0.516  0.00  0.00    -0.080 S 
BRANCH  22  23
ATOM     23  C   UNL     1      -6.639  -1.145  -0.092  0.00  0.00    +0.128 C 
BRANCH  23  24
ATOM     24  C   UNL     1      -8.125  -1.248  -0.326  0.00  0.00    +0.034 C 
ATOM     25  C   UNL     1      -8.582  -1.911  -1.410  0.00  0.00    +0.071 C 
ATOM     26  C   UNL     1     -10.082  -1.990  -1.608  0.00  0.00    +0.150 C 
ATOM     27  N   UNL     1     -10.924  -1.333  -0.594  0.00  0.00    -0.295 N 
ATOM     28  C   UNL     1     -10.319  -0.708   0.435  0.00  0.00    +0.304 C 
ATOM     29  O   UNL     1     -11.005  -0.163   1.278  0.00  0.00    -0.253 OA
ATOM     30  N   UNL     1      -8.986  -0.673   0.564  0.00  0.00    -0.272 N 
ATOM     31  H   UNL     1     -12.020  -1.359  -0.688  0.00  0.00    +0.151 HD
ATOM     32  H   UNL     1      -8.595  -0.146   1.446  0.00  0.00    +0.156 HD
BRANCH  25  33
ATOM     33  C   UNL     1      -7.690  -2.511  -2.330  0.00  0.00    +0.338 C 
ATOM     34  O   UNL     1      -7.391  -1.929  -3.356  0.00  0.00    -0.245 OA
BRANCH  33  35
ATOM     35  O   UNL     1      -7.171  -3.729  -2.070  0.00  0.00    -0.462 OA
BRANCH  35  36
ATOM     36  C   UNL     1      -6.278  -4.275  -3.042  0.00  0.00    +0.229 C 
ATOM     37  C   UNL     1      -5.796  -5.651  -2.577  0.00  0.00    +0.048 C 
ENDBRANCH  35  36
ENDBRANCH  33  35
ENDBRANCH  25  33
ENDBRANCH  23  24
ENDBRANCH  22  23
ENDBRANCH   5  22
TORSDOF 10
