REMARK  Name = ZINC66610634
REMARK  7 active torsions:
REMARK  status: ('A' for Active; 'I' for Inactive)
REMARK    1  A    between atoms: C_6  and  C_7
REMARK    2  A    between atoms: C_7  and  N_8
REMARK    3  A    between atoms: N_11  and  C_12
REMARK    4  A    between atoms: C_12  and  C_13
REMARK    5  A    between atoms: N_15  and  C_16
REMARK    6  A    between atoms: C_16  and  C_17
REMARK    7  A    between atoms: C_17  and  C_18
REMARK                            x       y       z     vdW  Elec       q    Type
REMARK                         _______ _______ _______ _____ _____    ______ ____
ROOT
ATOM      1  C   UNL     1      -4.722  -2.764  -4.621  0.00  0.00    +0.230 C 
ATOM      2  O   UNL     1      -3.919  -2.277  -5.389  0.00  0.00    -0.274 OA
ATOM      3  N   UNL     1      -5.807  -3.405  -5.098  0.00  0.00    -0.314 N 
ATOM      4  H   UNL     1      -6.450  -3.794  -4.484  0.00  0.00    +0.149 HD
ENDROOT
BRANCH   1   5
ATOM      5  C   UNL     1      -4.506  -2.652  -3.134  0.00  0.00    +0.201 C 
BRANCH   5   9
ATOM      6  N   UNL     1      -1.726  -1.017  -1.368  0.00  0.00    -0.295 N 
ATOM      7  C   UNL     1      -2.867  -1.694  -1.606  0.00  0.00    +0.300 C 
ATOM      8  O   UNL     1      -3.537  -2.103  -0.678  0.00  0.00    -0.253 OA
ATOM      9  N   UNL     1      -3.266  -1.917  -2.874  0.00  0.00    -0.291 N 
ATOM     10  H   UNL     1      -1.192  -0.691  -2.108  0.00  0.00    +0.151 HD
ATOM     11  H   UNL     1      -2.731  -1.590  -3.615  0.00  0.00    +0.151 HD
BRANCH   6  12
ATOM     12  C   UNL     1      -1.293  -0.775   0.011  0.00  0.00    +0.141 C 
BRANCH  12  18
ATOM     13  C   UNL     1      -0.017   1.378   0.010  0.00  0.00    +0.006 A 
ATOM     14  C   UNL     1       1.171   2.086   0.002  0.00  0.00    +0.020 A 
ATOM     15  C   UNL     1       2.378   1.410  -0.013  0.00  0.00    +0.041 A 
ATOM     16  C   UNL     1       2.396   0.027  -0.021  0.00  0.00    +0.020 A 
ATOM     17  C   UNL     1       1.208  -0.679  -0.013  0.00  0.00    +0.006 A 
ATOM     18  C   UNL     1       0.002  -0.004   0.002  0.00  0.00    -0.030 A 
ATOM     19 CL   UNL     1       3.870   2.298  -0.023  0.00  0.00    -0.084 Cl
ENDBRANCH  12  18
ENDBRANCH   6  12
ENDBRANCH   5   9
ENDBRANCH   1   5
BRANCH   3  20
ATOM     20  C   UNL     1      -6.017  -3.514  -6.544  0.00  0.00    +0.110 C 
BRANCH  20  21
ATOM     21  C   UNL     1      -7.313  -4.282  -6.815  0.00  0.00    +0.073 C 
BRANCH  21  22
ATOM     22  C   UNL     1      -7.529  -4.393  -8.302  0.00  0.00    +0.035 A 
ATOM     23  C   UNL     1      -8.113  -3.467  -9.089  0.00  0.00    +0.108 A 
ATOM     24  N   UNL     1      -8.103  -3.969 -10.357  0.00  0.00    -0.336 N 
ATOM     25  C   UNL     1      -7.514  -5.187 -10.306  0.00  0.00    +0.087 A 
ATOM     26  N   UNL     1      -7.168  -5.430  -9.075  0.00  0.00    -0.347 N 
ATOM     27  C   UNL     1      -7.310  -6.077 -11.509  0.00  0.00    +0.072 C 
ATOM     28  C   UNL     1      -8.208  -5.565 -12.642  0.00  0.00    +0.009 C 
ATOM     29  C   UNL     1      -8.020  -4.053 -12.791  0.00  0.00    +0.022 C 
ATOM     30  C   UNL     1      -8.620  -3.340 -11.574  0.00  0.00    +0.123 C 
ATOM     31  H   UNL     1      -6.723  -6.234  -8.765  0.00  0.00    +0.167 HD
ENDBRANCH  21  22
ENDBRANCH  20  21
ENDBRANCH   3  20
TORSDOF 7
