REMARK  Name = ZINC09493616
REMARK  11 active torsions:
REMARK  status: ('A' for Active; 'I' for Inactive)
REMARK    1  A    between atoms: C_1  and  N_2
REMARK    2  A    between atoms: N_2  and  C_3
REMARK    3  A    between atoms: C_6  and  S_12
REMARK    4  A    between atoms: C_8  and  N_9
REMARK    5  A    between atoms: S_12  and  N_15
REMARK    6  A    between atoms: N_15  and  C_16
REMARK    7  A    between atoms: C_16  and  C_17
REMARK    8  A    between atoms: C_17  and  O_19
REMARK    9  A    between atoms: O_19  and  C_20
REMARK   10  A    between atoms: C_20  and  C_21
REMARK   11  A    between atoms: N_23  and  C_24
REMARK                            x       y       z     vdW  Elec       q    Type
REMARK                         _______ _______ _______ _____ _____    ______ ____
ROOT
ATOM      1  N   UNL     1      -4.160  11.123  -0.524  0.00  0.00    -0.179 NA
ATOM      2  H   UNL     1      -3.331  11.585  -0.326  0.00  0.00    +0.149 HD
ENDROOT
BRANCH   1   3
ATOM      3  S   UNL     1      -5.486  11.979  -1.026  0.00  0.00    +0.059 S 
ATOM      4  O   UNL     1      -5.104  13.348  -1.039  0.00  0.00    -0.153 OA
ATOM      5  O   UNL     1      -5.985  11.316  -2.179  0.00  0.00    -0.153 OA
BRANCH   3   9
ATOM      6  C   UNL     1      -8.651  11.550   2.186  0.00  0.00    +0.058 A 
ATOM      7  C   UNL     1      -8.589  10.635   1.142  0.00  0.00    +0.027 A 
ATOM      8  C   UNL     1      -7.627  10.772   0.161  0.00  0.00    +0.030 A 
ATOM      9  C   UNL     1      -6.717  11.812   0.224  0.00  0.00    +0.108 A 
ATOM     10  C   UNL     1      -6.775  12.724   1.261  0.00  0.00    +0.063 A 
ATOM     11  C   UNL     1      -7.739  12.597   2.242  0.00  0.00    +0.149 A 
BRANCH   6  13
ATOM     12  C   UNL     1     -10.670  10.398   3.045  0.00  0.00    +0.125 C 
ATOM     13  N   UNL     1      -9.626  11.418   3.176  0.00  0.00    -0.345 N 
ATOM     14  H   UNL     1      -9.613  12.001   3.951  0.00  0.00    +0.146 HD
ENDBRANCH   6  13
BRANCH  11  15
ATOM     15  N   UNL     1      -7.800  13.573   3.353  0.00  0.00    +0.058 N 
ATOM     16  O   UNL     1      -7.073  14.550   3.345  0.00  0.00    -0.126 OA
ATOM     17  O   UNL     1      -8.578  13.400   4.274  0.00  0.00    -0.126 OA
ENDBRANCH  11  15
ENDBRANCH   3   9
ENDBRANCH   1   3
BRANCH   1  18
ATOM     18  C   UNL     1      -4.240   9.667  -0.380  0.00  0.00    +0.226 C 
BRANCH  18  19
ATOM     19  C   UNL     1      -2.849   9.095  -0.278  0.00  0.00    +0.323 C 
ATOM     20  O   UNL     1      -1.890   9.829  -0.322  0.00  0.00    -0.249 OA
BRANCH  19  21
ATOM     21  O   UNL     1      -2.676   7.772  -0.139  0.00  0.00    -0.454 OA
BRANCH  21  22
ATOM     22  C   UNL     1      -1.309   7.292  -0.048  0.00  0.00    +0.328 C 
BRANCH  22  23
ATOM     23  C   UNL     1      -1.312   5.792   0.103  0.00  0.00    +0.255 C 
ATOM     24  O   UNL     1      -2.363   5.188   0.131  0.00  0.00    -0.272 OA
ATOM     25  N   UNL     1      -0.147   5.123   0.208  0.00  0.00    -0.283 N 
ATOM     26  H   UNL     1       0.690   5.611   0.262  0.00  0.00    +0.155 HD
BRANCH  25  27
ATOM     27  C   UNL     1      -0.144   3.724   0.238  0.00  0.00    +0.036 A 
ATOM     28  C   UNL     1      -1.096   3.011  -0.478  0.00  0.00    +0.043 A 
ATOM     29  C   UNL     1      -1.091   1.629  -0.445  0.00  0.00    +0.044 A 
ATOM     30  C   UNL     1      -0.139   0.956   0.300  0.00  0.00    +0.040 A 
ATOM     31  C   UNL     1       0.808   1.665   1.020  0.00  0.00    +0.044 A 
ATOM     32  C   UNL     1       0.811   3.047   0.986  0.00  0.00    +0.043 A 
ATOM     33 CL   UNL     1       1.996   0.818   1.960  0.00  0.00    -0.083 Cl
ATOM     34 CL   UNL     1      -2.280   0.736  -1.341  0.00  0.00    -0.083 Cl
ENDBRANCH  25  27
ENDBRANCH  22  23
ENDBRANCH  21  22
ENDBRANCH  19  21
ENDBRANCH  18  19
ENDBRANCH   1  18
TORSDOF 10
