REMARK  Name = ZINC16627479
REMARK  5 active torsions:
REMARK  status: ('A' for Active; 'I' for Inactive)
REMARK    1  A    between atoms: C_1  and  C_2
REMARK    2  A    between atoms: C_7  and  C_11
REMARK    3  A    between atoms: C_11  and  O_12
REMARK    4  A    between atoms: O_12  and  C_13
REMARK    5  A    between atoms: C_13  and  C_15
REMARK                            x       y       z     vdW  Elec       q    Type
REMARK                         _______ _______ _______ _____ _____    ______ ____
ROOT
ATOM      1  C   UNL     1       3.706  -0.635  -0.051  0.00  0.00    +0.340 C 
ATOM      2  O   UNL     1       3.737  -1.850  -0.061  0.00  0.00    -0.245 OA
ENDROOT
BRANCH   1   3
ATOM      3  C   UNL     1       2.412   0.069  -0.028  0.00  0.00    +0.061 A 
ATOM      4  C   UNL     1       2.378   1.467  -0.016  0.00  0.00    +0.016 A 
ATOM      5  C   UNL     1       1.167   2.122   0.002  0.00  0.00    +0.017 A 
ATOM      6  C   UNL     1      -0.017   1.395   0.010  0.00  0.00    +0.030 A 
ATOM      7  C   UNL     1       0.002  -0.004   0.002  0.00  0.00    +0.048 A 
ATOM      8  C   UNL     1       1.221  -0.662  -0.019  0.00  0.00    +0.039 A 
ATOM      9  N   UNL     1      -1.175  -0.748   0.021  0.00  0.00    -0.284 N 
ATOM     10  C   UNL     1      -2.379  -0.325  -0.355  0.00  0.00    +0.227 C 
ATOM     11  O   UNL     1      -3.307  -1.104  -0.289  0.00  0.00    -0.275 OA
ATOM     12  C   UNL     1      -2.654   1.066  -0.857  0.00  0.00    +0.170 C 
ATOM     13  S   UNL     1      -1.572   2.231   0.022  0.00  0.00    -0.114 S 
ATOM     14  H   UNL     1      -1.111  -1.663   0.337  0.00  0.00    +0.155 HD
ENDBRANCH   1   3
BRANCH   1  15
ATOM     15  O   UNL     1       4.856   0.068  -0.059  0.00  0.00    -0.455 OA
BRANCH  15  16
ATOM     16  C   UNL     1       6.093  -0.691  -0.081  0.00  0.00    +0.289 C 
BRANCH  16  23
ATOM     17  C   UNL     1      10.864   4.953  -0.099  0.00  0.00    +0.045 C 
ATOM     18  C   UNL     1      10.316   3.549  -0.103  0.00  0.00    -0.034 A 
ATOM     19  C   UNL     1      11.197   2.455  -0.123  0.00  0.00    +0.008 A 
ATOM     20  C   UNL     1      10.699   1.189  -0.127  0.00  0.00    +0.047 A 
ATOM     21  C   UNL     1       9.303   0.997  -0.109  0.00  0.00    +0.138 A 
ATOM     22  N   UNL     1       8.552  -0.096  -0.108  0.00  0.00    -0.229 NA
ATOM     23  C   UNL     1       7.265   0.257  -0.088  0.00  0.00    +0.097 A 
ATOM     24  C   UNL     1       7.187   1.606  -0.081  0.00  0.00    +0.119 A 
ATOM     25  N   UNL     1       8.469   2.085  -0.089  0.00  0.00    -0.306 N 
ATOM     26  C   UNL     1       8.982   3.349  -0.086  0.00  0.00    +0.096 A 
ENDBRANCH  16  23
ENDBRANCH  15  16
ENDBRANCH   1  15
TORSDOF 4
