REMARK  Name = ZINC08439323
REMARK  9 active torsions:
REMARK  status: ('A' for Active; 'I' for Inactive)
REMARK    1  A    between atoms: C_1  and  C_2
REMARK    2  A    between atoms: C_5  and  S_8
REMARK    3  A    between atoms: S_8  and  N_11
REMARK    4  A    between atoms: N_11  and  C_12
REMARK    5  A    between atoms: C_14  and  S_23
REMARK    6  A    between atoms: C_15  and  O_22
REMARK    7  A    between atoms: S_23  and  C_24
REMARK    8  A    between atoms: C_27  and  C_31
REMARK    9  A    between atoms: C_29  and  C_30
REMARK                            x       y       z     vdW  Elec       q    Type
REMARK                         _______ _______ _______ _____ _____    ______ ____
ROOT
ATOM      1  C   UNL     1      -0.292   5.110   0.045  0.00  0.00    +0.057 A 
ATOM      2  C   UNL     1       0.863   5.829   0.254  0.00  0.00    +0.043 A 
ATOM      3  C   UNL     1       2.115   5.221   0.125  0.00  0.00    +0.057 A 
ATOM      4  C   UNL     1       2.220   3.885  -0.215  0.00  0.00    +0.138 A 
ATOM      5  C   UNL     1       1.055   3.128  -0.434  0.00  0.00    +0.026 A 
ATOM      6  C   UNL     1      -0.215   3.745  -0.303  0.00  0.00    +0.008 A 
ATOM      7  C   UNL     1      -1.375   2.986  -0.522  0.00  0.00    +0.010 A 
ATOM      8  C   UNL     1      -1.267   1.672  -0.863  0.00  0.00    +0.001 A 
ATOM      9  C   UNL     1      -0.019   1.063  -0.986  0.00  0.00    +0.001 A 
ATOM     10  C   UNL     1       1.127   1.768  -0.781  0.00  0.00    +0.012 A 
ENDROOT
BRANCH   1  11
ATOM     11  N   UNL     1      -1.537   5.731   0.177  0.00  0.00    -0.216 N 
ATOM     12  H   UNL     1      -2.289   5.236   0.539  0.00  0.00    +0.174 HD
BRANCH  11  13
ATOM     13  S   UNL     1      -1.728   7.309  -0.284  0.00  0.00    +0.072 S 
ATOM     14  O   UNL     1      -3.111   7.608  -0.146  0.00  0.00    -0.150 OA
ATOM     15  O   UNL     1      -0.718   8.053   0.383  0.00  0.00    -0.150 OA
BRANCH  13  20
ATOM     16  C   UNL     1      -0.480   7.609  -6.180  0.00  0.00    +0.044 C 
ATOM     17  C   UNL     1      -0.792   7.535  -4.707  0.00  0.00    -0.050 A 
ATOM     18  C   UNL     1      -2.085   7.285  -4.286  0.00  0.00    +0.005 A 
ATOM     19  C   UNL     1      -2.371   7.217  -2.936  0.00  0.00    +0.029 A 
ATOM     20  C   UNL     1      -1.364   7.397  -2.006  0.00  0.00    +0.109 A 
ATOM     21  C   UNL     1      -0.072   7.650  -2.427  0.00  0.00    +0.029 A 
ATOM     22  C   UNL     1       0.215   7.715  -3.778  0.00  0.00    +0.005 A 
ENDBRANCH  13  20
ENDBRANCH  11  13
ENDBRANCH   1  11
BRANCH   4  23
ATOM     23  O   UNL     1       3.445   3.305  -0.338  0.00  0.00    -0.505 OA
ATOM     24  H   UNL     1       3.817   3.356  -1.229  0.00  0.00    +0.292 HD
ENDBRANCH   4  23
BRANCH   3  25
ATOM     25  S   UNL     1       3.576   6.168   0.399  0.00  0.00    -0.085 S 
BRANCH  25  26
ATOM     26  C   UNL     1       4.110   5.673   2.004  0.00  0.00    +0.016 A 
ATOM     27  C   UNL     1       3.418   4.684   2.694  0.00  0.00    +0.015 A 
ATOM     28  C   UNL     1       3.839   4.298   3.951  0.00  0.00    +0.004 A 
ATOM     29  C   UNL     1       4.948   4.895   4.523  0.00  0.00    -0.050 A 
ATOM     30  C   UNL     1       5.639   5.878   3.840  0.00  0.00    +0.007 A 
ATOM     31  C   UNL     1       5.227   6.265   2.580  0.00  0.00    -0.036 A 
ATOM     32  C   UNL     1       5.984   7.333   1.833  0.00  0.00    +0.045 C 
ATOM     33  C   UNL     1       5.405   4.471   5.896  0.00  0.00    +0.044 C 
ENDBRANCH  25  26
ENDBRANCH   3  25
TORSDOF 6
