REMARK  Name = ZINC14743978
REMARK  8 active torsions:
REMARK  status: ('A' for Active; 'I' for Inactive)
REMARK    1  A    between atoms: C_1  and  N_2
REMARK    2  A    between atoms: N_2  and  C_3
REMARK    3  A    between atoms: C_4  and  C_6
REMARK    4  A    between atoms: N_9  and  C_11
REMARK    5  A    between atoms: C_11  and  C_12
REMARK    6  A    between atoms: C_20  and  N_23
REMARK    7  A    between atoms: N_23  and  C_24
REMARK    8  A    between atoms: C_33  and  O_36
REMARK                            x       y       z     vdW  Elec       q    Type
REMARK                         _______ _______ _______ _____ _____    ______ ____
ROOT
ATOM      1  C   UNL     1       0.020  -2.149  -1.177  0.00  0.00    +0.151 A 
ATOM      2  C   UNL     1       0.026  -2.982  -2.308  0.00  0.00    +0.004 A 
ATOM      3  C   UNL     1       0.044  -4.252  -1.835  0.00  0.00    +0.043 A 
ATOM      4  N   UNL     1       0.051  -4.177  -0.494  0.00  0.00    -0.267 N 
ATOM      5  N   UNL     1       0.041  -2.944  -0.121  0.00  0.00    -0.166 NA
ATOM      6  C   UNL     1       0.051  -5.476  -2.715  0.00  0.00    +0.054 C 
ATOM      7  C   UNL     1      -0.379  -5.058  -4.127  0.00  0.00    -0.009 C 
ATOM      8  C   UNL     1       0.440  -3.845  -4.577  0.00  0.00    -0.067 C 
ATOM      9  C   UNL     1       0.018  -2.613  -3.766  0.00  0.00    +0.023 C 
ENDROOT
BRANCH   1  13
ATOM     10  C   UNL     1      -0.018   1.461   0.010  0.00  0.00    +0.132 C 
ATOM     11  N   UNL     1       0.002  -0.004   0.002  0.00  0.00    -0.302 N 
ATOM     12  C   UNL     1       0.024  -0.743   1.267  0.00  0.00    +0.132 C 
ATOM     13  C   UNL     1       0.000  -0.672  -1.169  0.00  0.00    +0.267 C 
ATOM     14  O   UNL     1      -0.018  -0.058  -2.218  0.00  0.00    -0.268 OA
ENDBRANCH   1  13
BRANCH   8  15
ATOM     15  N   UNL     1       0.202  -3.597  -6.005  0.00  0.00    +0.383 N 
ATOM     16  H   UNL     1      -0.789  -3.496  -6.168  0.00  0.00    -0.085 HD
ATOM     17  H   UNL     1       0.676  -2.751  -6.283  0.00  0.00    -0.085 HD
BRANCH  15  18
ATOM     18  C   UNL     1       0.716  -4.726  -6.791  0.00  0.00    -0.065 C 
ATOM     19  C   UNL     1       2.236  -4.802  -6.642  0.00  0.00    -0.022 C 
ATOM     20  C   UNL     1       2.864  -3.501  -7.147  0.00  0.00    +0.005 C 
ATOM     21  C   UNL     1       2.506  -3.302  -8.621  0.00  0.00    -0.008 C 
ATOM     22  C   UNL     1       0.985  -3.226  -8.771  0.00  0.00    +0.005 C 
ATOM     23  C   UNL     1       0.357  -4.527  -8.265  0.00  0.00    -0.022 C 
ATOM     24  C   UNL     1       0.893  -5.703  -9.084  0.00  0.00    +0.036 C 
ATOM     25  C   UNL     1       2.413  -5.779  -8.934  0.00  0.00    +0.067 C 
ATOM     26  C   UNL     1       2.772  -5.979  -7.460  0.00  0.00    +0.036 C 
ATOM     27  C   UNL     1       3.041  -4.478  -9.440  0.00  0.00    +0.038 C 
BRANCH  25  28
ATOM     28  O   UNL     1       2.913  -6.878  -9.699  0.00  0.00    -0.389 OA
ATOM     29  H   UNL     1       3.873  -6.986  -9.651  0.00  0.00    +0.210 HD
ENDBRANCH  25  28
ENDBRANCH  15  18
ENDBRANCH   8  15
BRANCH   4  30
ATOM     30  C   UNL     1       0.071  -5.329   0.411  0.00  0.00    +0.147 C 
BRANCH  30  31
ATOM     31  C   UNL     1       1.520  -5.710   0.718  0.00  0.00    +0.010 C 
ATOM     32  C   UNL     1       2.204  -6.191  -0.563  0.00  0.00    +0.005 C 
ATOM     33  C   UNL     1       3.653  -6.573  -0.256  0.00  0.00    +0.000 C 
ATOM     34  C   UNL     1       3.675  -7.694   0.785  0.00  0.00    +0.000 C 
ATOM     35  C   UNL     1       2.992  -7.213   2.067  0.00  0.00    +0.000 C 
ATOM     36  C   UNL     1       1.543  -6.831   1.760  0.00  0.00    +0.005 C 
ENDBRANCH  30  31
ENDBRANCH   4  30
TORSDOF 6
