REMARK  Name = ZINC46645350
REMARK  7 active torsions:
REMARK  status: ('A' for Active; 'I' for Inactive)
REMARK    1  A    between atoms: C_1  and  O_2
REMARK    2  A    between atoms: O_2  and  C_3
REMARK    3  A    between atoms: C_6  and  C_9
REMARK    4  A    between atoms: C_9  and  C_10
REMARK    5  A    between atoms: C_10  and  C_11
REMARK    6  A    between atoms: N_13  and  C_14
REMARK    7  A    between atoms: C_14  and  C_15
REMARK                            x       y       z     vdW  Elec       q    Type
REMARK                         _______ _______ _______ _____ _____    ______ ____
ROOT
ATOM      1  C   UNL     1       8.101  -4.554  -6.013  0.00  0.00    +0.019 C 
ATOM      2  C   UNL     1       8.783  -3.199  -5.847  0.00  0.00    +0.018 C 
ATOM      3  C   UNL     1       9.928  -3.017  -6.867  0.00  0.00    +0.050 C 
ATOM      4  C   UNL     1       9.293  -3.240  -8.230  0.00  0.00    -0.036 A 
ATOM      5  C   UNL     1       9.303  -2.334  -9.253  0.00  0.00    +0.004 A 
ATOM      6  C   UNL     1       8.682  -2.669 -10.449  0.00  0.00    +0.000 A 
ATOM      7  C   UNL     1       8.066  -3.897 -10.599  0.00  0.00    +0.000 A 
ATOM      8  C   UNL     1       8.060  -4.814  -9.555  0.00  0.00    +0.004 A 
ATOM      9  C   UNL     1       8.671  -4.478  -8.381  0.00  0.00    -0.036 A 
ATOM     10  C   UNL     1       8.745  -5.371  -7.154  0.00  0.00    +0.054 C 
ATOM     11  C   UNL     1      10.225  -5.448  -6.809  0.00  0.00    -0.036 A 
ATOM     12  C   UNL     1      10.846  -4.212  -6.658  0.00  0.00    -0.036 A 
ATOM     13  C   UNL     1      12.174  -4.130  -6.348  0.00  0.00    +0.004 A 
ATOM     14  C   UNL     1      12.896  -5.306  -6.184  0.00  0.00    +0.000 A 
ATOM     15  C   UNL     1      12.279  -6.534  -6.333  0.00  0.00    +0.000 A 
ATOM     16  C   UNL     1      10.928  -6.607  -6.650  0.00  0.00    +0.004 A 
ENDROOT
BRANCH   1  17
ATOM     17  C   UNL     1       6.620  -4.335  -6.328  0.00  0.00    +0.108 C 
BRANCH  17  20
ATOM     18  C   UNL     1       4.655  -3.391  -5.239  0.00  0.00    +0.213 C 
ATOM     19  O   UNL     1       4.011  -3.666  -6.230  0.00  0.00    -0.276 OA
ATOM     20  N   UNL     1       5.970  -3.685  -5.188  0.00  0.00    -0.315 N 
ATOM     21  H   UNL     1       6.485  -3.466  -4.395  0.00  0.00    +0.149 HD
BRANCH  18  22
ATOM     22  C   UNL     1       3.986  -2.723  -4.066  0.00  0.00    +0.100 C 
BRANCH  22  23
ATOM     23  C   UNL     1       2.505  -2.503  -4.381  0.00  0.00    +0.044 C 
BRANCH  23  27
ATOM     24  C   UNL     1       0.606  -0.607  -1.056  0.00  0.00    +0.120 A 
ATOM     25  C   UNL     1       1.173   0.161  -2.062  0.00  0.00    +0.046 A 
ATOM     26  C   UNL     1       1.786  -0.455  -3.136  0.00  0.00    +0.007 A 
ATOM     27  C   UNL     1       1.835  -1.835  -3.209  0.00  0.00    -0.047 A 
ATOM     28  C   UNL     1       1.270  -2.602  -2.207  0.00  0.00    +0.007 A 
ATOM     29  C   UNL     1       0.661  -1.992  -1.128  0.00  0.00    +0.046 A 
BRANCH  24  31
ATOM     30  C   UNL     1      -0.017   1.425   0.010  0.00  0.00    +0.277 C 
ATOM     31  O   UNL     1       0.002  -0.004   0.002  0.00  0.00    -0.495 OA
ENDBRANCH  24  31
ENDBRANCH  23  27
ENDBRANCH  22  23
ENDBRANCH  18  22
ENDBRANCH  17  20
ENDBRANCH   1  17
TORSDOF 6
