REMARK  Name = ZINC39533459
REMARK  10 active torsions:
REMARK  status: ('A' for Active; 'I' for Inactive)
REMARK    1  A    between atoms: C_1  and  C_2
REMARK    2  A    between atoms: C_2  and  C_3
REMARK    3  A    between atoms: C_2  and  C_4
REMARK    4  A    between atoms: C_4  and  C_5
REMARK    5  A    between atoms: C_8  and  C_11
REMARK    6  A    between atoms: C_11  and  C_13
REMARK    7  A    between atoms: C_11  and  N_22
REMARK    8  A    between atoms: C_13  and  N_14
REMARK    9  A    between atoms: N_14  and  C_15
REMARK   10  A    between atoms: C_20  and  O_21
REMARK                            x       y       z     vdW  Elec       q    Type
REMARK                         _______ _______ _______ _____ _____    ______ ____
ROOT
ATOM      1  C   UNL     1       6.267   1.105  -1.070  0.00  0.00    +0.104 C 
ENDROOT
BRANCH   1   2
ATOM      2  N   UNL     1       6.812   0.831   0.266  0.00  0.00    -0.290 NA
ATOM      3  C   UNL     1       6.807  -0.611   0.551  0.00  0.00    +0.100 C 
ATOM      4  C   UNL     1       7.453  -0.861   1.916  0.00  0.00    +0.097 C 
ATOM      5  N   UNL     1       6.715  -0.120   2.948  0.00  0.00    -0.299 NA
ATOM      6  C   UNL     1       6.720   1.322   2.663  0.00  0.00    +0.161 C 
ATOM      7  C   UNL     1       6.073   1.572   1.298  0.00  0.00    +0.120 C 
ATOM      8 CL   UNL     1       5.788   2.191   3.939  0.00  0.00    -0.104 Cl
ATOM      9  H   UNL     1       5.772  -0.468   3.037  0.00  0.00    +0.123 HD
ENDBRANCH   1   2
BRANCH   1  13
ATOM     10  C   UNL     1       2.290  -0.431  -1.331  0.00  0.00    -0.047 A 
ATOM     11  C   UNL     1       2.502   0.934  -1.291  0.00  0.00    +0.004 A 
ATOM     12  C   UNL     1       3.789   1.432  -1.207  0.00  0.00    +0.005 A 
ATOM     13  C   UNL     1       4.864   0.563  -1.162  0.00  0.00    -0.029 A 
ATOM     14  C   UNL     1       4.651  -0.802  -1.201  0.00  0.00    +0.005 A 
ATOM     15  C   UNL     1       3.364  -1.299  -1.281  0.00  0.00    +0.004 A 
BRANCH  10  16
ATOM     16  C   UNL     1       0.887  -0.973  -1.424  0.00  0.00    +0.038 C 
BRANCH  16  18
ATOM     17  C   UNL     1       0.191   0.175   0.684  0.00  0.00    +0.007 C 
ATOM     18  C   UNL     1       0.326  -1.179  -0.015  0.00  0.00    -0.013 C 
ATOM     19  C   UNL     1      -1.049  -1.845  -0.106  0.00  0.00    +0.007 C 
ENDBRANCH  16  18
ENDBRANCH  10  16
ENDBRANCH   1  13
BRANCH   1  20
ATOM     20  C   UNL     1       7.144   0.431  -2.127  0.00  0.00    +0.125 C 
BRANCH  20  21
ATOM     21  N   UNL     1       8.532   0.869  -1.961  0.00  0.00    -0.339 N 
ATOM     22  H   UNL     1       8.763   1.495  -1.257  0.00  0.00    +0.146 HD
BRANCH  21  23
ATOM     23  C   UNL     1       9.526   0.383  -2.818  0.00  0.00    +0.069 A 
ATOM     24  C   UNL     1       9.198  -0.508  -3.829  0.00  0.00    +0.026 A 
ATOM     25  C   UNL     1      10.181  -0.986  -4.675  0.00  0.00    +0.002 A 
ATOM     26  C   UNL     1      11.493  -0.578  -4.516  0.00  0.00    +0.004 A 
ATOM     27  C   UNL     1      11.828   0.310  -3.510  0.00  0.00    +0.047 A 
ATOM     28  C   UNL     1      10.847   0.798  -2.662  0.00  0.00    +0.138 A 
BRANCH  28  29
ATOM     29  O   UNL     1      11.174   1.675  -1.676  0.00  0.00    -0.505 OA
ATOM     30  H   UNL     1      11.415   1.255  -0.839  0.00  0.00    +0.292 HD
ENDBRANCH  28  29
ENDBRANCH  21  23
ENDBRANCH  20  21
ENDBRANCH   1  20
TORSDOF 8
