REMARK  Name = ZINC46706057
REMARK  5 active torsions:
REMARK  status: ('A' for Active; 'I' for Inactive)
REMARK    1  A    between atoms: C_1  and  C_2
REMARK    2  A    between atoms: C_9  and  C_11
REMARK    3  A    between atoms: C_11  and  C_13
REMARK    4  A    between atoms: C_13  and  C_15
REMARK    5  A    between atoms: C_13  and  C_17
REMARK                            x       y       z     vdW  Elec       q    Type
REMARK                         _______ _______ _______ _____ _____    ______ ____
ROOT
ATOM      1  C   UNL     1       1.902  -5.218   2.726  0.00  0.00    +0.192 C 
ATOM      2  O   UNL     1       2.847  -4.952   3.441  0.00  0.00    -0.290 OA
ENDROOT
BRANCH   1  10
ATOM      3  C   UNL     1      -0.019   1.526   0.010  0.00  0.00    +0.008 C 
ATOM      4  C   UNL     1       0.002  -0.004   0.002  0.00  0.00    -0.009 C 
ATOM      5  C   UNL     1      -1.435  -0.532   0.009  0.00  0.00    +0.009 C 
ATOM      6  C   UNL     1      -1.408  -2.041  -0.274  0.00  0.00    +0.043 C 
ATOM      7  C   UNL     1      -0.377  -2.672   0.615  0.00  0.00    -0.006 A 
ATOM      8  C   UNL     1       0.605  -2.027   1.312  0.00  0.00    -0.036 A 
ATOM      9  C   UNL     1       1.448  -2.817   2.075  0.00  0.00    +0.023 A 
ATOM     10  C   UNL     1       1.212  -4.184   2.055  0.00  0.00    +0.057 A 
ATOM     11  S   UNL     1      -0.190  -4.295   0.959  0.00  0.00    -0.090 S 
ATOM     12  C   UNL     1       0.745  -0.509   1.239  0.00  0.00    +0.039 C 
ENDBRANCH   1  10
BRANCH   1  13
ATOM     13  C   UNL     1       1.466  -6.650   2.555  0.00  0.00    +0.211 C 
BRANCH  13  14
ATOM     14  C   UNL     1       1.782  -7.424   3.808  0.00  0.00    +0.066 A 
ATOM     15  C   UNL     1       3.045  -7.960   3.981  0.00  0.00    +0.025 A 
ATOM     16  C   UNL     1       3.325  -8.670   5.138  0.00  0.00    +0.003 A 
ATOM     17  C   UNL     1       2.320  -8.817   6.082  0.00  0.00    +0.020 A 
ATOM     18  C   UNL     1       1.082  -8.254   5.840  0.00  0.00    +0.111 A 
ATOM     19  N   UNL     1       0.852  -7.579   4.730  0.00  0.00    -0.258 NA
ENDBRANCH  13  14
BRANCH  13  20
ATOM     20  C   UNL     1       2.181  -7.248   1.415  0.00  0.00    +0.080 C 
ATOM     21  N   UNL     1       2.733  -7.709   0.536  0.00  0.00    -0.195 NA
ENDBRANCH  13  20
ENDBRANCH   1  13
TORSDOF 4
