REMARK  Name = ZINC35253592
REMARK  8 active torsions:
REMARK  status: ('A' for Active; 'I' for Inactive)
REMARK    1  A    between atoms: C_1  and  C_2
REMARK    2  A    between atoms: C_2  and  O_3
REMARK    3  A    between atoms: O_3  and  C_4
REMARK    4  A    between atoms: C_7  and  C_11
REMARK    5  A    between atoms: C_11  and  N_12
REMARK    6  A    between atoms: N_12  and  C_13
REMARK    7  A    between atoms: C_13  and  C_15
REMARK    8  A    between atoms: C_13  and  C_16
REMARK                            x       y       z     vdW  Elec       q    Type
REMARK                         _______ _______ _______ _____ _____    ______ ____
ROOT
ATOM      1  C   UNL     1      -2.000  -6.093  -0.012  0.00  0.00    -0.046 C 
ENDROOT
BRANCH   1   5
ATOM      2  C   UNL     1      -1.498  -1.849   0.006  0.00  0.00    +0.148 A 
ATOM      3  C   UNL     1      -1.586  -2.533  -1.198  0.00  0.00    +0.061 A 
ATOM      4  C   UNL     1      -1.748  -3.906  -1.200  0.00  0.00    +0.020 A 
ATOM      5  C   UNL     1      -1.823  -4.597  -0.005  0.00  0.00    -0.062 A 
ATOM      6  C   UNL     1      -1.737  -3.917   1.196  0.00  0.00    +0.020 A 
ATOM      7  C   UNL     1      -1.569  -2.545   1.204  0.00  0.00    +0.061 A 
ATOM      8 BR   UNL     1      -1.443  -1.618   2.848  0.00  0.00    -0.046 Br
ATOM      9 BR   UNL     1      -1.484  -1.589  -2.833  0.00  0.00    -0.046 Br
BRANCH   2  10
ATOM     10  O   UNL     1      -1.339  -0.499   0.012  0.00  0.00    -0.490 OA
BRANCH  10  12
ATOM     11  C   UNL     1      -0.019   1.526   0.010  0.00  0.00    +0.048 C 
ATOM     12  C   UNL     1       0.002  -0.004   0.002  0.00  0.00    +0.226 C 
ENDBRANCH  10  12
ENDBRANCH   2  10
ENDBRANCH   1   5
BRANCH   1  13
ATOM     13  N   UNL     1      -0.683  -6.743  -0.021  0.00  0.00    +0.386 N 
ATOM     14  H   UNL     1      -0.175  -6.460  -0.846  0.00  0.00    -0.085 HD
ATOM     15  H   UNL     1      -0.167  -6.468   0.802  0.00  0.00    -0.085 HD
BRANCH  13  16
ATOM     16  C   UNL     1      -0.855  -8.201  -0.027  0.00  0.00    -0.037 C 
ATOM     17  C   UNL     1      -1.514  -8.643   1.281  0.00  0.00    -0.008 C 
BRANCH  16  18
ATOM     18  C   UNL     1       0.491  -8.866  -0.161  0.00  0.00    -0.023 A 
ATOM     19  C   UNL     1       0.837  -9.953  -0.893  0.00  0.00    +0.011 A 
ATOM     20  C   UNL     1       2.148 -10.391  -0.864  0.00  0.00    +0.028 A 
ATOM     21  C   UNL     1       3.048  -9.720  -0.103  0.00  0.00    +0.078 A 
ATOM     22  S   UNL     1       2.044  -8.421   0.599  0.00  0.00    -0.083 S 
ATOM     23 CL   UNL     1       4.740 -10.038   0.125  0.00  0.00    -0.076 Cl
ENDBRANCH  16  18
ENDBRANCH  13  16
ENDBRANCH   1  13
TORSDOF 6
