REMARK  Name = ZINC13596764
REMARK  4 active torsions:
REMARK  status: ('A' for Active; 'I' for Inactive)
REMARK    1  A    between atoms: C_1  and  C_2
REMARK    2  A    between atoms: C_3  and  C_26
REMARK    3  A    between atoms: N_5  and  C_20
REMARK    4  A    between atoms: N_11  and  C_14
REMARK                            x       y       z     vdW  Elec       q    Type
REMARK                         _______ _______ _______ _____ _____    ______ ____
ROOT
ATOM      1  C   UNL     1       1.585  -1.598   0.384  0.00  0.00    +0.027 C 
ATOM      2  C   UNL     1       1.083  -0.238   0.872  0.00  0.00    +0.109 C 
ATOM      3  C   UNL     1       0.008   0.374  -0.056  0.00  0.00    +0.160 C 
ATOM      4  N   UNL     1       0.293   1.832   0.018  0.00  0.00    -0.243 N 
ATOM      5  O   UNL     1       1.767   1.905   0.062  0.00  0.00    -0.257 OA
ATOM      6  C   UNL     1       2.198   0.839   0.926  0.00  0.00    +0.252 C 
ATOM      7  C   UNL     1       2.162   1.309   2.363  0.00  0.00    +0.259 C 
ATOM      8  O   UNL     1       2.876   2.164   2.839  0.00  0.00    -0.272 OA
ATOM      9  N   UNL     1       1.218   0.632   3.027  0.00  0.00    -0.208 N 
ATOM     10  C   UNL     1       0.545  -0.281   2.285  0.00  0.00    +0.238 C 
ATOM     11  O   UNL     1      -0.340  -1.011   2.676  0.00  0.00    -0.274 OA
ENDROOT
BRANCH   9  12
ATOM     12  C   UNL     1       0.947   0.843   4.387  0.00  0.00    +0.044 A 
ATOM     13  C   UNL     1       1.220  -0.154   5.313  0.00  0.00    +0.024 A 
ATOM     14  C   UNL     1       0.958   0.059   6.653  0.00  0.00    +0.002 A 
ATOM     15  C   UNL     1       0.413   1.260   7.069  0.00  0.00    +0.000 A 
ATOM     16  C   UNL     1       0.136   2.253   6.148  0.00  0.00    +0.002 A 
ATOM     17  C   UNL     1       0.401   2.048   4.808  0.00  0.00    +0.024 A 
ENDBRANCH   9  12
BRANCH   4  18
ATOM     18  C   UNL     1      -0.207   2.497  -1.104  0.00  0.00    +0.065 A 
ATOM     19  C   UNL     1      -1.566   2.454  -1.391  0.00  0.00    +0.028 A 
ATOM     20  C   UNL     1      -2.058   3.116  -2.498  0.00  0.00    +0.002 A 
ATOM     21  C   UNL     1      -1.198   3.813  -3.328  0.00  0.00    +0.000 A 
ATOM     22  C   UNL     1       0.156   3.854  -3.048  0.00  0.00    +0.002 A 
ATOM     23  C   UNL     1       0.653   3.198  -1.940  0.00  0.00    +0.028 A 
ENDBRANCH   4  18
BRANCH   3  24
ATOM     24  C   UNL     1      -1.375   0.075   0.462  0.00  0.00    -0.022 A 
ATOM     25  C   UNL     1      -1.865   0.756   1.561  0.00  0.00    +0.006 A 
ATOM     26  C   UNL     1      -3.135   0.485   2.032  0.00  0.00    +0.000 A 
ATOM     27  C   UNL     1      -3.913  -0.475   1.412  0.00  0.00    +0.000 A 
ATOM     28  C   UNL     1      -3.422  -1.160   0.316  0.00  0.00    +0.000 A 
ATOM     29  C   UNL     1      -2.153  -0.885  -0.159  0.00  0.00    +0.006 A 
ENDBRANCH   3  24
TORSDOF 3
