REMARK  Name = ZINC35541879
REMARK  5 active torsions:
REMARK  status: ('A' for Active; 'I' for Inactive)
REMARK    1  A    between atoms: C_1  and  C_2
REMARK    2  A    between atoms: C_2  and  N_3
REMARK    3  A    between atoms: N_3  and  C_4
REMARK    4  A    between atoms: C_4  and  C_6
REMARK    5  A    between atoms: C_4  and  C_13
REMARK                            x       y       z     vdW  Elec       q    Type
REMARK                         _______ _______ _______ _____ _____    ______ ____
ROOT
ATOM      1  C   UNL     1       0.710  -1.947  -1.215  0.00  0.00    -0.008 C 
ENDROOT
BRANCH   1   2
ATOM      2  C   UNL     1       1.474  -2.356  -2.447  0.00  0.00    -0.042 A 
ATOM      3  C   UNL     1       1.735  -1.428  -3.438  0.00  0.00    +0.018 A 
ATOM      4  C   UNL     1       2.437  -1.804  -4.570  0.00  0.00    +0.018 A 
ATOM      5  C   UNL     1       2.876  -3.108  -4.710  0.00  0.00    +0.016 A 
ATOM      6  C   UNL     1       2.616  -4.035  -3.719  0.00  0.00    +0.016 A 
ATOM      7  C   UNL     1       1.919  -3.658  -2.585  0.00  0.00    +0.020 A 
ATOM      8 BR   UNL     1       1.568  -4.925  -1.226  0.00  0.00    -0.050 Br
ATOM      9 BR   UNL     1       2.793  -0.535  -5.925  0.00  0.00    -0.050 Br
ENDBRANCH   1   2
BRANCH   1  10
ATOM     10  C   UNL     1      -0.759  -2.210  -1.424  0.00  0.00    -0.043 A 
ATOM     11  C   UNL     1      -1.437  -1.573  -2.446  0.00  0.00    +0.003 A 
ATOM     12  C   UNL     1      -2.784  -1.814  -2.639  0.00  0.00    +0.000 A 
ATOM     13  C   UNL     1      -3.455  -2.693  -1.809  0.00  0.00    +0.001 A 
ATOM     14  C   UNL     1      -2.778  -3.331  -0.786  0.00  0.00    +0.015 A 
ATOM     15  C   UNL     1      -1.429  -3.094  -0.597  0.00  0.00    +0.020 A 
ATOM     16 BR   UNL     1      -0.500  -3.971   0.798  0.00  0.00    -0.050 Br
ENDBRANCH   1  10
BRANCH   1  17
ATOM     17  N   UNL     1       0.919  -0.515  -0.961  0.00  0.00    +0.386 N 
ATOM     18  H   UNL     1       0.518   0.022  -1.715  0.00  0.00    -0.085 HD
ATOM     19  H   UNL     1       1.909  -0.325  -0.903  0.00  0.00    -0.085 HD
BRANCH  17  21
ATOM     20  C   UNL     1       0.492   1.349   0.568  0.00  0.00    -0.017 C 
ATOM     21  C   UNL     1       0.274  -0.142   0.304  0.00  0.00    -0.085 C 
ENDBRANCH  17  21
ENDBRANCH   1  17
TORSDOF 4
