REMARK  Name = ZINC09151048
REMARK  6 active torsions:
REMARK  status: ('A' for Active; 'I' for Inactive)
REMARK    1  A    between atoms: C_1  and  C_2
REMARK    2  A    between atoms: C_2  and  N_3
REMARK    3  A    between atoms: N_12  and  C_13
REMARK    4  A    between atoms: C_13  and  C_15
REMARK    5  A    between atoms: C_18  and  S_21
REMARK    6  A    between atoms: S_21  and  C_24
REMARK                            x       y       z     vdW  Elec       q    Type
REMARK                         _______ _______ _______ _____ _____    ______ ____
ROOT
ATOM      1  N   UNL     1       2.297  -2.287  -8.588  0.00  0.00    -0.321 N 
ATOM      2  C   UNL     1       3.079  -2.665  -9.665  0.00  0.00    +0.058 A 
ATOM      3  C   UNL     1       2.681  -2.899 -10.990  0.00  0.00    +0.028 A 
ATOM      4  C   UNL     1       3.598  -3.271 -11.944  0.00  0.00    +0.017 A 
ATOM      5  C   UNL     1       4.938  -3.428 -11.630  0.00  0.00    +0.019 A 
ATOM      6  C   UNL     1       5.358  -3.204 -10.330  0.00  0.00    +0.032 A 
ATOM      7  C   UNL     1       4.441  -2.831  -9.376  0.00  0.00    +0.040 A 
ATOM      8  S   UNL     1       4.541  -2.446  -7.646  0.00  0.00    -0.052 S 
ATOM      9  C   UNL     1       2.864  -2.104  -7.365  0.00  0.00    +0.167 A 
ATOM     10  N   UNL     1       2.275  -1.744  -6.230  0.00  0.00    -0.152 NA
ATOM     11 BR   UNL     1       6.179  -3.941 -12.961  0.00  0.00    -0.050 Br
ENDROOT
BRANCH   1  13
ATOM     12  C   UNL     1       0.116  -2.567  -7.519  0.00  0.00    +0.027 C 
ATOM     13  C   UNL     1       0.858  -2.082  -8.766  0.00  0.00    +0.121 C 
ENDBRANCH   1  13
BRANCH  10  14
ATOM     14  C   UNL     1       2.998  -1.613  -5.114  0.00  0.00    +0.269 C 
ATOM     15  O   UNL     1       4.199  -1.823  -5.138  0.00  0.00    -0.268 OA
BRANCH  14  16
ATOM     16  C   UNL     1       2.342  -1.212  -3.848  0.00  0.00    +0.039 A 
ATOM     17  C   UNL     1       3.094  -1.075  -2.682  0.00  0.00    +0.015 A 
ATOM     18  C   UNL     1       2.477  -0.701  -1.506  0.00  0.00    +0.027 A 
ATOM     19  C   UNL     1       1.114  -0.465  -1.482  0.00  0.00    +0.088 A 
ATOM     20  C   UNL     1       0.361  -0.605  -2.634  0.00  0.00    +0.027 A 
ATOM     21  C   UNL     1       0.968  -0.972  -3.817  0.00  0.00    +0.015 A 
BRANCH  19  22
ATOM     22  S   UNL     1       0.333   0.011   0.024  0.00  0.00    -0.006 S 
ATOM     23  O   UNL     1       1.161  -0.523   1.048  0.00  0.00    -0.170 OA
ATOM     24  O   UNL     1      -1.015  -0.418  -0.115  0.00  0.00    -0.170 OA
ATOM     25  C   UNL     1       0.412   1.823   0.039  0.00  0.00    +0.200 C 
ENDBRANCH  19  22
ENDBRANCH  14  16
ENDBRANCH  10  14
TORSDOF 4
