REMARK  Name = ZINC34791911
REMARK  11 active torsions:
REMARK  status: ('A' for Active; 'I' for Inactive)
REMARK    1  A    between atoms: C_1  and  C_2
REMARK    2  A    between atoms: C_2  and  C_3
REMARK    3  A    between atoms: C_2  and  C_4
REMARK    4  A    between atoms: C_2  and  N_5
REMARK    5  A    between atoms: C_6  and  C_8
REMARK    6  A    between atoms: C_8  and  C_10
REMARK    7  A    between atoms: C_8  and  N_17
REMARK    8  A    between atoms: C_10  and  C_11
REMARK    9  A    between atoms: C_23  and  C_32
REMARK   10  A    between atoms: N_28  and  C_29
REMARK   11  A    between atoms: C_29  and  C_30
REMARK                            x       y       z     vdW  Elec       q    Type
REMARK                         _______ _______ _______ _____ _____    ______ ____
ROOT
ATOM      1  N   UNL     1       4.051  -0.111  -2.677  0.00  0.00    -0.280 N 
ATOM      2  C   UNL     1       4.653   0.756  -3.701  0.00  0.00    +0.160 C 
ATOM      3  C   UNL     1       6.074   0.980  -3.234  0.00  0.00    +0.043 C 
ATOM      4  C   UNL     1       6.206   0.296  -2.079  0.00  0.00    +0.058 C 
ATOM      5  C   UNL     1       4.996  -0.348  -1.749  0.00  0.00    +0.247 C 
ATOM      6  O   UNL     1       4.829  -1.031  -0.756  0.00  0.00    -0.270 OA
ATOM      7  C   UNL     1       7.551   0.345  -1.382  0.00  0.00    +0.142 C 
ATOM      8  N   UNL     1       8.609   1.139  -2.028  0.00  0.00    -0.288 N 
ATOM      9  C   UNL     1       8.323   1.768  -3.185  0.00  0.00    +0.307 C 
ATOM     10  O   UNL     1       9.191   2.426  -3.726  0.00  0.00    -0.252 OA
ATOM     11  N   UNL     1       7.115   1.691  -3.759  0.00  0.00    -0.253 N 
ATOM     12  H   UNL     1       9.491   1.209  -1.630  0.00  0.00    +0.151 HD
ENDROOT
BRANCH   7  13
ATOM     13  C   UNL     1       8.053  -1.069  -1.242  0.00  0.00    -0.022 A 
ATOM     14  C   UNL     1       8.655  -1.698  -2.315  0.00  0.00    +0.007 A 
ATOM     15  C   UNL     1       9.116  -2.995  -2.187  0.00  0.00    +0.020 A 
ATOM     16  C   UNL     1       8.973  -3.664  -0.984  0.00  0.00    +0.041 A 
ATOM     17  C   UNL     1       8.370  -3.034   0.090  0.00  0.00    +0.020 A 
ATOM     18  C   UNL     1       7.915  -1.735  -0.038  0.00  0.00    +0.007 A 
ATOM     19 CL   UNL     1       9.551  -5.293  -0.823  0.00  0.00    -0.084 Cl
ENDBRANCH   7  13
BRANCH   1  20
ATOM     20  C   UNL     1       2.677  -0.618  -2.667  0.00  0.00    +0.167 C 
BRANCH  20  22
ATOM     21  N   UNL     1       0.688  -0.476  -1.203  0.00  0.00    -0.309 N 
ATOM     22  C   UNL     1       1.972  -0.132  -1.427  0.00  0.00    +0.234 C 
ATOM     23  O   UNL     1       2.559   0.569  -0.630  0.00  0.00    -0.274 OA
ATOM     24  H   UNL     1       0.218  -1.037  -1.840  0.00  0.00    +0.149 HD
BRANCH  21  26
ATOM     25  C   UNL     1      -0.019   1.526   0.010  0.00  0.00    +0.031 C 
ATOM     26  C   UNL     1       0.002  -0.004   0.002  0.00  0.00    +0.026 C 
ATOM     27  C   UNL     1       0.742  -0.511   1.242  0.00  0.00    +0.031 C 
ATOM     28  C   UNL     1      -1.433  -0.534   0.013  0.00  0.00    +0.031 C 
ENDBRANCH  21  26
ENDBRANCH  20  22
BRANCH  20  29
ATOM     29  C   UNL     1       2.698  -2.148  -2.675  0.00  0.00    +0.067 C 
BRANCH  29  30
ATOM     30  C   UNL     1       3.292  -2.635  -3.971  0.00  0.00    -0.045 A 
ATOM     31  C   UNL     1       2.476  -2.865  -5.063  0.00  0.00    +0.004 A 
ATOM     32  C   UNL     1       3.022  -3.312  -6.252  0.00  0.00    +0.000 A 
ATOM     33  C   UNL     1       4.384  -3.529  -6.349  0.00  0.00    +0.000 A 
ATOM     34  C   UNL     1       5.200  -3.298  -5.258  0.00  0.00    +0.000 A 
ATOM     35  C   UNL     1       4.655  -2.847  -4.070  0.00  0.00    +0.004 A 
ENDBRANCH  29  30
ENDBRANCH  20  29
ENDBRANCH   1  20
BRANCH  11  36
ATOM     36  C   UNL     1       6.899   2.409  -5.018  0.00  0.00    +0.141 C 
BRANCH  36  37
ATOM     37  C   UNL     1       6.407   3.802  -4.723  0.00  0.00    -0.015 C 
ATOM     38  C   UNL     1       7.044   4.838  -5.210  0.00  0.00    +0.005 C 
ENDBRANCH  36  37
ENDBRANCH  11  36
TORSDOF 8
