REMARK  Name = ZINC33812676
REMARK  12 active torsions:
REMARK  status: ('A' for Active; 'I' for Inactive)
REMARK    1  A    between atoms: C_1  and  C_2
REMARK    2  A    between atoms: C_2  and  C_3
REMARK    3  A    between atoms: C_3  and  C_4
REMARK    4  A    between atoms: C_4  and  N_5
REMARK    5  A    between atoms: C_6  and  N_29
REMARK    6  A    between atoms: C_7  and  C_15
REMARK    7  A    between atoms: C_8  and  C_14
REMARK    8  A    between atoms: C_9  and  C_12
REMARK    9  A    between atoms: N_19  and  C_23
REMARK   10  A    between atoms: C_23  and  C_24
REMARK   11  A    between atoms: N_32  and  C_35
REMARK   12  A    between atoms: C_35  and  C_36
REMARK                            x       y       z     vdW  Elec       q    Type
REMARK                         _______ _______ _______ _____ _____    ______ ____
ROOT
ATOM      1  N   UNL     1       1.294  -2.594   2.948  0.00  0.00    -0.295 N 
ATOM      2  C   UNL     1       2.622  -2.744   2.711  0.00  0.00    +0.112 A 
ATOM      3  C   UNL     1       3.419  -3.513   3.576  0.00  0.00    +0.019 A 
ATOM      4  C   UNL     1       2.830  -4.128   4.693  0.00  0.00    -0.017 A 
ATOM      5  C   UNL     1       1.466  -3.959   4.914  0.00  0.00    +0.120 A 
ATOM      6  C   UNL     1       0.708  -3.169   4.014  0.00  0.00    +0.270 A 
ATOM      7  O   UNL     1      -0.486  -3.013   4.204  0.00  0.00    -0.266 OA
ATOM      8  C   UNL     1       3.662  -4.959   5.637  0.00  0.00    +0.046 C 
ENDROOT
BRANCH   3   9
ATOM      9  C   UNL     1       4.851  -3.671   3.315  0.00  0.00    +0.032 C 
ATOM     10  C   UNL     1       5.762  -3.141   4.175  0.00  0.00    +0.077 C 
ATOM     11  C   UNL     1       5.556  -2.314   5.321  0.00  0.00    +0.259 C 
ATOM     12  O   UNL     1       4.435  -1.979   5.659  0.00  0.00    -0.269 OA
ATOM     13  N   UNL     1       6.618  -1.923   6.003  0.00  0.00    -0.248 N 
ATOM     14  C   UNL     1       7.862  -2.296   5.628  0.00  0.00    +0.121 C 
ATOM     15  S   UNL     1       9.363  -1.910   6.356  0.00  0.00    -0.027 S 
ATOM     16  S   UNL     1       7.543  -3.297   4.184  0.00  0.00    -0.061 S 
BRANCH  13  17
ATOM     17  C   UNL     1       6.445  -1.074   7.184  0.00  0.00    +0.189 C 
BRANCH  17  18
ATOM     18  C   UNL     1       6.286  -1.940   8.407  0.00  0.00    +0.122 A 
ATOM     19  C   UNL     1       7.283  -2.375   9.198  0.00  0.00    +0.046 A 
ATOM     20  C   UNL     1       6.687  -3.151  10.219  0.00  0.00    +0.041 A 
ATOM     21  C   UNL     1       5.361  -3.143   9.991  0.00  0.00    +0.195 A 
ATOM     22  O   UNL     1       5.124  -2.404   8.895  0.00  0.00    -0.466 OA
ENDBRANCH  17  18
ENDBRANCH  13  17
ENDBRANCH   3   9
BRANCH   2  23
ATOM     23  N   UNL     1       3.188  -2.143   1.625  0.00  0.00    -0.320 N 
ATOM     24  C   UNL     1       3.837  -0.829   1.740  0.00  0.00    +0.088 C 
ATOM     25  C   UNL     1       5.229  -0.917   1.105  0.00  0.00    -0.060 C 
ATOM     26  N   UNL     1       5.108  -1.415  -0.271  0.00  0.00    +0.382 N 
ATOM     27  C   UNL     1       4.590  -2.789  -0.262  0.00  0.00    -0.060 C 
ATOM     28  C   UNL     1       3.171  -2.795   0.306  0.00  0.00    +0.088 C 
ATOM     29  H   UNL     1       4.476  -0.822  -0.787  0.00  0.00    -0.082 HD
BRANCH  26  30
ATOM     30  C   UNL     1       6.428  -1.395  -0.915  0.00  0.00    -0.082 C 
ATOM     31  C   UNL     1       6.285  -1.795  -2.385  0.00  0.00    -0.017 C 
ENDBRANCH  26  30
ENDBRANCH   2  23
BRANCH   5  32
ATOM     32  C   UNL     1       0.836  -4.574   6.043  0.00  0.00    +0.105 C 
ATOM     33  N   UNL     1       0.336  -5.061   6.939  0.00  0.00    -0.191 NA
ENDBRANCH   5  32
BRANCH   1  34
ATOM     34  C   UNL     1       0.486  -1.787   2.030  0.00  0.00    +0.126 C 
BRANCH  34  35
ATOM     35  C   UNL     1       0.379  -0.358   2.566  0.00  0.00    +0.021 C 
BRANCH  35  37
ATOM     36  C   UNL     1      -0.572   1.913   2.143  0.00  0.00    +0.004 C 
ATOM     37  C   UNL     1      -0.465   0.484   1.607  0.00  0.00    -0.002 C 
ENDBRANCH  35  37
ENDBRANCH  34  35
ENDBRANCH   1  34
TORSDOF 9
