REMARK  Name = ZINC12924583
REMARK  6 active torsions:
REMARK  status: ('A' for Active; 'I' for Inactive)
REMARK    1  A    between atoms: C_1  and  C_2
REMARK    2  A    between atoms: C_2  and  N_3
REMARK    3  A    between atoms: C_4  and  C_21
REMARK    4  A    between atoms: N_6  and  C_9
REMARK    5  A    between atoms: C_9  and  N_50
REMARK    6  A    between atoms: C_13  and  C_15
REMARK                            x       y       z     vdW  Elec       q    Type
REMARK                         _______ _______ _______ _____ _____    ______ ____
ROOT
ATOM      1  N   UNL     1      -2.190   2.607  -2.512  0.00  0.00    -0.303 N 
ATOM      2  C   UNL     1      -2.860   1.405  -2.395  0.00  0.00    +0.163 A 
ATOM      3  N   UNL     1      -2.230   0.662  -1.529  0.00  0.00    -0.152 NA
ATOM      4  N   UNL     1      -1.128   1.387  -1.055  0.00  0.00    -0.257 N 
ATOM      5  C   UNL     1      -1.128   2.581  -1.683  0.00  0.00    +0.177 A 
ATOM      6  S   UNL     1       0.015   3.837  -1.465  0.00  0.00    -0.011 S 
ENDROOT
BRANCH   2   7
ATOM      7  C   UNL     1      -4.084   1.022  -3.134  0.00  0.00    +0.019 A 
ATOM      8  C   UNL     1      -4.898  -0.005  -2.656  0.00  0.00    +0.011 A 
ATOM      9  C   UNL     1      -6.040  -0.354  -3.346  0.00  0.00    +0.001 A 
ATOM     10  C   UNL     1      -6.373   0.305  -4.516  0.00  0.00    +0.000 A 
ATOM     11  C   UNL     1      -5.566   1.320  -4.999  0.00  0.00    +0.001 A 
ATOM     12  C   UNL     1      -4.425   1.682  -4.314  0.00  0.00    +0.011 A 
ENDBRANCH   2   7
BRANCH   1  14
ATOM     13  C   UNL     1      -1.851   3.578  -4.731  0.00  0.00    +0.027 C 
ATOM     14  C   UNL     1      -2.569   3.719  -3.387  0.00  0.00    +0.122 C 
ENDBRANCH   1  14
BRANCH   4  15
ATOM     15  C   UNL     1      -0.151   0.929  -0.064  0.00  0.00    +0.072 C 
BRANCH  15  20
ATOM     16  C   UNL     1      -0.407   2.756   1.517  0.00  0.00    -0.075 C 
ATOM     17  C   UNL     1      -0.070   2.869   3.025  0.00  0.00    -0.020 C 
ATOM     18  C   UNL     1       0.793   1.599   3.248  0.00  0.00    -0.012 C 
ATOM     19  C   UNL     1       0.133   0.561   2.317  0.00  0.00    -0.035 C 
ATOM     20  N   UNL     1      -0.616   1.313   1.294  0.00  0.00    +0.397 N 
ATOM     21  H   UNL     1      -1.617   1.098   1.379  0.00  0.00    -0.078 HD
BRANCH  19  22
ATOM     22  C   UNL     1       1.191  -0.298   1.674  0.00  0.00    -0.061 A 
ATOM     23  C   UNL     1       1.125  -1.674   1.783  0.00  0.00    +0.002 A 
ATOM     24  C   UNL     1       2.093  -2.462   1.189  0.00  0.00    +0.000 A 
ATOM     25  C   UNL     1       3.134  -1.873   0.495  0.00  0.00    +0.000 A 
ATOM     26  C   UNL     1       3.203  -0.496   0.391  0.00  0.00    +0.000 A 
ATOM     27  C   UNL     1       2.232   0.291   0.981  0.00  0.00    +0.002 A 
ENDBRANCH  19  22
ENDBRANCH  15  20
ENDBRANCH   4  15
TORSDOF 5
