REMARK  Name = ZINC63761353
REMARK  12 active torsions:
REMARK  status: ('A' for Active; 'I' for Inactive)
REMARK    1  A    between atoms: C_1  and  C_2
REMARK    2  A    between atoms: C_2  and  C_3
REMARK    3  A    between atoms: C_2  and  C_4
REMARK    4  A    between atoms: C_4  and  C_6
REMARK    5  A    between atoms: C_4  and  N_10
REMARK    6  A    between atoms: C_6  and  O_8
REMARK    7  A    between atoms: O_8  and  C_9
REMARK    8  A    between atoms: C_11  and  C_13
REMARK    9  A    between atoms: C_13  and  C_15
REMARK   10  A    between atoms: C_13  and  N_25
REMARK   11  A    between atoms: C_15  and  C_16
REMARK   12  A    between atoms: C_26  and  C_28
REMARK                            x       y       z     vdW  Elec       q    Type
REMARK                         _______ _______ _______ _____ _____    ______ ____
ROOT
ATOM      1  C   UNL     1      -2.809   0.034   3.540  0.00  0.00    +0.163 C 
ENDROOT
BRANCH   1   3
ATOM      2  N   UNL     1      -2.155   0.035   1.154  0.00  0.00    -0.301 N 
ATOM      3  C   UNL     1      -2.067  -0.550   2.366  0.00  0.00    +0.234 C 
ATOM      4  O   UNL     1      -1.391  -1.546   2.511  0.00  0.00    -0.274 OA
ATOM      5  H   UNL     1      -2.696   0.831   1.038  0.00  0.00    +0.150 HD
BRANCH   2   6
ATOM      6  C   UNL     1      -1.433  -0.534   0.013  0.00  0.00    +0.184 C 
BRANCH   6   8
ATOM      7  C   UNL     1      -0.019   1.526   0.010  0.00  0.00    +0.009 C 
ATOM      8  C   UNL     1       0.002  -0.004   0.002  0.00  0.00    +0.014 C 
ATOM      9  C   UNL     1       0.742  -0.511   1.242  0.00  0.00    +0.009 C 
ENDBRANCH   6   8
BRANCH   6  10
ATOM     10  C   UNL     1      -2.125  -0.137  -1.266  0.00  0.00    +0.328 C 
ATOM     11  O   UNL     1      -3.118   0.549  -1.228  0.00  0.00    -0.249 OA
BRANCH  10  12
ATOM     12  O   UNL     1      -1.637  -0.547  -2.448  0.00  0.00    -0.467 OA
ATOM     13  C   UNL     1      -2.343  -0.134  -3.619  0.00  0.00    +0.280 C 
ENDBRANCH  10  12
ENDBRANCH   6  10
ENDBRANCH   2   6
ENDBRANCH   1   3
BRANCH   1  14
ATOM     14  N   UNL     1      -2.553  -0.777   4.732  0.00  0.00    -0.303 N 
ATOM     15  C   UNL     1      -3.298  -1.875   4.973  0.00  0.00    +0.220 C 
ATOM     16  O   UNL     1      -4.180  -2.190   4.202  0.00  0.00    -0.275 OA
ATOM     17  H   UNL     1      -1.848  -0.525   5.348  0.00  0.00    +0.149 HD
BRANCH  15  18
ATOM     18  C   UNL     1      -3.035  -2.709   6.200  0.00  0.00    +0.048 C 
ATOM     19  C   UNL     1      -3.226  -1.851   7.452  0.00  0.00    +0.019 C 
ATOM     20  C   UNL     1      -2.959  -2.699   8.697  0.00  0.00    -0.009 C 
ATOM     21  C   UNL     1      -3.935  -3.876   8.732  0.00  0.00    +0.007 C 
ATOM     22  C   UNL     1      -3.744  -4.734   7.480  0.00  0.00    -0.009 C 
ATOM     23  C   UNL     1      -4.011  -3.887   6.235  0.00  0.00    +0.019 C 
ATOM     24  C   UNL     1      -2.309  -5.263   7.439  0.00  0.00    +0.007 C 
ATOM     25  C   UNL     1      -1.332  -4.086   7.404  0.00  0.00    -0.009 C 
ATOM     26  C   UNL     1      -1.524  -3.227   8.656  0.00  0.00    +0.007 C 
ATOM     27  C   UNL     1      -1.599  -3.238   6.158  0.00  0.00    +0.019 C 
ENDBRANCH  15  18
ENDBRANCH   1  14
BRANCH   1  28
ATOM     28  C   UNL     1      -2.330   1.466   3.785  0.00  0.00    +0.065 C 
BRANCH  28  29
ATOM     29  C   UNL     1      -3.156   2.093   4.878  0.00  0.00    -0.039 C 
ATOM     30  C   UNL     1      -2.850   2.155   6.194  0.00  0.00    -0.001 A 
ATOM     31  C   UNL     1      -1.701   1.676   6.972  0.00  0.00    +0.010 A 
ATOM     32  C   UNL     1      -1.677   1.891   8.307  0.00  0.00    +0.001 A 
ATOM     33  C   UNL     1      -2.720   2.558   8.965  0.00  0.00    +0.002 A 
ATOM     34  C   UNL     1      -3.808   3.027   8.319  0.00  0.00    +0.026 A 
ATOM     35  C   UNL     1      -3.938   2.857   6.913  0.00  0.00    +0.043 A 
ATOM     36  N   UNL     1      -4.879   3.215   6.074  0.00  0.00    -0.380 N 
ATOM     37  C   UNL     1      -4.492   2.785   4.725  0.00  0.00    +0.144 C 
ATOM     38  H   UNL     1      -5.694   3.688   6.305  0.00  0.00    +0.160 HD
ENDBRANCH  28  29
ENDBRANCH   1  28
TORSDOF 9
