REMARK  Name = ZINC65034842
REMARK  4 active torsions:
REMARK  status: ('A' for Active; 'I' for Inactive)
REMARK    1  A    between atoms: C_1  and  C_2
REMARK    2  A    between atoms: N_12  and  C_18
REMARK    3  A    between atoms: C_18  and  C_19
REMARK    4  A    between atoms: N_21  and  C_22
REMARK                            x       y       z     vdW  Elec       q    Type
REMARK                         _______ _______ _______ _____ _____    ______ ____
ROOT
ATOM      1  C   UNL     1      -0.028   1.505   0.011  0.00  0.00    +0.047 C 
ATOM      2  C   UNL     1      -0.015  -0.002   0.001  0.00  0.00    -0.008 A 
ATOM      3  C   UNL     1      -0.021  -0.687  -1.196  0.00  0.00    +0.046 A 
ATOM      4  C   UNL     1      -0.010  -2.076  -1.218  0.00  0.00    +0.021 A 
ATOM      5  C   UNL     1       0.007  -2.788  -0.052  0.00  0.00    +0.015 A 
ATOM      6  C   UNL     1       0.014  -2.114   1.169  0.00  0.00    +0.046 A 
ATOM      7  C   UNL     1       0.008  -0.708   1.200  0.00  0.00    +0.055 A 
ATOM      8  N   UNL     1       0.020  -0.061   2.411  0.00  0.00    -0.357 N 
ATOM      9  C   UNL     1       0.040  -0.731   3.599  0.00  0.00    +0.020 A 
ATOM     10  C   UNL     1       0.036   0.102   4.860  0.00  0.00    +0.035 C 
ATOM     11  C   UNL     1       0.469  -0.750   6.051  0.00  0.00    -0.072 C 
ATOM     12  N   UNL     1      -0.340  -1.979   6.063  0.00  0.00    +0.388 N 
ATOM     13  C   UNL     1       0.090  -2.833   4.953  0.00  0.00    -0.037 C 
ATOM     14  C   UNL     1       0.057  -2.077   3.651  0.00  0.00    +0.002 A 
ATOM     15  H   UNL     1       0.014   0.908   2.422  0.00  0.00    +0.166 HD
ATOM     16  C   UNL     1       0.033  -2.835   2.450  0.00  0.00    +0.191 A 
ATOM     17  O   UNL     1       0.042  -4.055   2.481  0.00  0.00    -0.287 OA
ATOM     18 CL   UNL     1      -0.043   0.196  -2.691  0.00  0.00    -0.083 Cl
ATOM     19  H   UNL     1      -1.315  -1.744   5.952  0.00  0.00    -0.081 HD
ENDROOT
BRANCH  12  20
ATOM     20  C   UNL     1      -0.142  -2.688   7.335  0.00  0.00    +0.019 C 
BRANCH  20  21
ATOM     21  C   UNL     1      -1.063  -3.879   7.394  0.00  0.00    +0.201 C 
ATOM     22  O   UNL     1      -1.810  -4.115   6.469  0.00  0.00    -0.278 OA
ATOM     23  N   UNL     1      -1.056  -4.683   8.477  0.00  0.00    -0.287 N 
ATOM     24  H   UNL     1      -0.413  -4.534   9.187  0.00  0.00    +0.155 HD
BRANCH  23  25
ATOM     25  C   UNL     1      -1.978  -5.731   8.575  0.00  0.00    +0.033 A 
ATOM     26  C   UNL     1      -2.507  -6.079   9.811  0.00  0.00    +0.025 A 
ATOM     27  C   UNL     1      -3.416  -7.114   9.906  0.00  0.00    +0.022 A 
ATOM     28  C   UNL     1      -3.800  -7.806   8.770  0.00  0.00    +0.041 A 
ATOM     29  C   UNL     1      -3.274  -7.462   7.537  0.00  0.00    +0.022 A 
ATOM     30  C   UNL     1      -2.369  -6.423   7.436  0.00  0.00    +0.025 A 
ATOM     31 CL   UNL     1      -4.942  -9.107   8.893  0.00  0.00    -0.084 Cl
ENDBRANCH  23  25
ENDBRANCH  20  21
ENDBRANCH  12  20
TORSDOF 3
