REMARK  Name = ZINC32983093
REMARK  9 active torsions:
REMARK  status: ('A' for Active; 'I' for Inactive)
REMARK    1  A    between atoms: C_1  and  C_2
REMARK    2  A    between atoms: C_2  and  C_3
REMARK    3  A    between atoms: C_10  and  C_12
REMARK    4  A    between atoms: N_14  and  C_15
REMARK    5  A    between atoms: C_15  and  C_16
REMARK    6  A    between atoms: C_16  and  C_18
REMARK    7  A    between atoms: C_16  and  N_26
REMARK    8  A    between atoms: C_23  and  O_24
REMARK    9  A    between atoms: O_24  and  C_25
REMARK                            x       y       z     vdW  Elec       q    Type
REMARK                         _______ _______ _______ _____ _____    ______ ____
ROOT
ATOM      1  C   UNL     1       7.688  -1.129  -6.367  0.00  0.00    +0.094 C 
ENDROOT
BRANCH   1   4
ATOM      2  C   UNL     1       7.472   1.297  -6.307  0.00  0.00    +0.251 C 
ATOM      3  O   UNL     1       7.435   1.234  -5.092  0.00  0.00    -0.270 OA
ATOM      4  N   UNL     1       7.597   0.171  -7.037  0.00  0.00    -0.312 N 
ATOM      5  H   UNL     1       7.627   0.221  -8.005  0.00  0.00    +0.149 HD
BRANCH   2  12
ATOM      6  C   UNL     1       7.466   7.305  -7.966  0.00  0.00    -0.007 C 
ATOM      7  C   UNL     1       6.696   6.949  -9.241  0.00  0.00    +0.009 C 
ATOM      8  C   UNL     1       7.214   5.605  -9.771  0.00  0.00    +0.043 C 
ATOM      9  C   UNL     1       7.261   4.631  -8.631  0.00  0.00    -0.006 A 
ATOM     10  C   UNL     1       7.189   4.927  -7.301  0.00  0.00    -0.036 A 
ATOM     11  C   UNL     1       7.251   3.857  -6.420  0.00  0.00    +0.024 A 
ATOM     12  C   UNL     1       7.382   2.598  -6.976  0.00  0.00    +0.074 A 
ATOM     13  S   UNL     1       7.411   2.970  -8.720  0.00  0.00    -0.088 S 
ATOM     14  C   UNL     1       7.045   6.371  -6.830  0.00  0.00    +0.039 C 
BRANCH   6  16
ATOM     15  C   UNL     1       8.024   9.150  -6.377  0.00  0.00    +0.004 C 
ATOM     16  C   UNL     1       7.159   8.752  -7.574  0.00  0.00    +0.000 C 
ENDBRANCH   6  16
ENDBRANCH   2  12
ENDBRANCH   1   4
BRANCH   1  17
ATOM     17  C   UNL     1       7.697  -2.243  -7.417  0.00  0.00    -0.017 C 
BRANCH  17  18
ATOM     18  C   UNL     1       8.950  -2.141  -8.247  0.00  0.00    -0.018 A 
ATOM     19  C   UNL     1       8.931  -1.456  -9.447  0.00  0.00    +0.005 A 
ATOM     20  C   UNL     1      10.080  -1.362 -10.209  0.00  0.00    +0.000 A 
ATOM     21  C   UNL     1      11.252  -1.953  -9.774  0.00  0.00    +0.004 A 
ATOM     22  C   UNL     1      11.276  -2.639  -8.575  0.00  0.00    +0.046 A 
ATOM     23  C   UNL     1      10.126  -2.730  -7.805  0.00  0.00    +0.122 A 
BRANCH  23  24
ATOM     24  O   UNL     1      10.149  -3.400  -6.623  0.00  0.00    -0.495 OA
ATOM     25  C   UNL     1      11.394  -3.981  -6.231  0.00  0.00    +0.277 C 
ENDBRANCH  23  24
ENDBRANCH  17  18
BRANCH  17  26
ATOM     26  N   UNL     1       6.521  -2.106  -8.286  0.00  0.00    +0.385 N 
ATOM     27  C   UNL     1       6.458  -3.239  -9.245  0.00  0.00    -0.078 C 
ATOM     28  C   UNL     1       4.966  -3.270  -9.660  0.00  0.00    -0.020 C 
ATOM     29  C   UNL     1       4.234  -2.920  -8.344  0.00  0.00    -0.020 C 
ATOM     30  C   UNL     1       5.281  -2.189  -7.484  0.00  0.00    -0.078 C 
ATOM     31  H   UNL     1       6.555  -1.229  -8.784  0.00  0.00    -0.081 HD
ENDBRANCH  17  26
ENDBRANCH   1  17
TORSDOF 7
