REMARK  Name = ZINC34716110
REMARK  9 active torsions:
REMARK  status: ('A' for Active; 'I' for Inactive)
REMARK    1  A    between atoms: C_1  and  C_2
REMARK    2  A    between atoms: C_2  and  C_3
REMARK    3  A    between atoms: C_3  and  C_4
REMARK    4  A    between atoms: C_4  and  N_5
REMARK    5  A    between atoms: C_10  and  C_24
REMARK    6  A    between atoms: C_14  and  C_16
REMARK    7  A    between atoms: C_20  and  C_22
REMARK    8  A    between atoms: N_26  and  C_27
REMARK    9  A    between atoms: C_27  and  C_28
REMARK                            x       y       z     vdW  Elec       q    Type
REMARK                         _______ _______ _______ _____ _____    ______ ____
ROOT
ATOM      1  N   UNL     1      -2.753  -2.983   1.786  0.00  0.00    -0.299 N 
ATOM      2  C   UNL     1      -2.987  -4.160   1.171  0.00  0.00    +0.303 C 
ATOM      3  O   UNL     1      -2.069  -4.929   0.961  0.00  0.00    -0.253 OA
ATOM      4  N   UNL     1      -4.239  -4.484   0.791  0.00  0.00    -0.278 N 
ATOM      5  C   UNL     1      -5.337  -3.517   0.926  0.00  0.00    +0.122 C 
ATOM      6  C   UNL     1      -6.031  -3.367  -0.431  0.00  0.00    +0.092 C 
ATOM      7  C   UNL     1      -6.466  -4.745  -0.933  0.00  0.00    +0.016 C 
ATOM      8  C   UNL     1      -5.235  -5.635  -1.117  0.00  0.00    +0.028 C 
ATOM      9  C   UNL     1      -4.530  -5.810   0.227  0.00  0.00    +0.108 C 
ATOM     10  H   UNL     1      -3.471  -2.339   1.888  0.00  0.00    +0.150 HD
ENDROOT
BRANCH   9  11
ATOM     11  C   UNL     1      -3.243  -6.567   0.026  0.00  0.00    -0.027 A 
ATOM     12  C   UNL     1      -2.293  -6.092  -0.859  0.00  0.00    +0.008 A 
ATOM     13  C   UNL     1      -1.112  -6.785  -1.044  0.00  0.00    +0.039 A 
ATOM     14  C   UNL     1      -0.880  -7.957  -0.343  0.00  0.00    +0.126 A 
ATOM     15  C   UNL     1      -1.832  -8.431   0.544  0.00  0.00    -0.015 A 
ATOM     16  C   UNL     1      -3.010  -7.733   0.731  0.00  0.00    +0.011 A 
ATOM     17  C   UNL     1      -1.582  -9.706   1.308  0.00  0.00    +0.047 C 
ATOM     18  F   UNL     1       0.274  -8.636  -0.523  0.00  0.00    -0.205 F 
ENDBRANCH   9  11
BRANCH   6  19
ATOM     19  C   UNL     1      -5.075  -2.749  -1.419  0.00  0.00    +0.218 C 
ATOM     20  O   UNL     1      -4.773  -3.352  -2.428  0.00  0.00    -0.275 OA
ATOM     21  N   UNL     1      -4.556  -1.529  -1.182  0.00  0.00    -0.311 N 
ATOM     22  H   UNL     1      -4.797  -1.047  -0.376  0.00  0.00    +0.149 HD
BRANCH  21  23
ATOM     23  C   UNL     1      -3.627  -0.929  -2.143  0.00  0.00    +0.142 C 
BRANCH  23  24
ATOM     24  C   UNL     1      -3.196   0.427  -1.646  0.00  0.00    +0.005 A 
ATOM     25  C   UNL     1      -3.790   1.569  -2.150  0.00  0.00    +0.008 A 
ATOM     26  C   UNL     1      -3.396   2.813  -1.694  0.00  0.00    +0.000 A 
ATOM     27  C   UNL     1      -2.406   2.917  -0.734  0.00  0.00    +0.003 A 
ATOM     28  C   UNL     1      -1.811   1.777  -0.228  0.00  0.00    +0.038 A 
ATOM     29  C   UNL     1      -2.209   0.530  -0.680  0.00  0.00    +0.128 A 
ATOM     30  F   UNL     1      -1.632  -0.586  -0.183  0.00  0.00    -0.205 F 
ENDBRANCH  23  24
ENDBRANCH  21  23
ENDBRANCH   6  19
BRANCH   1  31
ATOM     31  C   UNL     1      -1.416  -2.678   2.299  0.00  0.00    +0.106 C 
BRANCH  31  32
ATOM     32  C   UNL     1      -1.421  -1.291   2.945  0.00  0.00    +0.018 C 
BRANCH  32  34
ATOM     33  C   UNL     1      -0.030   0.414   4.127  0.00  0.00    +0.004 C 
ATOM     34  C   UNL     1      -0.024  -0.973   3.481  0.00  0.00    -0.002 C 
ENDBRANCH  32  34
ENDBRANCH  31  32
ENDBRANCH   1  31
TORSDOF 7
