REMARK  Name = ZINC60017259
REMARK  10 active torsions:
REMARK  status: ('A' for Active; 'I' for Inactive)
REMARK    1  A    between atoms: C_1  and  C_2
REMARK    2  A    between atoms: C_2  and  C_3
REMARK    3  A    between atoms: C_3  and  C_11
REMARK    4  A    between atoms: C_14  and  N_17
REMARK    5  A    between atoms: C_18  and  C_20
REMARK    6  A    between atoms: C_21  and  C_22
REMARK    7  A    between atoms: C_25  and  S_28
REMARK    8  A    between atoms: S_28  and  N_31
REMARK    9  A    between atoms: N_31  and  C_32
REMARK   10  A    between atoms: C_32  and  C_33
REMARK                            x       y       z     vdW  Elec       q    Type
REMARK                         _______ _______ _______ _____ _____    ______ ____
ROOT
ATOM      1  N   UNL     1      -3.858   1.632  -4.757  0.00  0.00    -0.282 N 
ATOM      2  C   UNL     1      -3.868   2.961  -4.979  0.00  0.00    +0.241 C 
ATOM      3  O   UNL     1      -3.293   3.710  -4.212  0.00  0.00    -0.270 OA
ATOM      4  H   UNL     1      -4.253   1.029  -5.406  0.00  0.00    +0.155 HD
ENDROOT
BRANCH   1   8
ATOM      5  C   UNL     1      -2.135   0.114  -1.282  0.00  0.00    -0.032 A 
ATOM      6  C   UNL     1      -2.072  -0.612  -2.457  0.00  0.00    +0.006 A 
ATOM      7  C   UNL     1      -2.643  -0.112  -3.611  0.00  0.00    +0.023 A 
ATOM      8  C   UNL     1      -3.280   1.122  -3.590  0.00  0.00    +0.034 A 
ATOM      9  C   UNL     1      -3.342   1.849  -2.408  0.00  0.00    +0.023 A 
ATOM     10  C   UNL     1      -2.774   1.340  -1.256  0.00  0.00    +0.006 A 
BRANCH   5  11
ATOM     11  C   UNL     1      -1.512  -0.435  -0.025  0.00  0.00    +0.072 C 
ATOM     12  C   UNL     1      -0.760  -1.731  -0.348  0.00  0.00    +0.030 C 
ATOM     13  C   UNL     1      -0.231  -2.328   0.961  0.00  0.00    +0.097 C 
ATOM     14  C   UNL     1      -1.378  -2.517   1.918  0.00  0.00    +0.219 C 
ATOM     15  O   UNL     1      -1.325  -3.405   2.741  0.00  0.00    -0.275 OA
ATOM     16  N   UNL     1      -2.458  -1.722   1.876  0.00  0.00    -0.256 N 
ATOM     17  C   UNL     1      -2.589  -0.727   0.986  0.00  0.00    +0.230 C 
ATOM     18  O   UNL     1      -3.595  -0.051   0.995  0.00  0.00    -0.274 OA
ATOM     19  H   UNL     1      -3.172  -1.872   2.516  0.00  0.00    +0.157 HD
BRANCH  11  21
ATOM     20  C   UNL     1       0.518   0.942  -0.502  0.00  0.00    +0.005 C 
ATOM     21  C   UNL     1      -0.535   0.592   0.552  0.00  0.00    +0.017 C 
ENDBRANCH  11  21
ENDBRANCH   5  11
ENDBRANCH   1   8
BRANCH   2  22
ATOM     22  C   UNL     1      -4.571   3.503  -6.143  0.00  0.00    +0.068 C 
ATOM     23  C   UNL     1      -4.580   4.833  -6.365  0.00  0.00    +0.013 C 
BRANCH  23  24
ATOM     24  C   UNL     1      -5.287   5.379  -7.535  0.00  0.00    -0.025 A 
ATOM     25  C   UNL     1      -5.954   4.522  -8.416  0.00  0.00    +0.010 A 
ATOM     26  C   UNL     1      -6.614   5.040  -9.510  0.00  0.00    +0.029 A 
ATOM     27  C   UNL     1      -6.616   6.406  -9.738  0.00  0.00    +0.105 A 
ATOM     28  C   UNL     1      -5.958   7.261  -8.871  0.00  0.00    +0.029 A 
ATOM     29  C   UNL     1      -5.299   6.758  -7.769  0.00  0.00    +0.010 A 
BRANCH  27  30
ATOM     30  S   UNL     1      -7.462   7.059 -11.139  0.00  0.00    +0.058 S 
ATOM     31  O   UNL     1      -6.857   8.311 -11.431  0.00  0.00    -0.153 OA
ATOM     32  O   UNL     1      -7.537   6.009 -12.094  0.00  0.00    -0.153 OA
BRANCH  30  33
ATOM     33  N   UNL     1      -9.016   7.381 -10.668  0.00  0.00    -0.190 NA
ATOM     34  H   UNL     1      -9.754   6.888 -11.059  0.00  0.00    +0.148 HD
BRANCH  33  35
ATOM     35  C   UNL     1      -9.276   8.411  -9.659  0.00  0.00    +0.102 C 
ATOM     36  C   UNL     1     -10.763   8.774  -9.673  0.00  0.00    +0.022 C 
ENDBRANCH  33  35
ENDBRANCH  30  33
ENDBRANCH  27  30
ENDBRANCH  23  24
ENDBRANCH   2  22
TORSDOF 8
