REMARK  Name = ZINC40983220
REMARK  11 active torsions:
REMARK  status: ('A' for Active; 'I' for Inactive)
REMARK    1  A    between atoms: C_1  and  C_2
REMARK    2  A    between atoms: C_2  and  C_3
REMARK    3  A    between atoms: C_3  and  C_4
REMARK    4  A    between atoms: C_4  and  S_5
REMARK    5  A    between atoms: S_5  and  C_6
REMARK    6  A    between atoms: C_11  and  C_28
REMARK    7  A    between atoms: C_13  and  C_17
REMARK    8  A    between atoms: C_14  and  C_16
REMARK    9  A    between atoms: N_19  and  C_20
REMARK   10  A    between atoms: C_23  and  C_27
REMARK   11  A    between atoms: C_25  and  C_26
REMARK                            x       y       z     vdW  Elec       q    Type
REMARK                         _______ _______ _______ _____ _____    ______ ____
ROOT
ATOM      1  C   UNL     1      -2.872  -4.453   0.238  0.00  0.00    +0.210 A 
ATOM      2  N   UNL     1      -1.712  -5.124   0.172  0.00  0.00    -0.187 NA
ATOM      3  C   UNL     1      -1.953  -6.406   0.123  0.00  0.00    +0.219 A 
ATOM      4  N   UNL     1      -3.297  -6.584   0.153  0.00  0.00    -0.220 N 
ATOM      5  N   UNL     1      -3.866  -5.314   0.235  0.00  0.00    -0.141 NA
ATOM      6  C   UNL     1      -3.940  -7.895   0.104  0.00  0.00    +0.177 C 
ATOM      7  C   UNL     1      -2.907  -8.968   0.318  0.00  0.00    +0.060 C 
ATOM      8  C   UNL     1      -1.587  -8.732   0.281  0.00  0.00    +0.018 C 
ATOM      9  N   UNL     1      -1.074  -7.479   0.054  0.00  0.00    -0.287 N 
ATOM     10  C   UNL     1      -0.635  -9.881   0.496  0.00  0.00    +0.061 C 
ATOM     11  H   UNL     1      -0.134  -7.348  -0.147  0.00  0.00    +0.155 HD
ENDROOT
BRANCH   6  12
ATOM     12  C   UNL     1      -4.591  -8.085  -1.242  0.00  0.00    -0.016 A 
ATOM     13  C   UNL     1      -3.838  -8.055  -2.405  0.00  0.00    +0.026 A 
ATOM     14  C   UNL     1      -4.470  -8.233  -3.621  0.00  0.00    +0.111 A 
ATOM     15  N   UNL     1      -5.772  -8.430  -3.682  0.00  0.00    -0.263 NA
ATOM     16  C   UNL     1      -6.520  -8.465  -2.596  0.00  0.00    +0.111 A 
ATOM     17  C   UNL     1      -5.957  -8.300  -1.345  0.00  0.00    +0.026 A 
ENDBRANCH   6  12
BRANCH   7  18
ATOM     18  C   UNL     1      -3.349 -10.288   0.571  0.00  0.00    +0.248 C 
ATOM     19  O   UNL     1      -3.721 -10.603   1.687  0.00  0.00    -0.270 OA
ATOM     20  N   UNL     1      -3.357 -11.198  -0.424  0.00  0.00    -0.281 N 
ATOM     21  H   UNL     1      -3.000 -10.967  -1.296  0.00  0.00    +0.155 HD
BRANCH  20  22
ATOM     22  C   UNL     1      -3.880 -12.475  -0.199  0.00  0.00    +0.037 A 
ATOM     23  C   UNL     1      -3.729 -13.081   1.042  0.00  0.00    +0.024 A 
ATOM     24  C   UNL     1      -4.246 -14.342   1.261  0.00  0.00    +0.005 A 
ATOM     25  C   UNL     1      -4.915 -15.002   0.246  0.00  0.00    -0.050 A 
ATOM     26  C   UNL     1      -5.068 -14.403  -0.990  0.00  0.00    +0.008 A 
ATOM     27  C   UNL     1      -4.557 -13.139  -1.214  0.00  0.00    -0.029 A 
ATOM     28  C   UNL     1      -4.729 -12.483  -2.560  0.00  0.00    +0.045 C 
ATOM     29  C   UNL     1      -5.478 -16.379   0.489  0.00  0.00    +0.044 C 
ENDBRANCH  20  22
ENDBRANCH   7  18
BRANCH   1  30
ATOM     30  S   UNL     1      -3.035  -2.701   0.323  0.00  0.00    -0.084 S 
BRANCH  30  31
ATOM     31  C   UNL     1      -1.325  -2.098   0.288  0.00  0.00    +0.077 C 
BRANCH  31  32
ATOM     32  C   UNL     1      -1.322  -0.569   0.357  0.00  0.00    +0.011 C 
BRANCH  32  34
ATOM     33  C   UNL     1       0.124   1.468   0.397  0.00  0.00    +0.004 C 
ATOM     34  C   UNL     1       0.121  -0.061   0.328  0.00  0.00    -0.003 C 
ENDBRANCH  32  34
ENDBRANCH  31  32
ENDBRANCH  30  31
ENDBRANCH   1  30
TORSDOF 7
