REMARK  Name = ZINC34064925
REMARK  8 active torsions:
REMARK  status: ('A' for Active; 'I' for Inactive)
REMARK    1  A    between atoms: C_1  and  C_2
REMARK    2  A    between atoms: C_2  and  C_24
REMARK    3  A    between atoms: C_6  and  C_8
REMARK    4  A    between atoms: C_6  and  C_9
REMARK    5  A    between atoms: C_16  and  C_22
REMARK    6  A    between atoms: C_16  and  C_23
REMARK    7  A    between atoms: C_18  and  C_20
REMARK    8  A    between atoms: C_18  and  C_21
REMARK                            x       y       z     vdW  Elec       q    Type
REMARK                         _______ _______ _______ _____ _____    ______ ____
ROOT
ATOM      1  C   UNL     1      -0.257   3.022  -1.576  0.00  0.00    -0.010 C 
ATOM      2  C   UNL     1      -0.688   1.586  -1.263  0.00  0.00    -0.070 C 
ATOM      3  C   UNL     1      -0.013   1.095   0.008  0.00  0.00    +0.032 C 
ATOM      4  C   UNL     1      -0.672   1.574   1.286  0.00  0.00    +0.145 C 
ATOM      5  C   UNL     1      -2.184   1.462   1.268  0.00  0.00    +0.032 C 
ATOM      6  C   UNL     1      -2.857   1.839  -0.038  0.00  0.00    -0.070 C 
ATOM      7  N   UNL     1      -2.128   1.461  -1.226  0.00  0.00    +0.386 N 
ATOM      8  C   UNL     1      -3.192   3.337  -0.051  0.00  0.00    -0.010 C 
ATOM      9  C   UNL     1      -4.218   1.092  -0.078  0.00  0.00    -0.010 C 
ATOM     10  C   UNL     1      -0.218   2.958   1.667  0.00  0.00    +0.247 C 
ATOM     11  O   UNL     1      -0.632   4.017   1.240  0.00  0.00    -0.273 OA
ATOM     12  N   UNL     1       0.749   2.839   2.604  0.00  0.00    -0.285 N 
ATOM     13  C   UNL     1       0.899   1.419   2.960  0.00  0.00    +0.135 C 
ATOM     14  O   UNL     1      -0.199   0.726   2.368  0.00  0.00    -0.341 OA
ATOM     15  C   UNL     1       2.235   0.910   2.437  0.00  0.00    +0.042 C 
ATOM     16  C   UNL     1       2.540  -0.505   2.912  0.00  0.00    -0.069 C 
ATOM     17  N   UNL     1       2.318  -0.692   4.330  0.00  0.00    +0.386 N 
ATOM     18  C   UNL     1       1.154  -0.109   4.963  0.00  0.00    -0.069 C 
ATOM     19  C   UNL     1       0.851   1.303   4.482  0.00  0.00    +0.042 C 
ATOM     20  C   UNL     1       1.435  -0.028   6.483  0.00  0.00    -0.010 C 
ATOM     21  C   UNL     1      -0.080  -1.002   4.788  0.00  0.00    -0.010 C 
ATOM     22  C   UNL     1       4.038  -0.772   2.628  0.00  0.00    -0.010 C 
ATOM     23  C   UNL     1       1.744  -1.523   2.087  0.00  0.00    -0.010 C 
ATOM     24  C   UNL     1      -0.171   0.704  -2.427  0.00  0.00    -0.010 C 
ATOM     25  H   UNL     1      -2.570   2.083  -2.018  0.00  0.00    -0.084 HD
ATOM     26  H   UNL     1       1.380   3.598   3.090  0.00  0.00    +0.151 HD
ATOM     27  H   UNL     1       2.230  -1.766   4.549  0.00  0.00    -0.084 HD
ATOM     28  H   UNL     1      -2.408   0.409  -1.385  0.00  0.00    -0.084 HD
ATOM     29  H   UNL     1       3.165  -0.271   4.892  0.00  0.00    -0.084 HD
ENDROOT
TORSDOF 0
