REMARK  Name = ZINC09075891
REMARK  10 active torsions:
REMARK  status: ('A' for Active; 'I' for Inactive)
REMARK    1  A    between atoms: C_1  and  C_2
REMARK    2  A    between atoms: C_2  and  C_3
REMARK    3  A    between atoms: C_6  and  N_9
REMARK    4  A    between atoms: C_13  and  C_14
REMARK    5  A    between atoms: N_16  and  C_23
REMARK    6  A    between atoms: C_23  and  C_24
REMARK    7  A    between atoms: C_24  and  C_25
REMARK    8  A    between atoms: C_25  and  O_26
REMARK    9  A    between atoms: O_26  and  C_27
REMARK   10  A    between atoms: C_30  and  C_33
REMARK                            x       y       z     vdW  Elec       q    Type
REMARK                         _______ _______ _______ _____ _____    ______ ____
ROOT
ATOM      1  C   UNL     1       5.984   3.138  -0.218  0.00  0.00    +0.001 A 
ATOM      2  C   UNL     1       4.920   4.002  -0.024  0.00  0.00    +0.094 A 
ATOM      3  N   UNL     1       5.354   5.274  -0.089  0.00  0.00    -0.346 N 
ATOM      4  C   UNL     1       6.713   5.315  -0.337  0.00  0.00    +0.050 A 
ATOM      5  C   UNL     1       7.171   3.992  -0.429  0.00  0.00    +0.007 A 
ATOM      6  C   UNL     1       8.515   3.733  -0.676  0.00  0.00    +0.010 A 
ATOM      7  C   UNL     1       9.396   4.783  -0.829  0.00  0.00    +0.001 A 
ATOM      8  C   UNL     1       8.945   6.091  -0.738  0.00  0.00    +0.002 A 
ATOM      9  C   UNL     1       7.616   6.361  -0.494  0.00  0.00    +0.026 A 
ENDROOT
BRANCH   1  14
ATOM     10  N   UNL     1       3.979   1.040   2.836  0.00  0.00    -0.190 N 
ATOM     11  C   UNL     1       4.663   1.760   1.923  0.00  0.00    +0.263 C 
ATOM     12  O   UNL     1       4.810   2.961   2.058  0.00  0.00    -0.269 OA
ATOM     13  C   UNL     1       5.227   1.054   0.760  0.00  0.00    +0.100 C 
ATOM     14  C   UNL     1       5.942   1.729  -0.220  0.00  0.00    +0.028 C 
ATOM     15  C   UNL     1       4.998  -0.399   0.682  0.00  0.00    +0.257 C 
ATOM     16  O   UNL     1       5.433  -1.051  -0.249  0.00  0.00    -0.270 OA
ATOM     17  N   UNL     1       4.294  -0.988   1.670  0.00  0.00    -0.235 N 
ATOM     18  C   UNL     1       3.813  -0.283   2.704  0.00  0.00    +0.320 C 
ATOM     19  O   UNL     1       3.191  -0.874   3.564  0.00  0.00    -0.251 OA
ATOM     20  H   UNL     1       4.134  -1.944   1.633  0.00  0.00    +0.159 HD
BRANCH  10  24
ATOM     21  C   UNL     1       2.357   2.974   6.153  0.00  0.00    -0.048 A 
ATOM     22  C   UNL     1       1.521   2.407   5.209  0.00  0.00    +0.005 A 
ATOM     23  C   UNL     1       2.056   1.761   4.111  0.00  0.00    +0.024 A 
ATOM     24  C   UNL     1       3.433   1.690   3.952  0.00  0.00    +0.046 A 
ATOM     25  C   UNL     1       4.269   2.265   4.899  0.00  0.00    +0.024 A 
ATOM     26  C   UNL     1       3.729   2.905   5.998  0.00  0.00    +0.005 A 
BRANCH  21  28
ATOM     27  C   UNL     1       1.551   5.152   7.023  0.00  0.00    +0.009 C 
ATOM     28  C   UNL     1       1.770   3.675   7.352  0.00  0.00    +0.032 C 
ENDBRANCH  21  28
ENDBRANCH  10  24
ENDBRANCH   1  14
BRANCH   3  29
ATOM     29  C   UNL     1       4.502   6.454   0.076  0.00  0.00    +0.125 C 
BRANCH  29  30
ATOM     30  C   UNL     1       4.047   6.949  -1.298  0.00  0.00    +0.062 C 
BRANCH  30  31
ATOM     31  C   UNL     1       3.157   8.182  -1.127  0.00  0.00    +0.231 C 
BRANCH  31  32
ATOM     32  O   UNL     1       2.732   8.645  -2.410  0.00  0.00    -0.492 OA
BRANCH  32  33
ATOM     33  C   UNL     1       1.929   9.741  -2.436  0.00  0.00    +0.121 A 
ATOM     34  C   UNL     1       1.552  10.355  -1.250  0.00  0.00    +0.046 A 
ATOM     35  C   UNL     1       0.741  11.472  -1.278  0.00  0.00    +0.007 A 
ATOM     36  C   UNL     1       0.293  11.972  -2.488  0.00  0.00    -0.050 A 
ATOM     37  C   UNL     1       0.662  11.359  -3.671  0.00  0.00    +0.007 A 
ATOM     38  C   UNL     1       1.478  10.245  -3.647  0.00  0.00    +0.046 A 
ATOM     39  C   UNL     1      -0.598  13.187  -2.516  0.00  0.00    +0.044 C 
ENDBRANCH  32  33
ENDBRANCH  31  32
ENDBRANCH  30  31
ENDBRANCH  29  30
ENDBRANCH   3  29
TORSDOF 8
