REMARK  Name = ZINC20532200
REMARK  13 active torsions:
REMARK  status: ('A' for Active; 'I' for Inactive)
REMARK    1  A    between atoms: C_1  and  C_2
REMARK    2  A    between atoms: C_2  and  N_3
REMARK    3  A    between atoms: C_9  and  N_30
REMARK    4  A    between atoms: C_10  and  C_11
REMARK    5  A    between atoms: C_11  and  C_13
REMARK    6  A    between atoms: C_11  and  N_18
REMARK    7  A    between atoms: C_13  and  C_14
REMARK    8  A    between atoms: C_14  and  C_15
REMARK    9  A    between atoms: C_15  and  C_16
REMARK   10  A    between atoms: C_15  and  C_17
REMARK   11  A    between atoms: N_21  and  C_22
REMARK   12  A    between atoms: C_25  and  C_29
REMARK   13  A    between atoms: C_27  and  C_28
REMARK                            x       y       z     vdW  Elec       q    Type
REMARK                         _______ _______ _______ _____ _____    ______ ____
ROOT
ATOM      1  C   UNL     1      -0.638   1.814   1.547  0.00  0.00    +0.108 C 
ENDROOT
BRANCH   1   9
ATOM      2  N   UNL     1      -1.718  -2.093   4.752  0.00  0.00    +0.383 N 
ATOM      3  C   UNL     1      -2.397  -1.794   3.484  0.00  0.00    -0.074 C 
ATOM      4  C   UNL     1      -2.064  -0.372   3.026  0.00  0.00    +0.018 C 
ATOM      5  C   UNL     1      -0.546  -0.211   3.032  0.00  0.00    -0.034 A 
ATOM      6  C   UNL     1       0.218  -1.099   3.728  0.00  0.00    -0.021 A 
ATOM      7  S   UNL     1       1.876  -0.545   3.445  0.00  0.00    -0.077 S 
ATOM      8  C   UNL     1       1.489   0.851   2.399  0.00  0.00    +0.090 A 
ATOM      9  C   UNL     1       0.132   0.792   2.344  0.00  0.00    +0.007 A 
ATOM     10  C   UNL     1      -0.267  -2.256   4.539  0.00  0.00    -0.035 C 
ATOM     11  H   UNL     1      -1.876  -1.242   5.431  0.00  0.00    -0.081 HD
BRANCH   8  12
ATOM     12  N   UNL     1       2.357   1.767   1.794  0.00  0.00    -0.317 N 
ATOM     13  C   UNL     1       1.997   2.734   0.900  0.00  0.00    +0.092 A 
ATOM     14  C   UNL     1       3.107   3.415   0.546  0.00  0.00    +0.019 A 
ATOM     15  C   UNL     1       4.192   2.844   1.239  0.00  0.00    +0.019 A 
ATOM     16  C   UNL     1       3.706   1.838   1.995  0.00  0.00    +0.092 A 
ENDBRANCH   8  12
BRANCH   2  18
ATOM     17  C   UNL     1      -2.197  -4.473   4.431  0.00  0.00    -0.017 C 
ATOM     18  C   UNL     1      -2.293  -3.284   5.390  0.00  0.00    -0.082 C 
ENDBRANCH   2  18
ENDBRANCH   1   9
BRANCH   1  19
ATOM     19  N   UNL     1      -0.151   3.156   1.874  0.00  0.00    -0.292 N 
ATOM     20  C   UNL     1      -0.938   4.229   1.659  0.00  0.00    +0.304 C 
ATOM     21  O   UNL     1      -2.052   4.083   1.194  0.00  0.00    -0.252 OA
ATOM     22  N   UNL     1      -0.490   5.464   1.960  0.00  0.00    -0.269 N 
ATOM     23  H   UNL     1       0.857   3.288   2.294  0.00  0.00    +0.151 HD
ATOM     24  H   UNL     1       0.472   5.589   2.479  0.00  0.00    +0.156 HD
BRANCH  22  25
ATOM     25  C   UNL     1      -1.248   6.588   1.612  0.00  0.00    +0.038 A 
ATOM     26  C   UNL     1      -2.179   6.507   0.584  0.00  0.00    +0.024 A 
ATOM     27  C   UNL     1      -2.926   7.618   0.243  0.00  0.00    +0.005 A 
ATOM     28  C   UNL     1      -2.748   8.808   0.923  0.00  0.00    -0.050 A 
ATOM     29  C   UNL     1      -1.823   8.891   1.947  0.00  0.00    +0.008 A 
ATOM     30  C   UNL     1      -1.076   7.783   2.296  0.00  0.00    -0.029 A 
ATOM     31  C   UNL     1      -0.071   7.873   3.416  0.00  0.00    +0.045 C 
ATOM     32  C   UNL     1      -3.565  10.018   0.548  0.00  0.00    +0.044 C 
ENDBRANCH  22  25
ENDBRANCH   1  19
BRANCH   1  33
ATOM     33  C   UNL     1      -0.440   1.549   0.053  0.00  0.00    +0.027 C 
BRANCH  33  34
ATOM     34  C   UNL     1      -1.318   2.506  -0.755  0.00  0.00    +0.005 C 
BRANCH  34  35
ATOM     35  C   UNL     1      -1.119   2.241  -2.249  0.00  0.00    -0.017 C 
ATOM     36  C   UNL     1      -1.628   0.839  -2.591  0.00  0.00    +0.007 C 
ATOM     37  C   UNL     1      -1.901   3.278  -3.059  0.00  0.00    +0.007 C 
ENDBRANCH  34  35
ENDBRANCH  33  34
ENDBRANCH   1  33
TORSDOF 8
