REMARK  Name = ZINC06623732
REMARK  12 active torsions:
REMARK  status: ('A' for Active; 'I' for Inactive)
REMARK    1  A    between atoms: CD1_1  and  CG1_2
REMARK    2  A    between atoms: CG1_2  and  CB_3
REMARK    3  A    between atoms: CB_3  and  CG2_5
REMARK    4  A    between atoms: CB_3  and  CA_6
REMARK    5  A    between atoms: CA_6  and  C_8
REMARK    6  A    between atoms: CA_6  and  N_10
REMARK    7  A    between atoms: C_8  and  O_9
REMARK    8  A    between atoms: C_11  and  CA_13
REMARK    9  A    between atoms: CA_13  and  CB_15
REMARK   10  A    between atoms: CA_13  and  N_16
REMARK   11  A    between atoms: C_17  and  CA_19
REMARK   12  A    between atoms: C_31  and  C_33
REMARK                            x       y       z     vdW  Elec       q    Type
REMARK                         _______ _______ _______ _____ _____    ______ ____
ROOT
ATOM      1  N   UNL     1      -5.458   4.308   0.080  0.00  0.00    -0.299 N 
ATOM      2  C   UNL     1      -4.165   4.688   0.069  0.00  0.00    +0.263 C 
ATOM      3  O   UNL     1      -3.878   5.869   0.073  0.00  0.00    -0.269 OA
ATOM      4  H   UNL     1      -5.687   3.365   0.076  0.00  0.00    +0.150 HD
ENDROOT
BRANCH   2   5
ATOM      5  CA  UNL     1      -3.095   3.667   0.052  0.00  0.00    +0.126 A 
ATOM      6  C   UNL     1      -1.762   4.068   0.041  0.00  0.00    +0.043 A 
ATOM      7  C   UNL     1      -0.771   3.091   0.026  0.00  0.00    +0.011 A 
ATOM      8  C   UNL     1       0.700   3.112   0.012  0.00  0.00    +0.008 A 
ATOM      9  C   UNL     1       1.647   4.133   0.008  0.00  0.00    +0.010 A 
ATOM     10  C   UNL     1       2.989   3.823  -0.006  0.00  0.00    +0.001 A 
ATOM     11  C   UNL     1       3.400   2.498  -0.016  0.00  0.00    +0.002 A 
ATOM     12  C   UNL     1       2.474   1.478  -0.013  0.00  0.00    +0.026 A 
ATOM     13  C   UNL     1       1.114   1.770   0.001  0.00  0.00    +0.048 A 
ATOM     14  N   UNL     1      -0.011   0.966   0.007  0.00  0.00    -0.353 N 
ATOM     15  H   UNL     1       0.002  -0.004   0.002  0.00  0.00    +0.166 HD
ATOM     16  C   UNL     1      -1.153   1.736   0.016  0.00  0.00    +0.069 A 
ATOM     17  C   UNL     1      -2.512   1.425   0.034  0.00  0.00    +0.063 A 
ATOM     18  N   UNL     1      -3.417   2.376   0.048  0.00  0.00    -0.245 NA
ATOM     19  C   UNL     1      -2.947  -0.018   0.030  0.00  0.00    +0.068 C 
ENDBRANCH   2   5
BRANCH   1  20
ATOM     20  CA  UNL     1      -6.518   5.319   0.096  0.00  0.00    +0.156 C 
ATOM     21  CB  UNL     1      -6.815   5.770  -1.335  0.00  0.00    +0.038 C 
BRANCH  20  23
ATOM     22  N   UNL     1      -8.876   5.482   0.825  0.00  0.00    -0.308 N 
ATOM     23  C   UNL     1      -7.764   4.730   0.706  0.00  0.00    +0.233 C 
ATOM     24  O   UNL     1      -7.767   3.579   1.088  0.00  0.00    -0.274 OA
ATOM     25  H   UNL     1      -8.875   6.402   0.519  0.00  0.00    +0.149 HD
BRANCH  22  26
ATOM     26  CA  UNL     1     -10.088   4.910   1.418  0.00  0.00    +0.101 C 
BRANCH  26  27
ATOM     27  CB  UNL     1     -10.947   6.031   2.004  0.00  0.00    +0.008 C 
ATOM     28  CG2 UNL     1     -10.153   6.772   3.082  0.00  0.00    +0.009 C 
BRANCH  27  30
ATOM     29  CD1 UNL     1     -13.130   6.562   3.098  0.00  0.00    +0.004 C 
ATOM     30  CG1 UNL     1     -12.213   5.433   2.623  0.00  0.00    +0.002 C 
ENDBRANCH  27  30
ENDBRANCH  26  27
BRANCH  26  31
ATOM     31  C   UNL     1     -10.882   4.169   0.340  0.00  0.00    +0.178 C 
BRANCH  31  32
ATOM     32  O   UNL     1     -11.344   5.104  -0.638  0.00  0.00    -0.393 OA
ATOM     33  H   UNL     1     -11.857   4.703  -1.353  0.00  0.00    +0.209 HD
ENDBRANCH  31  32
ENDBRANCH  26  31
ENDBRANCH  22  26
ENDBRANCH  20  23
ENDBRANCH   1  20
TORSDOF 8
