REMARK  Name = ZINC14533212
REMARK  7 active torsions:
REMARK  status: ('A' for Active; 'I' for Inactive)
REMARK    1  A    between atoms: C_1  and  C_2
REMARK    2  A    between atoms: C_2  and  C_3
REMARK    3  A    between atoms: C_3  and  N_4
REMARK    4  A    between atoms: C_7  and  C_9
REMARK    5  A    between atoms: N_14  and  C_17
REMARK    6  A    between atoms: C_19  and  N_23
REMARK    7  A    between atoms: N_23  and  C_24
REMARK                            x       y       z     vdW  Elec       q    Type
REMARK                         _______ _______ _______ _____ _____    ______ ____
ROOT
ATOM      1  N   UNL     1      -1.318  -1.726   0.067  0.00  0.00    -0.267 N 
ATOM      2  C   UNL     1      -1.313  -2.543  -0.999  0.00  0.00    +0.043 A 
ATOM      3  C   UNL     1      -1.424  -3.811  -0.533  0.00  0.00    +0.004 A 
ATOM      4  C   UNL     1      -1.498  -3.704   0.865  0.00  0.00    +0.151 A 
ATOM      5  N   UNL     1      -1.422  -2.415   1.151  0.00  0.00    -0.166 NA
ATOM      6  C   UNL     1      -1.453  -5.040  -1.400  0.00  0.00    +0.023 C 
ATOM      7  C   UNL     1      -0.936  -4.659  -2.794  0.00  0.00    -0.067 C 
ATOM      8  C   UNL     1      -1.664  -3.403  -3.283  0.00  0.00    -0.009 C 
ATOM      9  C   UNL     1      -1.209  -2.191  -2.461  0.00  0.00    +0.054 C 
ENDROOT
BRANCH   4  10
ATOM     10  C   UNL     1      -1.631  -4.815   1.830  0.00  0.00    +0.267 C 
ATOM     11  O   UNL     1      -1.787  -5.952   1.429  0.00  0.00    -0.268 OA
ATOM     12  N   UNL     1      -1.578  -4.568   3.154  0.00  0.00    -0.294 N 
ATOM     13  C   UNL     1      -1.611  -5.668   4.129  0.00  0.00    +0.123 C 
ATOM     14  C   UNL     1      -0.438  -5.494   5.100  0.00  0.00    +0.103 C 
ATOM     15  N   UNL     1      -0.485  -4.146   5.682  0.00  0.00    -0.302 NA
ATOM     16  C   UNL     1      -0.318  -3.114   4.651  0.00  0.00    +0.103 C 
ATOM     17  C   UNL     1      -1.479  -3.191   3.661  0.00  0.00    +0.123 C 
ATOM     18  C   UNL     1       0.518  -3.997   6.745  0.00  0.00    +0.105 C 
ENDBRANCH   4  10
BRANCH   7  19
ATOM     19  N   UNL     1      -1.187  -5.764  -3.728  0.00  0.00    +0.383 N 
ATOM     20  H   UNL     1      -2.165  -6.008  -3.706  0.00  0.00    -0.085 HD
ATOM     21  H   UNL     1      -0.932  -5.479  -4.662  0.00  0.00    -0.085 HD
BRANCH  19  22
ATOM     22  C   UNL     1      -0.382  -6.929  -3.335  0.00  0.00    -0.071 C 
ATOM     23  C   UNL     1       1.102  -6.612  -3.528  0.00  0.00    -0.016 C 
ATOM     24  C   UNL     1       1.945  -7.637  -2.765  0.00  0.00    -0.002 C 
ATOM     25  C   UNL     1       1.341  -7.864  -1.379  0.00  0.00    -0.000 C 
ATOM     26  C   UNL     1       0.795  -9.291  -1.287  0.00  0.00    -0.000 C 
ATOM     27  C   UNL     1      -0.526  -9.381  -2.054  0.00  0.00    -0.000 C 
ATOM     28  C   UNL     1      -0.242  -9.413  -3.557  0.00  0.00    -0.002 C 
ATOM     29  C   UNL     1      -0.765  -8.129  -4.204  0.00  0.00    -0.016 C 
ENDBRANCH  19  22
ENDBRANCH   7  19
BRANCH   1  30
ATOM     30  C   UNL     1      -1.215  -0.266   0.007  0.00  0.00    +0.143 C 
BRANCH  30  32
ATOM     31  C   UNL     1       0.367   1.669  -0.001  0.00  0.00    +0.005 C 
ATOM     32  C   UNL     1       0.259   0.144   0.062  0.00  0.00    +0.020 C 
ENDBRANCH  30  32
ENDBRANCH   1  30
TORSDOF 5
