REMARK  Name = ZINC39583669
REMARK  6 active torsions:
REMARK  status: ('A' for Active; 'I' for Inactive)
REMARK    1  A    between atoms: C_1  and  C_2
REMARK    2  A    between atoms: C_6  and  C_8
REMARK    3  A    between atoms: C_12  and  S_21
REMARK    4  A    between atoms: N_13  and  C_14
REMARK    5  A    between atoms: S_21  and  C_22
REMARK    6  A    between atoms: C_22  and  C_23
REMARK                            x       y       z     vdW  Elec       q    Type
REMARK                         _______ _______ _______ _____ _____    ______ ____
ROOT
ATOM      1  C   UNL     1       0.054  -2.845   2.489  0.00  0.00    +0.213 C 
ATOM      2  N   UNL     1       0.906  -2.161   3.476  0.00  0.00    -0.242 N 
ATOM      3  N   UNL     1       1.932  -3.059   3.795  0.00  0.00    -0.162 NA
ATOM      4  C   UNL     1       1.810  -4.166   3.143  0.00  0.00    +0.180 C 
ATOM      5  N   UNL     1       0.696  -4.158   2.311  0.00  0.00    -0.254 N 
ATOM      6  H   UNL     1       0.783  -1.268   3.834  0.00  0.00    +0.170 HD
ENDROOT
BRANCH   1  12
ATOM      7  C   UNL     1       0.467   1.469  -0.015  0.00  0.00    +0.044 C 
ATOM      8  C   UNL     1       0.234  -0.020  -0.010  0.00  0.00    -0.050 A 
ATOM      9  C   UNL     1       0.005  -0.688  -1.199  0.00  0.00    +0.003 A 
ATOM     10  C   UNL     1      -0.209  -2.054  -1.194  0.00  0.00    +0.001 A 
ATOM     11  C   UNL     1      -0.193  -2.752  -0.000  0.00  0.00    +0.007 A 
ATOM     12  C   UNL     1       0.037  -2.084   1.188  0.00  0.00    -0.007 A 
ATOM     13  C   UNL     1       0.255  -0.719   1.182  0.00  0.00    +0.010 A 
ENDBRANCH   1  12
BRANCH   5  14
ATOM     14  C   UNL     1       0.268  -5.190   1.471  0.00  0.00    +0.038 A 
ATOM     15  C   UNL     1       1.139  -5.728   0.531  0.00  0.00    +0.025 A 
ATOM     16  C   UNL     1       0.714  -6.748  -0.297  0.00  0.00    +0.022 A 
ATOM     17  C   UNL     1      -0.578  -7.234  -0.193  0.00  0.00    +0.041 A 
ATOM     18  C   UNL     1      -1.447  -6.699   0.741  0.00  0.00    +0.022 A 
ATOM     19  C   UNL     1      -1.026  -5.684   1.577  0.00  0.00    +0.025 A 
ATOM     20 CL   UNL     1      -1.108  -8.515  -1.237  0.00  0.00    -0.084 Cl
ENDBRANCH   5  14
BRANCH   4  21
ATOM     21  S   UNL     1       2.919  -5.527   3.292  0.00  0.00    -0.081 S 
BRANCH  21  22
ATOM     22  C   UNL     1       4.146  -4.962   4.503  0.00  0.00    +0.151 C 
BRANCH  22  23
ATOM     23  C   UNL     1       5.169  -6.047   4.725  0.00  0.00    +0.118 A 
ATOM     24  N   UNL     1       6.270  -6.184   4.046  0.00  0.00    -0.232 NA
ATOM     25  C   UNL     1       6.958  -7.261   4.504  0.00  0.00    +0.089 A 
ATOM     26  C   UNL     1       8.173  -7.851   4.147  0.00  0.00    +0.030 A 
ATOM     27  C   UNL     1       8.614  -8.959   4.814  0.00  0.00    +0.002 A 
ATOM     28  C   UNL     1       7.866  -9.507   5.846  0.00  0.00    +0.002 A 
ATOM     29  C   UNL     1       6.664  -8.941   6.216  0.00  0.00    +0.028 A 
ATOM     30  C   UNL     1       6.201  -7.815   5.550  0.00  0.00    +0.066 A 
ATOM     31  N   UNL     1       5.078  -7.022   5.669  0.00  0.00    -0.341 N 
ATOM     32  H   UNL     1       4.356  -7.139   6.306  0.00  0.00    +0.167 HD
ENDBRANCH  22  23
ENDBRANCH  21  22
ENDBRANCH   4  21
TORSDOF 5
