REMARK  Name = ZINC21417560
REMARK  8 active torsions:
REMARK  status: ('A' for Active; 'I' for Inactive)
REMARK    1  A    between atoms: C_1  and  C_2
REMARK    2  A    between atoms: C_2  and  C_3
REMARK    3  A    between atoms: C_8  and  N_9
REMARK    4  A    between atoms: C_10  and  C_12
REMARK    5  A    between atoms: C_12  and  N_13
REMARK    6  A    between atoms: C_14  and  C_16
REMARK    7  A    between atoms: C_16  and  N_17
REMARK    8  A    between atoms: C_21  and  C_23
REMARK                            x       y       z     vdW  Elec       q    Type
REMARK                         _______ _______ _______ _____ _____    ______ ____
ROOT
ATOM      1  N   UNL     1       2.301   1.856  -0.365  0.00  0.00    -0.308 N 
ATOM      2  C   UNL     1       3.550   2.346  -0.243  0.00  0.00    +0.197 C 
ATOM      3  O   UNL     1       3.739   3.382   0.358  0.00  0.00    -0.278 OA
ATOM      4  H   UNL     1       2.130   0.915  -0.910  0.00  0.00    +0.149 HD
ENDROOT
BRANCH   1   5
ATOM      5  C   UNL     1       1.170   2.575   0.226  0.00  0.00    +0.200 C 
BRANCH   5   7
ATOM      6  N   UNL     1      -1.282   2.303   0.395  0.00  0.00    -0.284 N 
ATOM      7  C   UNL     1      -0.105   1.823  -0.052  0.00  0.00    +0.234 C 
ATOM      8  O   UNL     1      -0.073   0.787  -0.682  0.00  0.00    -0.274 OA
ATOM      9  H   UNL     1      -1.303   3.188   1.049  0.00  0.00    +0.155 HD
BRANCH   6  15
ATOM     10  C   UNL     1      -3.633   1.892   0.770  0.00  0.00    -0.026 A 
ATOM     11  C   UNL     1      -4.812   1.273   0.404  0.00  0.00    +0.005 A 
ATOM     12  C   UNL     1      -4.844   0.440  -0.699  0.00  0.00    +0.000 A 
ATOM     13  C   UNL     1      -3.696   0.223  -1.439  0.00  0.00    +0.002 A 
ATOM     14  C   UNL     1      -2.515   0.843  -1.082  0.00  0.00    +0.023 A 
ATOM     15  C   UNL     1      -2.479   1.677   0.028  0.00  0.00    +0.037 A 
BRANCH  10  17
ATOM     16  C   UNL     1      -3.794   4.250   1.521  0.00  0.00    +0.009 C 
ATOM     17  C   UNL     1      -3.599   2.801   1.971  0.00  0.00    +0.033 C 
ENDBRANCH  10  17
ENDBRANCH   6  15
ENDBRANCH   5   7
ENDBRANCH   1   5
BRANCH   2  18
ATOM     18  C   UNL     1       4.713   1.605  -0.851  0.00  0.00    +0.019 C 
BRANCH  18  19
ATOM     19  N   UNL     1       5.936   2.406  -0.701  0.00  0.00    +0.390 N 
ATOM     20  C   UNL     1       5.857   3.649  -1.499  0.00  0.00    -0.077 C 
ATOM     21  C   UNL     1       7.280   3.954  -2.002  0.00  0.00    -0.020 C 
ATOM     22  C   UNL     1       8.154   2.795  -1.468  0.00  0.00    -0.013 C 
ATOM     23  C   UNL     1       7.120   1.670  -1.214  0.00  0.00    -0.037 C 
ATOM     24  H   UNL     1       6.022   2.621   0.374  0.00  0.00    -0.080 HD
BRANCH  23  25
ATOM     25  C   UNL     1       7.632   0.700  -0.180  0.00  0.00    -0.061 A 
ATOM     26  C   UNL     1       7.671   1.067   1.153  0.00  0.00    +0.002 A 
ATOM     27  C   UNL     1       8.136   0.176   2.101  0.00  0.00    +0.000 A 
ATOM     28  C   UNL     1       8.572  -1.078   1.717  0.00  0.00    +0.000 A 
ATOM     29  C   UNL     1       8.539  -1.443   0.384  0.00  0.00    +0.000 A 
ATOM     30  C   UNL     1       8.069  -0.553  -0.565  0.00  0.00    +0.002 A 
ENDBRANCH  23  25
ENDBRANCH  18  19
ENDBRANCH   2  18
TORSDOF 7
