REMARK  Name = ZINC64665074
REMARK  8 active torsions:
REMARK  status: ('A' for Active; 'I' for Inactive)
REMARK    1  A    between atoms: C_1  and  C_2
REMARK    2  A    between atoms: C_7  and  C_8
REMARK    3  A    between atoms: C_8  and  N_9
REMARK    4  A    between atoms: C_13  and  C_14
REMARK    5  A    between atoms: C_14  and  N_15
REMARK    6  A    between atoms: N_15  and  S_16
REMARK    7  A    between atoms: S_16  and  C_19
REMARK    8  A    between atoms: C_22  and  C_25
REMARK                            x       y       z     vdW  Elec       q    Type
REMARK                         _______ _______ _______ _____ _____    ______ ____
ROOT
ATOM      1  N   UNL     1      -1.516  -2.942   3.450  0.00  0.00    -0.184 NA
ATOM      2  H   UNL     1      -2.155  -2.788   2.737  0.00  0.00    +0.148 HD
ENDROOT
BRANCH   1   3
ATOM      3  S   UNL     1      -0.747  -4.404   3.571  0.00  0.00    +0.059 S 
ATOM      4  O   UNL     1      -1.250  -5.216   2.519  0.00  0.00    -0.153 OA
ATOM      5  O   UNL     1       0.638  -4.123   3.722  0.00  0.00    -0.153 OA
BRANCH   3   6
ATOM      6  C   UNL     1      -1.277  -5.148   5.078  0.00  0.00    +0.105 A 
ATOM      7  C   UNL     1      -0.581  -4.910   6.248  0.00  0.00    +0.029 A 
ATOM      8  C   UNL     1      -0.997  -5.494   7.431  0.00  0.00    +0.006 A 
ATOM      9  C   UNL     1      -2.109  -6.315   7.442  0.00  0.00    -0.044 A 
ATOM     10  C   UNL     1      -2.805  -6.552   6.272  0.00  0.00    +0.006 A 
ATOM     11  C   UNL     1      -2.392  -5.965   5.091  0.00  0.00    +0.029 A 
BRANCH   9  12
ATOM     12  C   UNL     1      -2.562  -6.952   8.731  0.00  0.00    +0.019 C 
ATOM     13  C   UNL     1      -2.532  -8.475   8.585  0.00  0.00    +0.008 C 
ATOM     14  C   UNL     1      -2.992  -9.122   9.893  0.00  0.00    +0.001 C 
ATOM     15  C   UNL     1      -4.417  -8.667  10.213  0.00  0.00    +0.000 C 
ATOM     16  C   UNL     1      -4.447  -7.145  10.359  0.00  0.00    +0.001 C 
ATOM     17  C   UNL     1      -3.987  -6.498   9.051  0.00  0.00    +0.008 C 
ENDBRANCH   9  12
ENDBRANCH   3   6
ENDBRANCH   1   3
BRANCH   1  18
ATOM     18  C   UNL     1      -1.231  -1.882   4.420  0.00  0.00    +0.159 C 
BRANCH  18  23
ATOM     19  N   UNL     1      -1.094   0.272   3.048  0.00  0.00    -0.345 N 
ATOM     20  C   UNL     1      -1.888   1.352   2.798  0.00  0.00    +0.086 A 
ATOM     21  C   UNL     1      -3.037   1.198   3.487  0.00  0.00    +0.019 A 
ATOM     22  C   UNL     1      -2.949  -0.021   4.188  0.00  0.00    +0.024 A 
ATOM     23  C   UNL     1      -1.752  -0.569   3.896  0.00  0.00    +0.035 A 
BRANCH  19  24
ATOM     24  C   UNL     1       0.243   0.049   2.492  0.00  0.00    +0.157 C 
BRANCH  24  31
ATOM     25  C   UNL     1      -0.135   1.418  -0.023  0.00  0.00    +0.044 C 
ATOM     26  C   UNL     1      -0.051  -0.086   0.010  0.00  0.00    -0.046 A 
ATOM     27  C   UNL     1      -0.148  -0.811  -1.163  0.00  0.00    +0.004 A 
ATOM     28  C   UNL     1      -0.071  -2.190  -1.132  0.00  0.00    +0.000 A 
ATOM     29  C   UNL     1       0.105  -2.846   0.072  0.00  0.00    +0.000 A 
ATOM     30  C   UNL     1       0.204  -2.122   1.245  0.00  0.00    +0.005 A 
ATOM     31  C   UNL     1       0.130  -0.741   1.214  0.00  0.00    -0.025 A 
ENDBRANCH  24  31
ENDBRANCH  19  24
ENDBRANCH  18  23
ENDBRANCH   1  18
TORSDOF 7
