REMARK  Name = ZINC38994509
REMARK  6 active torsions:
REMARK  status: ('A' for Active; 'I' for Inactive)
REMARK    1  A    between atoms: C_6  and  N_7
REMARK    2  A    between atoms: C_8  and  C_10
REMARK    3  A    between atoms: C_10  and  S_11
REMARK    4  A    between atoms: S_11  and  C_12
REMARK    5  A    between atoms: C_15  and  C_19
REMARK    6  A    between atoms: N_17  and  N_18
REMARK                            x       y       z     vdW  Elec       q    Type
REMARK                         _______ _______ _______ _____ _____    ______ ____
ROOT
ATOM      1  C   UNL     1      -3.721  -5.346  -0.450  0.00  0.00    +0.189 C 
ATOM      2  N   UNL     1      -4.829  -4.685  -0.438  0.00  0.00    -0.161 NA
ATOM      3  N   UNL     1      -5.935  -5.537  -0.543  0.00  0.00    -0.243 N 
ATOM      4  C   UNL     1      -5.393  -6.904  -0.629  0.00  0.00    +0.222 C 
ATOM      5  N   UNL     1      -3.934  -6.711  -0.568  0.00  0.00    -0.223 N 
ATOM      6  H   UNL     1      -6.870  -5.280  -0.555  0.00  0.00    +0.170 HD
ENDROOT
BRANCH   4   7
ATOM      7  C   UNL     1      -5.792  -7.557  -1.954  0.00  0.00    +0.197 C 
ATOM      8  C   UNL     1      -7.299  -7.612  -2.093  0.00  0.00    -0.017 C 
ATOM      9  C   UNL     1      -7.586  -8.911  -2.167  0.00  0.00    +0.065 C 
ATOM     10  C   UNL     1      -9.085  -9.099  -2.312  0.00  0.00    +0.057 C 
ATOM     11  C   UNL     1      -9.704  -7.750  -1.884  0.00  0.00    +0.011 C 
ATOM     12  C   UNL     1      -8.545  -6.769  -2.175  0.00  0.00    +0.035 C 
ATOM     13  N   UNL     1      -6.441  -9.643  -2.088  0.00  0.00    -0.158 NA
ATOM     14  N   UNL     1      -5.406  -8.979  -1.972  0.00  0.00    -0.176 NA
ENDBRANCH   4   7
BRANCH   5  15
ATOM     15  N   UNL     1      -2.979  -7.686  -0.617  0.00  0.00    -0.250 NA
ATOM     16  H   UNL     1      -2.053  -7.288  -0.553  0.00  0.00    +0.141 HD
ATOM     17  H   UNL     1      -3.127  -8.374   0.107  0.00  0.00    +0.141 HD
ENDBRANCH   5  15
BRANCH   1  18
ATOM     18  S   UNL     1      -2.128  -4.602  -0.337  0.00  0.00    -0.078 S 
BRANCH  18  19
ATOM     19  C   UNL     1      -2.480  -2.828  -0.204  0.00  0.00    +0.173 C 
BRANCH  19  21
ATOM     20  N   UNL     1      -1.200  -0.722   0.010  0.00  0.00    -0.285 N 
ATOM     21  C   UNL     1      -1.185  -2.065  -0.099  0.00  0.00    +0.227 C 
ATOM     22  O   UNL     1      -0.128  -2.660  -0.113  0.00  0.00    -0.275 OA
ATOM     23  H   UNL     1      -2.045  -0.252   0.098  0.00  0.00    +0.155 HD
BRANCH  20  29
ATOM     24  C   UNL     1       1.071  -0.454  -0.766  0.00  0.00    +0.026 A 
ATOM     25  C   UNL     1       2.256   0.256  -0.779  0.00  0.00    +0.041 A 
ATOM     26  C   UNL     1       2.379   1.415  -0.033  0.00  0.00    +0.142 A 
ATOM     27  C   UNL     1       1.313   1.867   0.729  0.00  0.00    +0.078 A 
ATOM     28  C   UNL     1       0.126   1.159   0.745  0.00  0.00    +0.046 A 
ATOM     29  C   UNL     1       0.002  -0.004  -0.004  0.00  0.00    +0.035 A 
ATOM     30 CL   UNL     1       1.469   3.321   1.665  0.00  0.00    -0.081 Cl
ATOM     31  F   UNL     1       3.539   2.107  -0.047  0.00  0.00    -0.204 F 
ENDBRANCH  20  29
ENDBRANCH  19  21
ENDBRANCH  18  19
ENDBRANCH   1  18
TORSDOF 6
