REMARK  Name = ZINC46773417
REMARK  5 active torsions:
REMARK  status: ('A' for Active; 'I' for Inactive)
REMARK    1  A    between atoms: C_3  and  N_9
REMARK    2  A    between atoms: N_9  and  C_10
REMARK    3  A    between atoms: C_10  and  N_12
REMARK    4  A    between atoms: N_12  and  N_13
REMARK    5  A    between atoms: C_14  and  C_16
REMARK                            x       y       z     vdW  Elec       q    Type
REMARK                         _______ _______ _______ _____ _____    ______ ____
ROOT
ATOM      1  N   UNL     1       4.725   4.153  -0.225  0.00  0.00    -0.246 N 
ATOM      2  H   UNL     1       4.713   5.121  -0.294  0.00  0.00    +0.172 HD
ENDROOT
BRANCH   1   3
ATOM      3  N   UNL     1       5.945   3.465  -0.240  0.00  0.00    -0.232 N 
ATOM      4  C   UNL     1       7.103   4.147  -0.350  0.00  0.00    +0.270 C 
ATOM      5  O   UNL     1       7.088   5.356  -0.435  0.00  0.00    -0.270 OA
ATOM      6  H   UNL     1       5.957   2.497  -0.172  0.00  0.00    +0.173 HD
BRANCH   4   7
ATOM      7  C   UNL     1       8.415   3.406  -0.366  0.00  0.00    +0.264 C 
ATOM      8  C   UNL     1       8.552   2.562  -1.655  0.00  0.00    +0.093 C 
ATOM      9  C   UNL     1       9.290   3.514  -2.577  0.00  0.00    -0.000 A 
ATOM     10  C   UNL     1       9.490   3.512  -3.939  0.00  0.00    +0.027 A 
ATOM     11  C   UNL     1      10.213   4.532  -4.533  0.00  0.00    +0.041 A 
ATOM     12  C   UNL     1      10.732   5.550  -3.753  0.00  0.00    +0.023 A 
ATOM     13  C   UNL     1      10.534   5.551  -2.388  0.00  0.00    +0.047 A 
ATOM     14  C   UNL     1       9.811   4.526  -1.782  0.00  0.00    +0.125 A 
ATOM     15  O   UNL     1       9.517   4.324  -0.464  0.00  0.00    -0.479 OA
ATOM     16 CL   UNL     1      10.468   4.534  -6.251  0.00  0.00    -0.084 Cl
ENDBRANCH   4   7
ENDBRANCH   1   3
BRANCH   1  17
ATOM     17  C   UNL     1       3.568   3.471  -0.116  0.00  0.00    +0.151 C 
ATOM     18  S   UNL     1       2.077   4.313  -0.098  0.00  0.00    -0.017 S 
BRANCH  17  19
ATOM     19  N   UNL     1       3.584   2.127  -0.021  0.00  0.00    -0.295 N 
ATOM     20  H   UNL     1       4.429   1.656   0.049  0.00  0.00    +0.154 HD
BRANCH  19  23
ATOM     21  C   UNL     1       0.197   1.022  -0.932  0.00  0.00    +0.022 A 
ATOM     22  C   UNL     1       1.383   1.731  -0.932  0.00  0.00    +0.026 A 
ATOM     23  C   UNL     1       2.381   1.410  -0.023  0.00  0.00    +0.051 A 
ATOM     24  C   UNL     1       2.186   0.376   0.884  0.00  0.00    +0.063 A 
ATOM     25  C   UNL     1       0.998  -0.329   0.880  0.00  0.00    +0.041 A 
ATOM     26  C   UNL     1       0.004  -0.007  -0.028  0.00  0.00    +0.042 A 
ATOM     27 CL   UNL     1      -1.488  -0.895  -0.032  0.00  0.00    -0.083 Cl
ATOM     28 CL   UNL     1       3.432  -0.029   2.023  0.00  0.00    -0.082 Cl
ENDBRANCH  19  23
ENDBRANCH  17  19
ENDBRANCH   1  17
TORSDOF 5
