REMARK  Name = ZINC05370767
REMARK  6 active torsions:
REMARK  status: ('A' for Active; 'I' for Inactive)
REMARK    1  A    between atoms: C_4  and  C_7
REMARK    2  A    between atoms: C_8  and  C_9
REMARK    3  A    between atoms: N_13  and  C_17
REMARK    4  A    between atoms: C_17  and  C_18
REMARK    5  A    between atoms: N_20  and  C_21
REMARK    6  A    between atoms: C_26  and  O_27
REMARK                            x       y       z     vdW  Elec       q    Type
REMARK                         _______ _______ _______ _____ _____    ______ ____
ROOT
ATOM      1  C   UNL     1       6.149   3.075  -2.190  0.00  0.00    +0.020 C 
ATOM      2  C   UNL     1       5.387   2.631  -1.149  0.00  0.00    +0.077 C 
ATOM      3  C   UNL     1       4.187   1.774  -1.161  0.00  0.00    +0.259 C 
ATOM      4  O   UNL     1       3.720   1.342  -2.200  0.00  0.00    -0.269 OA
ATOM      5  N   UNL     1       3.640   1.501   0.012  0.00  0.00    -0.246 N 
ATOM      6  C   UNL     1       4.164   1.976   1.160  0.00  0.00    +0.121 C 
ATOM      7  S   UNL     1       3.612   1.731   2.762  0.00  0.00    -0.027 S 
ATOM      8  S   UNL     1       5.573   2.922   0.605  0.00  0.00    -0.061 S 
ENDROOT
BRANCH   1  10
ATOM      9  C   UNL     1       8.027   4.332  -2.977  0.00  0.00    +0.008 C 
ATOM     10  C   UNL     1       7.271   3.891  -1.944  0.00  0.00    +0.002 C 
BRANCH   9  14
ATOM     11  C   UNL     1      11.403   6.788  -2.236  0.00  0.00    +0.000 A 
ATOM     12  C   UNL     1      11.078   6.439  -3.536  0.00  0.00    +0.001 A 
ATOM     13  C   UNL     1       9.982   5.641  -3.785  0.00  0.00    +0.008 A 
ATOM     14  C   UNL     1       9.198   5.183  -2.720  0.00  0.00    -0.025 A 
ATOM     15  C   UNL     1       9.531   5.545  -1.410  0.00  0.00    +0.008 A 
ATOM     16  C   UNL     1      10.633   6.339  -1.177  0.00  0.00    +0.001 A 
ENDBRANCH   9  14
ENDBRANCH   1  10
BRANCH   5  17
ATOM     17  C   UNL     1       2.443   0.659   0.065  0.00  0.00    +0.211 C 
BRANCH  17  18
ATOM     18  C   UNL     1       1.214   1.527  -0.023  0.00  0.00    +0.235 C 
ATOM     19  O   UNL     1       1.327   2.731  -0.120  0.00  0.00    -0.274 OA
ATOM     20  N   UNL     1      -0.011   0.966   0.007  0.00  0.00    -0.281 N 
ATOM     21  H   UNL     1      -0.102   0.000   0.021  0.00  0.00    +0.155 HD
BRANCH  20  22
ATOM     22  C   UNL     1      -1.153   1.777   0.014  0.00  0.00    +0.075 A 
ATOM     23  C   UNL     1      -1.160   2.974  -0.688  0.00  0.00    +0.027 A 
ATOM     24  C   UNL     1      -2.290   3.770  -0.684  0.00  0.00    +0.002 A 
ATOM     25  C   UNL     1      -3.411   3.382   0.026  0.00  0.00    +0.004 A 
ATOM     26  C   UNL     1      -3.410   2.193   0.732  0.00  0.00    +0.047 A 
ATOM     27  C   UNL     1      -2.283   1.387   0.729  0.00  0.00    +0.138 A 
BRANCH  27  28
ATOM     28  O   UNL     1      -2.281   0.217   1.422  0.00  0.00    -0.505 OA
ATOM     29  H   UNL     1      -1.975   0.302   2.335  0.00  0.00    +0.292 HD
ENDBRANCH  27  28
ENDBRANCH  20  22
ENDBRANCH  17  18
ENDBRANCH   5  17
TORSDOF 6
