REMARK  Name = ZINC63214470
REMARK  4 active torsions:
REMARK  status: ('A' for Active; 'I' for Inactive)
REMARK    1  A    between atoms: C_3  and  N_11
REMARK    2  A    between atoms: C_4  and  N_8
REMARK    3  A    between atoms: N_11  and  C_12
REMARK    4  A    between atoms: C_19  and  N_21
REMARK                            x       y       z     vdW  Elec       q    Type
REMARK                         _______ _______ _______ _____ _____    ______ ____
ROOT
ATOM      1  N   UNL     1       3.426   2.020  -0.191  0.00  0.00    -0.341 N 
ATOM      2  H   UNL     1       4.268   1.545  -0.112  0.00  0.00    +0.146 HD
ENDROOT
BRANCH   1   5
ATOM      3  C   UNL     1      -0.179   1.306  -0.113  0.00  0.00    +0.017 A 
ATOM      4  C   UNL     1       1.012   2.004  -0.157  0.00  0.00    +0.026 A 
ATOM      5  C   UNL     1       2.219   1.317  -0.147  0.00  0.00    +0.058 A 
ATOM      6  C   UNL     1       2.225  -0.071  -0.095  0.00  0.00    +0.148 A 
ATOM      7  C   UNL     1       1.031  -0.764  -0.052  0.00  0.00    +0.050 A 
ATOM      8  C   UNL     1      -0.170  -0.076  -0.061  0.00  0.00    +0.020 A 
ATOM      9 BR   UNL     1      -1.803  -1.029  -0.002  0.00  0.00    -0.050 Br
BRANCH   6  10
ATOM     10  N   UNL     1       3.509  -0.807  -0.086  0.00  0.00    +0.058 N 
ATOM     11  O   UNL     1       3.613  -1.849  -0.690  0.00  0.00    -0.126 OA
ATOM     12  O   UNL     1       4.454  -0.366   0.526  0.00  0.00    -0.126 OA
ENDBRANCH   6  10
ENDBRANCH   1   5
BRANCH   1  13
ATOM     13  C   UNL     1       3.419   3.476  -0.357  0.00  0.00    +0.056 C 
ATOM     14  C   UNL     1       3.291   4.135   1.029  0.00  0.00    +0.020 C 
ATOM     15  C   UNL     1       3.699   5.621   1.024  0.00  0.00    +0.002 C 
ATOM     16  C   UNL     1       3.189   6.354  -0.186  0.00  0.00    +0.000 C 
ATOM     17  C   UNL     1       4.290   6.344  -1.266  0.00  0.00    -0.002 C 
ATOM     18  C   UNL     1       4.342   5.085  -1.994  0.00  0.00    -0.014 C 
ATOM     19  C   UNL     1       4.675   3.890  -1.076  0.00  0.00    -0.055 C 
BRANCH  19  20
ATOM     20  N   UNL     1       5.172   2.769  -1.886  0.00  0.00    +0.381 N 
ATOM     21  H   UNL     1       4.431   2.431  -2.482  0.00  0.00    -0.090 HD
ATOM     22  H   UNL     1       5.945   3.082  -2.454  0.00  0.00    -0.090 HD
ATOM     23  H   UNL     1       5.481   2.026  -1.278  0.00  0.00    -0.090 HD
ENDBRANCH  19  20
ENDBRANCH   1  13
TORSDOF 4
