REMARK  Name = ZINC42078828
REMARK  3 active torsions:
REMARK  status: ('A' for Active; 'I' for Inactive)
REMARK    1  A    between atoms: C_7  and  N_12
REMARK    2  A    between atoms: N_12  and  C_13
REMARK    3  A    between atoms: C_13  and  C_14
REMARK                            x       y       z     vdW  Elec       q    Type
REMARK                         _______ _______ _______ _____ _____    ______ ____
ROOT
ATOM      1  C   UNL     1      -0.017   1.372   0.010  0.00  0.00    +0.042 A 
ATOM      2  C   UNL     1       1.175   2.080   0.002  0.00  0.00    +0.125 A 
ATOM      3  C   UNL     1       2.380   1.398  -0.013  0.00  0.00    +0.055 A 
ATOM      4  C   UNL     1       2.400   0.017  -0.021  0.00  0.00    +0.042 A 
ATOM      5  C   UNL     1       1.204  -0.700  -0.014  0.00  0.00    +0.050 A 
ATOM      6  C   UNL     1       0.002  -0.004   0.002  0.00  0.00    -0.028 A 
ATOM      7  C   UNL     1      -1.093  -1.046   0.006  0.00  0.00    +0.049 C 
ATOM      8  C   UNL     1      -0.347  -2.364  -0.008  0.00  0.00    +0.208 C 
ATOM      9  O   UNL     1      -0.842  -3.471  -0.010  0.00  0.00    -0.277 OA
ATOM     10  N   UNL     1       0.965  -2.076  -0.020  0.00  0.00    -0.285 N 
ATOM     11 BR   UNL     1       4.051  -0.903  -0.043  0.00  0.00    -0.048 Br
ATOM     12  F   UNL     1       1.162   3.431   0.009  0.00  0.00    -0.205 F 
ATOM     13  H   UNL     1       1.666  -2.747  -0.031  0.00  0.00    +0.155 HD
ENDROOT
BRANCH   7  14
ATOM     14  N   UNL     1      -1.933  -0.914  -1.191  0.00  0.00    +0.390 N 
ATOM     15  H   UNL     1      -2.288   0.028  -1.251  0.00  0.00    -0.084 HD
ATOM     16  H   UNL     1      -1.384  -1.120  -2.012  0.00  0.00    -0.084 HD
BRANCH  14  17
ATOM     17  C   UNL     1      -3.058  -1.856  -1.106  0.00  0.00    -0.075 C 
BRANCH  17  18
ATOM     18  C   UNL     1      -3.933  -1.719  -2.353  0.00  0.00    -0.002 C 
ATOM     19  C   UNL     1      -5.035  -2.782  -2.324  0.00  0.00    +0.006 C 
ATOM     20  C   UNL     1      -5.951  -2.586  -3.536  0.00  0.00    +0.028 C 
ATOM     21  C   UNL     1      -6.516  -1.163  -3.514  0.00  0.00    +0.160 C 
ATOM     22  O   UNL     1      -5.439  -0.224  -3.511  0.00  0.00    -0.380 OA
ATOM     23  C   UNL     1      -4.575  -0.329  -2.377  0.00  0.00    +0.161 C 
ENDBRANCH  17  18
ENDBRANCH  14  17
ENDBRANCH   7  14
TORSDOF 3
