REMARK  Name = ZINC06720107
REMARK  6 active torsions:
REMARK  status: ('A' for Active; 'I' for Inactive)
REMARK    1  A    between atoms: C_1  and  C_2
REMARK    2  A    between atoms: C_2  and  C_22
REMARK    3  A    between atoms: N_3  and  N_4
REMARK    4  A    between atoms: C_5  and  C_7
REMARK    5  A    between atoms: C_7  and  C_8
REMARK    6  A    between atoms: C_8  and  N_9
REMARK                            x       y       z     vdW  Elec       q    Type
REMARK                         _______ _______ _______ _____ _____    ______ ____
ROOT
ATOM      1  C   UNL     1      -4.828   1.308   0.032  0.00  0.00    +0.119 C 
ENDROOT
BRANCH   1   3
ATOM      2  N   UNL     1      -2.357   1.421   0.021  0.00  0.00    -0.207 N 
ATOM      3  C   UNL     1      -3.534   2.079   0.030  0.00  0.00    +0.234 C 
ATOM      4  O   UNL     1      -3.550   3.292   0.037  0.00  0.00    -0.274 OA
ATOM      5  H   UNL     1      -2.342   0.321   0.015  0.00  0.00    +0.177 HD
BRANCH   2   8
ATOM      6  C   UNL     1       0.002  -0.004   0.002  0.00  0.00    +0.068 C 
ATOM      7  C   UNL     1      -0.018   1.503   0.010  0.00  0.00    +0.070 C 
ATOM      8  N   UNL     1      -1.154   2.138   0.019  0.00  0.00    -0.184 NA
BRANCH   7   9
ATOM      9  C   UNL     1       1.241   2.253   0.002  0.00  0.00    +0.036 A 
ATOM     10  C   UNL     1       1.441   3.623   0.002  0.00  0.00    +0.019 A 
ATOM     11  C   UNL     1       2.732   4.095  -0.003  0.00  0.00    +0.028 A 
ATOM     12  C   UNL     1       3.764   3.209  -0.018  0.00  0.00    +0.079 A 
ATOM     13  S   UNL     1       2.917   1.638  -0.018  0.00  0.00    -0.076 S 
ATOM     14 CL   UNL     1       5.471   3.526  -0.034  0.00  0.00    -0.076 Cl
ENDBRANCH   7   9
ENDBRANCH   2   8
ENDBRANCH   1   3
BRANCH   1  15
ATOM     15  C   UNL     1      -6.005   2.286   0.043  0.00  0.00    +0.131 C 
BRANCH  15  16
ATOM     16  N   UNL     1      -7.263   1.536   0.045  0.00  0.00    -0.343 N 
ATOM     17  C   UNL     1      -7.938   1.126   1.174  0.00  0.00    +0.050 A 
ATOM     18  C   UNL     1      -7.692   1.262   2.537  0.00  0.00    +0.026 A 
ATOM     19  C   UNL     1      -8.576   0.729   3.449  0.00  0.00    +0.002 A 
ATOM     20  C   UNL     1      -9.712   0.054   3.022  0.00  0.00    +0.001 A 
ATOM     21  C   UNL     1      -9.973  -0.091   1.689  0.00  0.00    +0.010 A 
ATOM     22  C   UNL     1      -9.091   0.441   0.746  0.00  0.00    +0.003 A 
ATOM     23  C   UNL     1      -9.056   0.475  -0.713  0.00  0.00    -0.019 A 
ATOM     24  C   UNL     1      -7.945   1.146  -1.073  0.00  0.00    +0.023 A 
ATOM     25  C   UNL     1      -7.542   1.389  -2.509  0.00  0.00    +0.054 C 
ATOM     26  C   UNL     1      -8.335   0.433  -3.408  0.00  0.00    +0.006 C 
ATOM     27  C   UNL     1      -9.823   0.518  -3.057  0.00  0.00    +0.005 C 
ATOM     28  C   UNL     1     -10.055  -0.111  -1.677  0.00  0.00    +0.037 C 
ENDBRANCH  15  16
ENDBRANCH   1  15
TORSDOF 5
