REMARK  Name = ZINC53363386
REMARK  5 active torsions:
REMARK  status: ('A' for Active; 'I' for Inactive)
REMARK    1  A    between atoms: C_1  and  C_2
REMARK    2  A    between atoms: C_5  and  C_8
REMARK    3  A    between atoms: C_11  and  C_23
REMARK    4  A    between atoms: C_14  and  C_16
REMARK    5  A    between atoms: C_28  and  O_29
REMARK                            x       y       z     vdW  Elec       q    Type
REMARK                         _______ _______ _______ _____ _____    ______ ____
ROOT
ATOM      1  C   UNL     1       0.059  -4.275  -0.021  0.00  0.00    +0.204 C 
ATOM      2  N   UNL     1       0.753  -4.757   1.179  0.00  0.00    -0.284 NA
ATOM      3  C   UNL     1       2.189  -4.439   1.098  0.00  0.00    +0.095 C 
ATOM      4  C   UNL     1       2.801  -5.277  -0.028  0.00  0.00    +0.079 C 
ATOM      5  C   UNL     1       1.936  -5.179  -1.254  0.00  0.00    +0.047 C 
ATOM      6  N   UNL     1       0.735  -4.740  -1.226  0.00  0.00    -0.264 NA
ATOM      7  H   UNL     1       0.343  -4.366   2.014  0.00  0.00    +0.125 HD
ENDROOT
BRANCH   1  12
ATOM      8  C   UNL     1      -0.018   1.503   0.010  0.00  0.00    +0.044 C 
ATOM      9  C   UNL     1       0.002  -0.004   0.002  0.00  0.00    -0.050 A 
ATOM     10  C   UNL     1       0.006  -0.689  -1.199  0.00  0.00    +0.004 A 
ATOM     11  C   UNL     1       0.025  -2.071  -1.206  0.00  0.00    +0.007 A 
ATOM     12  C   UNL     1       0.040  -2.768  -0.013  0.00  0.00    -0.009 A 
ATOM     13  C   UNL     1       0.037  -2.084   1.188  0.00  0.00    +0.007 A 
ATOM     14  C   UNL     1       0.023  -0.702   1.195  0.00  0.00    +0.004 A 
ENDBRANCH   1  12
BRANCH   5  15
ATOM     15  C   UNL     1       2.499  -5.607  -2.549  0.00  0.00    -0.003 A 
ATOM     16  C   UNL     1       3.806  -6.097  -2.618  0.00  0.00    +0.010 A 
ATOM     17  C   UNL     1       4.326  -6.496  -3.831  0.00  0.00    +0.002 A 
ATOM     18  C   UNL     1       3.558  -6.413  -4.979  0.00  0.00    +0.015 A 
ATOM     19  C   UNL     1       2.262  -5.929  -4.918  0.00  0.00    +0.018 A 
ATOM     20  C   UNL     1       1.727  -5.531  -3.709  0.00  0.00    +0.025 A 
ATOM     21 BR   UNL     1       1.221  -5.818  -6.493  0.00  0.00    -0.050 Br
ENDBRANCH   5  15
BRANCH   3  22
ATOM     22  C   UNL     1       2.859  -4.777   2.406  0.00  0.00    +0.011 A 
ATOM     23  C   UNL     1       2.313  -5.738   3.235  0.00  0.00    +0.009 A 
ATOM     24  C   UNL     1       2.926  -6.047   4.434  0.00  0.00    +0.001 A 
ATOM     25  C   UNL     1       4.088  -5.397   4.807  0.00  0.00    +0.004 A 
ATOM     26  C   UNL     1       4.638  -4.435   3.982  0.00  0.00    +0.046 A 
ATOM     27  C   UNL     1       4.027  -4.127   2.775  0.00  0.00    +0.122 A 
BRANCH  27  28
ATOM     28  O   UNL     1       4.570  -3.185   1.959  0.00  0.00    -0.506 OA
ATOM     29  H   UNL     1       4.251  -2.288   2.127  0.00  0.00    +0.292 HD
ENDBRANCH  27  28
ENDBRANCH   3  22
TORSDOF 4
