REMARK  Name = ZINC37033806
REMARK  7 active torsions:
REMARK  status: ('A' for Active; 'I' for Inactive)
REMARK    1  A    between atoms: C_1  and  C_2
REMARK    2  A    between atoms: C_2  and  C_3
REMARK    3  A    between atoms: C_3  and  C_5
REMARK    4  A    between atoms: C_3  and  C_6
REMARK    5  A    between atoms: C_6  and  C_8
REMARK    6  A    between atoms: C_6  and  N_22
REMARK    7  A    between atoms: N_10  and  C_11
REMARK                            x       y       z     vdW  Elec       q    Type
REMARK                         _______ _______ _______ _____ _____    ______ ____
ROOT
ATOM      1  C   UNL     1      -2.428  -3.451  -0.684  0.00  0.00    +0.203 C 
ATOM      2  O   UNL     1      -2.570  -4.593  -0.302  0.00  0.00    -0.277 OA
ATOM      3  N   UNL     1      -3.506  -2.712  -1.016  0.00  0.00    -0.284 N 
ATOM      4  H   UNL     1      -3.399  -1.778  -1.253  0.00  0.00    +0.155 HD
ENDROOT
BRANCH   3   5
ATOM      5  C   UNL     1      -4.777  -3.293  -1.019  0.00  0.00    +0.080 A 
ATOM      6  C   UNL     1      -5.290  -3.803  -2.172  0.00  0.00    +0.066 A 
ATOM      7  C   UNL     1      -6.555  -4.389  -2.208  0.00  0.00    +0.044 A 
ATOM      8  C   UNL     1      -7.328  -4.476  -1.098  0.00  0.00    +0.071 A 
ATOM      9  C   UNL     1      -6.859  -3.965   0.144  0.00  0.00    +0.120 A 
ATOM     10  C   UNL     1      -5.535  -3.357   0.189  0.00  0.00    +0.124 A 
ATOM     11  N   UNL     1      -5.199  -2.919   1.402  0.00  0.00    -0.189 NA
ATOM     12  S   UNL     1      -6.449  -3.268   2.351  0.00  0.00    +0.117 S 
ATOM     13  N   UNL     1      -7.476  -3.965   1.327  0.00  0.00    -0.189 NA
ATOM     14 CL   UNL     1      -8.896  -5.215  -1.192  0.00  0.00    -0.081 Cl
ATOM     15 CL   UNL     1      -4.350  -3.722  -3.629  0.00  0.00    -0.082 Cl
ENDBRANCH   3   5
BRANCH   1  16
ATOM     16  C   UNL     1      -1.047  -2.857  -0.789  0.00  0.00    +0.016 C 
BRANCH  16  17
ATOM     17  N   UNL     1      -0.053  -3.937  -0.848  0.00  0.00    +0.386 N 
ATOM     18  H   UNL     1      -0.116  -4.498  -0.011  0.00  0.00    -0.089 HD
ATOM     19  H   UNL     1      -0.232  -4.516  -1.655  0.00  0.00    -0.089 HD
ATOM     20  H   UNL     1       0.872  -3.540  -0.917  0.00  0.00    -0.089 HD
ENDBRANCH  16  17
BRANCH  16  21
ATOM     21  C   UNL     1      -0.775  -1.980   0.435  0.00  0.00    -0.020 C 
ATOM     22  C   UNL     1      -1.810  -0.855   0.496  0.00  0.00    +0.006 C 
BRANCH  21  24
ATOM     23  C   UNL     1       0.948  -0.602   1.609  0.00  0.00    +0.004 C 
ATOM     24  C   UNL     1       0.628  -1.377   0.329  0.00  0.00    -0.001 C 
ENDBRANCH  21  24
ENDBRANCH  16  21
ENDBRANCH   1  16
TORSDOF 5
