REMARK  Name = ZINC14549759
REMARK  6 active torsions:
REMARK  status: ('A' for Active; 'I' for Inactive)
REMARK    1  A    between atoms: C_1  and  C_2
REMARK    2  A    between atoms: C_6  and  C_35
REMARK    3  A    between atoms: C_7  and  N_8
REMARK    4  A    between atoms: N_8  and  S_9
REMARK    5  A    between atoms: S_9  and  C_12
REMARK    6  A    between atoms: C_25  and  C_28
REMARK                            x       y       z     vdW  Elec       q    Type
REMARK                         _______ _______ _______ _____ _____    ______ ____
ROOT
ATOM      1  C   UNL     1       0.565  -2.210  -0.145  0.00  0.00    +0.109 A 
ATOM      2  C   UNL     1      -0.558  -1.404  -0.191  0.00  0.00    +0.030 A 
ATOM      3  C   UNL     1      -0.433  -0.053  -0.441  0.00  0.00    +0.025 A 
ATOM      4  C   UNL     1       0.822   0.509  -0.648  0.00  0.00    +0.031 A 
ATOM      5  C   UNL     1       1.952  -0.315  -0.614  0.00  0.00    -0.018 A 
ATOM      6  C   UNL     1       1.817  -1.662  -0.356  0.00  0.00    +0.034 A 
ATOM      7  C   UNL     1       3.264   0.314  -0.882  0.00  0.00    +0.049 C 
ATOM      8  C   UNL     1       4.529  -0.250  -0.345  0.00  0.00    -0.023 C 
ATOM      9  C   UNL     1       5.378   0.746  -0.126  0.00  0.00    -0.030 C 
ATOM     10  C   UNL     1       4.719   2.082  -0.476  0.00  0.00    +0.033 C 
ATOM     11  C   UNL     1       3.233   1.753  -0.284  0.00  0.00    +0.029 C 
ATOM     12  C   UNL     1       2.237   2.522  -1.132  0.00  0.00    +0.105 C 
ATOM     13  N   UNL     1       0.926   1.885  -0.884  0.00  0.00    -0.336 N 
ATOM     14  H   UNL     1       0.123   2.429  -0.888  0.00  0.00    +0.147 HD
ENDROOT
BRANCH  12  15
ATOM     15  C   UNL     1       2.201   3.969  -0.710  0.00  0.00    -0.027 A 
ATOM     16  C   UNL     1       1.537   4.334   0.446  0.00  0.00    +0.008 A 
ATOM     17  C   UNL     1       1.508   5.659   0.837  0.00  0.00    +0.038 A 
ATOM     18  C   UNL     1       2.135   6.622   0.065  0.00  0.00    +0.123 A 
ATOM     19  C   UNL     1       2.796   6.256  -1.095  0.00  0.00    +0.038 A 
ATOM     20  C   UNL     1       2.828   4.929  -1.481  0.00  0.00    +0.008 A 
ATOM     21  F   UNL     1       2.102   7.919   0.444  0.00  0.00    -0.205 F 
ENDBRANCH  12  15
BRANCH   1  22
ATOM     22  S   UNL     1       0.400  -3.933   0.184  0.00  0.00    +0.072 S 
ATOM     23  O   UNL     1       1.680  -4.391   0.598  0.00  0.00    -0.150 OA
ATOM     24  O   UNL     1      -0.761  -4.084   0.989  0.00  0.00    -0.150 OA
BRANCH  22  25
ATOM     25  N   UNL     1       0.075  -4.678  -1.259  0.00  0.00    -0.216 N 
ATOM     26  H   UNL     1      -0.785  -5.103  -1.402  0.00  0.00    +0.174 HD
BRANCH  25  33
ATOM     27  C   UNL     1      -0.270  -2.920  -3.469  0.00  0.00    +0.046 C 
ATOM     28  C   UNL     1       0.910  -3.851  -3.367  0.00  0.00    -0.028 A 
ATOM     29  C   UNL     1       1.868  -3.866  -4.363  0.00  0.00    +0.005 A 
ATOM     30  C   UNL     1       2.948  -4.725  -4.273  0.00  0.00    +0.001 A 
ATOM     31  C   UNL     1       3.076  -5.568  -3.184  0.00  0.00    +0.005 A 
ATOM     32  C   UNL     1       2.125  -5.555  -2.183  0.00  0.00    -0.028 A 
ATOM     33  C   UNL     1       1.039  -4.693  -2.270  0.00  0.00    +0.054 A 
ATOM     34  C   UNL     1       2.266  -6.473  -0.996  0.00  0.00    +0.046 C 
ENDBRANCH  25  33
ENDBRANCH  22  25
ENDBRANCH   1  22
TORSDOF 4
