REMARK  Name = ZINC20834239
REMARK  9 active torsions:
REMARK  status: ('A' for Active; 'I' for Inactive)
REMARK    1  A    between atoms: C_1  and  N_2
REMARK    2  A    between atoms: N_5  and  S_8
REMARK    3  A    between atoms: S_8  and  C_11
REMARK    4  A    between atoms: C_14  and  N_17
REMARK    5  A    between atoms: C_18  and  C_20
REMARK    6  A    between atoms: C_20  and  S_21
REMARK    7  A    between atoms: S_21  and  C_22
REMARK    8  A    between atoms: N_27  and  N_28
REMARK    9  A    between atoms: C_29  and  C_30
REMARK                            x       y       z     vdW  Elec       q    Type
REMARK                         _______ _______ _______ _____ _____    ______ ____
ROOT
ATOM      1  N   UNL     1       3.408   0.303   6.228  0.00  0.00    -0.285 N 
ATOM      2  C   UNL     1       3.254   0.759   7.487  0.00  0.00    +0.227 C 
ATOM      3  O   UNL     1       2.163   1.129   7.869  0.00  0.00    -0.275 OA
ATOM      4  H   UNL     1       4.374  -0.113   5.908  0.00  0.00    +0.155 HD
ENDROOT
BRANCH   1   8
ATOM      5  C   UNL     1       0.222   0.468   3.548  0.00  0.00    +0.106 A 
ATOM      6  C   UNL     1       1.128  -0.575   3.480  0.00  0.00    +0.030 A 
ATOM      7  C   UNL     1       2.188  -0.630   4.364  0.00  0.00    +0.025 A 
ATOM      8  C   UNL     1       2.337   0.358   5.328  0.00  0.00    +0.034 A 
ATOM      9  C   UNL     1       1.423   1.401   5.397  0.00  0.00    +0.025 A 
ATOM     10  C   UNL     1       0.368   1.453   4.507  0.00  0.00    +0.030 A 
BRANCH   5  11
ATOM     11  S   UNL     1      -1.125   0.537   2.414  0.00  0.00    +0.061 S 
ATOM     12  O   UNL     1      -2.141   1.311   3.038  0.00  0.00    -0.153 OA
ATOM     13  O   UNL     1      -1.348  -0.793   1.966  0.00  0.00    -0.153 OA
BRANCH  11  18
ATOM     14  C   UNL     1      -1.207   3.102  -2.696  0.00  0.00    -0.096 C 
ATOM     15  N   UNL     1      -0.693   2.639  -1.400  0.00  0.00    +0.380 N 
ATOM     16  C   UNL     1      -0.685   1.172  -1.331  0.00  0.00    -0.062 C 
ATOM     17  C   UNL     1       0.022   0.728  -0.046  0.00  0.00    +0.091 C 
ATOM     18  N   UNL     1      -0.613   1.401   1.098  0.00  0.00    -0.180 NA
ATOM     19  C   UNL     1      -0.786   2.861   1.037  0.00  0.00    +0.091 C 
ATOM     20  C   UNL     1      -1.461   3.220  -0.291  0.00  0.00    -0.062 C 
ATOM     21  H   UNL     1       0.347   2.984  -1.304  0.00  0.00    -0.082 HD
ENDBRANCH  11  18
ENDBRANCH   5  11
ENDBRANCH   1   8
BRANCH   2  22
ATOM     22  C   UNL     1       4.436   0.811   8.420  0.00  0.00    +0.173 C 
BRANCH  22  23
ATOM     23  S   UNL     1       3.910   1.466  10.027  0.00  0.00    -0.075 S 
BRANCH  23  24
ATOM     24  C   UNL     1       5.385   1.464  10.992  0.00  0.00    +0.211 A 
ATOM     25  N   UNL     1       5.496   1.875  12.290  0.00  0.00    -0.186 NA
ATOM     26  C   UNL     1       6.799   1.715  12.674  0.00  0.00    +0.232 A 
ATOM     27  N   UNL     1       7.464   1.226  11.655  0.00  0.00    -0.245 N 
ATOM     28  N   UNL     1       6.567   1.061  10.591  0.00  0.00    -0.144 NA
ATOM     29  N   UNL     1       7.324   2.018  13.921  0.00  0.00    -0.205 N 
ATOM     30  H   UNL     1       6.673   2.427  14.707  0.00  0.00    +0.177 HD
ATOM     31  H   UNL     1       8.541   1.023  11.748  0.00  0.00    +0.192 HD
BRANCH  29  32
ATOM     32  N   UNL     1       8.684   1.803  14.179  0.00  0.00    -0.187 NA
ATOM     33  C   UNL     1       9.177   2.087  15.349  0.00  0.00    +0.145 C 
BRANCH  33  34
ATOM     34  C   UNL     1      10.602   1.863  15.619  0.00  0.00    +0.032 A 
ATOM     35  C   UNL     1      11.317   2.095  16.781  0.00  0.00    +0.017 A 
ATOM     36  C   UNL     1      12.661   1.800  16.791  0.00  0.00    +0.008 A 
ATOM     37  C   UNL     1      13.239   1.296  15.671  0.00  0.00    +0.046 A 
ATOM     38  S   UNL     1      11.863   1.211  14.537  0.00  0.00    -0.096 S 
ENDBRANCH  33  34
ENDBRANCH  29  32
ENDBRANCH  23  24
ENDBRANCH  22  23
ENDBRANCH   2  22
TORSDOF 8
