REMARK  Name = ZINC36108422
REMARK  10 active torsions:
REMARK  status: ('A' for Active; 'I' for Inactive)
REMARK    1  A    between atoms: C_1  and  C_2
REMARK    2  A    between atoms: C_7  and  C_9
REMARK    3  A    between atoms: C_7  and  C_10
REMARK    4  A    between atoms: N_11  and  C_13
REMARK    5  A    between atoms: C_13  and  C_15
REMARK    6  A    between atoms: C_13  and  C_17
REMARK    7  A    between atoms: C_15  and  N_16
REMARK    8  A    between atoms: C_20  and  N_23
REMARK    9  A    between atoms: N_23  and  C_24
REMARK   10  A    between atoms: N_23  and  C_25
REMARK                            x       y       z     vdW  Elec       q    Type
REMARK                         _______ _______ _______ _____ _____    ______ ____
ROOT
ATOM      1  C   UNL     1      -2.116  -2.877  -0.597  0.00  0.00    +0.070 C 
ENDROOT
BRANCH   1  11
ATOM      2  C   UNL     1      -0.014   1.581  -0.233  0.00  0.00    +0.012 C 
ATOM      3  C   UNL     1       0.019   0.047  -0.173  0.00  0.00    -0.017 C 
ATOM      4  C   UNL     1       0.688  -0.581  -1.426  0.00  0.00    +0.026 C 
ATOM      5  C   UNL     1       0.074  -2.007  -1.356  0.00  0.00    +0.058 C 
ATOM      6  C   UNL     1       0.758  -2.747  -0.221  0.00  0.00    +0.025 C 
ATOM      7  C   UNL     1       0.945  -1.987   1.074  0.00  0.00    -0.033 C 
ATOM      8  C   UNL     1       0.784  -0.481   1.040  0.00  0.00    +0.014 C 
ATOM      9  C   UNL     1       0.007  -2.570   2.149  0.00  0.00    +0.011 C 
ATOM     10  C   UNL     1       2.387  -2.277   1.567  0.00  0.00    +0.011 C 
ATOM     11  N   UNL     1      -1.344  -1.738  -1.059  0.00  0.00    -0.294 NA
ATOM     12  C   UNL     1      -1.399  -0.570  -0.168  0.00  0.00    +0.092 C 
ENDBRANCH   1  11
BRANCH   1  13
ATOM     13  C   UNL     1      -2.135  -3.938  -1.666  0.00  0.00    -0.032 A 
ATOM     14  C   UNL     1      -2.262  -3.577  -2.995  0.00  0.00    +0.007 A 
ATOM     15  C   UNL     1      -2.280  -4.547  -3.977  0.00  0.00    +0.023 A 
ATOM     16  C   UNL     1      -2.170  -5.887  -3.630  0.00  0.00    +0.029 A 
ATOM     17  C   UNL     1      -2.042  -6.247  -2.294  0.00  0.00    +0.023 A 
ATOM     18  C   UNL     1      -2.019  -5.272  -1.317  0.00  0.00    +0.007 A 
BRANCH  16  19
ATOM     19  N   UNL     1      -2.188  -6.871  -4.621  0.00  0.00    -0.336 N 
ATOM     20  C   UNL     1      -2.457  -6.503  -6.014  0.00  0.00    +0.129 C 
ATOM     21  C   UNL     1      -1.938  -8.271  -4.269  0.00  0.00    +0.129 C 
ENDBRANCH  16  19
ENDBRANCH   1  13
BRANCH   1  22
ATOM     22  C   UNL     1      -3.548  -2.433  -0.293  0.00  0.00    -0.063 C 
BRANCH  22  23
ATOM     23  N   UNL     1      -4.293  -3.553   0.298  0.00  0.00    +0.379 N 
ATOM     24  H   UNL     1      -5.254  -3.280   0.439  0.00  0.00    -0.090 HD
ATOM     25  H   UNL     1      -4.256  -4.346  -0.324  0.00  0.00    -0.090 HD
ATOM     26  H   UNL     1      -3.881  -3.800   1.185  0.00  0.00    -0.090 HD
ENDBRANCH  22  23
ENDBRANCH   1  22
TORSDOF 5
