REMARK  Name = ZINC09245667
REMARK  14 active torsions:
REMARK  status: ('A' for Active; 'I' for Inactive)
REMARK    1  A    between atoms: C_1  and  C_2
REMARK    2  A    between atoms: C_2  and  O_3
REMARK    3  A    between atoms: O_3  and  C_4
REMARK    4  A    between atoms: C_4  and  C_6
REMARK    5  A    between atoms: C_8  and  C_28
REMARK    6  A    between atoms: C_10  and  C_23
REMARK    7  A    between atoms: C_11  and  N_16
REMARK    8  A    between atoms: C_13  and  C_14
REMARK    9  A    between atoms: C_13  and  O_15
REMARK   10  A    between atoms: N_16  and  C_17
REMARK   11  A    between atoms: C_23  and  O_25
REMARK   12  A    between atoms: O_25  and  C_26
REMARK   13  A    between atoms: C_26  and  C_27
REMARK   14  A    between atoms: C_31  and  N_34
REMARK                            x       y       z     vdW  Elec       q    Type
REMARK                         _______ _______ _______ _____ _____    ______ ____
ROOT
ATOM      1  C   UNL     1      -3.492   7.505   0.714  0.00  0.00    +0.141 C 
ATOM      2  C   UNL     1      -3.717   6.038   0.343  0.00  0.00    +0.074 C 
ATOM      3  C   UNL     1      -2.401   5.324   0.230  0.00  0.00    +0.062 C 
ATOM      4  C   UNL     1      -1.228   5.955   0.106  0.00  0.00    +0.021 C 
ATOM      5  C   UNL     1      -1.091   7.449   0.068  0.00  0.00    +0.086 C 
ATOM      6  C   UNL     1      -2.444   8.095  -0.237  0.00  0.00    +0.082 C 
ATOM      7  C   UNL     1      -2.352   9.607  -0.025  0.00  0.00    +0.042 C 
ENDROOT
BRANCH   2   8
ATOM      8  C   UNL     1      -4.556   5.376   1.406  0.00  0.00    -0.039 A 
ATOM      9  C   UNL     1      -4.100   5.321   2.710  0.00  0.00    +0.006 A 
ATOM     10  C   UNL     1      -4.871   4.718   3.686  0.00  0.00    +0.033 A 
ATOM     11  C   UNL     1      -6.093   4.161   3.357  0.00  0.00    +0.126 A 
ATOM     12  C   UNL     1      -6.546   4.212   2.051  0.00  0.00    +0.033 A 
ATOM     13  C   UNL     1      -5.777   4.819   1.076  0.00  0.00    +0.006 A 
BRANCH  11  14
ATOM     14  N   UNL     1      -6.916   3.511   4.401  0.00  0.00    +0.056 N 
ATOM     15  O   UNL     1      -7.992   3.021   4.110  0.00  0.00    -0.126 OA
ATOM     16  O   UNL     1      -6.517   3.466   5.551  0.00  0.00    -0.126 OA
ENDBRANCH  11  14
ENDBRANCH   2   8
BRANCH   1  17
ATOM     17  C   UNL     1      -4.786   8.266   0.576  0.00  0.00    +0.314 C 
ATOM     18  O   UNL     1      -5.572   7.969  -0.292  0.00  0.00    -0.250 OA
BRANCH  17  19
ATOM     19  O   UNL     1      -5.065   9.273   1.419  0.00  0.00    -0.465 OA
BRANCH  19  21
ATOM     20  C   UNL     1      -6.470  11.069   2.273  0.00  0.00    +0.048 C 
ATOM     21  C   UNL     1      -6.329   9.961   1.227  0.00  0.00    +0.229 C 
ENDBRANCH  19  21
ENDBRANCH  17  19
ENDBRANCH   1  17
BRANCH   6  22
ATOM     22  O   UNL     1      -2.814   7.818  -1.589  0.00  0.00    -0.388 OA
ATOM     23  H   UNL     1      -2.186   8.152  -2.245  0.00  0.00    +0.210 HD
ENDBRANCH   6  22
BRANCH   4  24
ATOM     24  N   UNL     1      -0.095   5.198   0.003  0.00  0.00    -0.317 N 
ATOM     25  H   UNL     1       0.155   4.598   0.723  0.00  0.00    +0.152 HD
BRANCH  24  26
ATOM     26  C   UNL     1       0.704   5.288  -1.140  0.00  0.00    +0.031 A 
ATOM     27  C   UNL     1       1.963   4.701  -1.158  0.00  0.00    +0.023 A 
ATOM     28  C   UNL     1       2.750   4.792  -2.289  0.00  0.00    +0.002 A 
ATOM     29  C   UNL     1       2.286   5.466  -3.404  0.00  0.00    +0.000 A 
ATOM     30  C   UNL     1       1.035   6.057  -3.388  0.00  0.00    +0.002 A 
ATOM     31  C   UNL     1       0.241   5.965  -2.262  0.00  0.00    +0.023 A 
ENDBRANCH  24  26
ENDBRANCH   4  24
BRANCH   3  32
ATOM     32  C   UNL     1      -2.401   3.913   0.261  0.00  0.00    +0.337 C 
ATOM     33  O   UNL     1      -1.347   3.305   0.292  0.00  0.00    -0.245 OA
BRANCH  32  34
ATOM     34  O   UNL     1      -3.570   3.238   0.258  0.00  0.00    -0.462 OA
BRANCH  34  35
ATOM     35  C   UNL     1      -3.500   1.818   0.402  0.00  0.00    +0.229 C 
ATOM     36  C   UNL     1      -4.900   1.220   0.250  0.00  0.00    +0.048 C 
ENDBRANCH  34  35
ENDBRANCH  32  34
ENDBRANCH   3  32
TORSDOF 11
