REMARK  Name = ZINC05330786
REMARK  7 active torsions:
REMARK  status: ('A' for Active; 'I' for Inactive)
REMARK    1  A    between atoms: C_1  and  C_2
REMARK    2  A    between atoms: C_5  and  N_8
REMARK    3  A    between atoms: N_8  and  C_9
REMARK    4  A    between atoms: C_9  and  C_10
REMARK    5  A    between atoms: C_10  and  C_11
REMARK    6  A    between atoms: C_11  and  C_13
REMARK    7  A    between atoms: C_11  and  N_19
REMARK                            x       y       z     vdW  Elec       q    Type
REMARK                         _______ _______ _______ _____ _____    ______ ____
ROOT
ATOM      1  C   UNL     1       0.562   4.532   0.022  0.00  0.00    +0.141 C 
ENDROOT
BRANCH   1   2
ATOM      2  N   UNL     1       1.500   3.407   0.007  0.00  0.00    -0.237 N 
ATOM      3  C   UNL     1       1.181   2.070   0.002  0.00  0.00    +0.090 A 
ATOM      4  C   UNL     1      -0.017   1.362   0.009  0.00  0.00    +0.029 A 
ATOM      5  C   UNL     1       0.002  -0.004   0.002  0.00  0.00    +0.002 A 
ATOM      6  C   UNL     1       1.207  -0.694  -0.013  0.00  0.00    +0.002 A 
ATOM      7  C   UNL     1       2.395  -0.024  -0.021  0.00  0.00    +0.032 A 
ATOM      8  C   UNL     1       2.404   1.378  -0.013  0.00  0.00    +0.113 A 
ATOM      9  N   UNL     1       3.393   2.293  -0.017  0.00  0.00    -0.129 NA
ATOM     10  N   UNL     1       2.901   3.482  -0.006  0.00  0.00    -0.064 NA
ENDBRANCH   1   2
BRANCH   1  11
ATOM     11  C   UNL     1       0.797   5.366   1.255  0.00  0.00    -0.023 A 
ATOM     12  C   UNL     1       2.031   5.951   1.469  0.00  0.00    +0.006 A 
ATOM     13  C   UNL     1       2.245   6.719   2.598  0.00  0.00    +0.000 A 
ATOM     14  C   UNL     1       1.228   6.895   3.518  0.00  0.00    +0.000 A 
ATOM     15  C   UNL     1      -0.004   6.306   3.306  0.00  0.00    +0.000 A 
ATOM     16  C   UNL     1      -0.220   5.541   2.175  0.00  0.00    +0.006 A 
ENDBRANCH   1  11
BRANCH   1  17
ATOM     17  C   UNL     1       0.778   5.393  -1.225  0.00  0.00    +0.050 C 
BRANCH  17  18
ATOM     18  C   UNL     1      -0.281   6.496  -1.273  0.00  0.00    +0.104 C 
BRANCH  18  19
ATOM     19  N   UNL     1      -0.074   7.320  -2.466  0.00  0.00    -0.344 N 
ATOM     20  H   UNL     1       0.653   7.118  -3.075  0.00  0.00    +0.146 HD
BRANCH  19  25
ATOM     21  C   UNL     1      -3.528  11.691  -3.528  0.00  0.00    +0.044 C 
ATOM     22  C   UNL     1      -2.610  10.529  -3.246  0.00  0.00    -0.050 A 
ATOM     23  C   UNL     1      -1.573  10.243  -4.114  0.00  0.00    +0.005 A 
ATOM     24  C   UNL     1      -0.730   9.179  -3.859  0.00  0.00    +0.023 A 
ATOM     25  C   UNL     1      -0.925   8.397  -2.728  0.00  0.00    +0.027 A 
ATOM     26  C   UNL     1      -1.971   8.684  -1.860  0.00  0.00    +0.023 A 
ATOM     27  C   UNL     1      -2.807   9.752  -2.119  0.00  0.00    +0.005 A 
ENDBRANCH  19  25
ENDBRANCH  18  19
ENDBRANCH  17  18
ENDBRANCH   1  17
TORSDOF 6
