REMARK  Name = ZINC65182726
REMARK  9 active torsions:
REMARK  status: ('A' for Active; 'I' for Inactive)
REMARK    1  A    between atoms: C_1  and  C_2
REMARK    2  A    between atoms: C_7  and  C_13
REMARK    3  A    between atoms: C_9  and  C_12
REMARK    4  A    between atoms: C_16  and  C_19
REMARK    5  A    between atoms: C_19  and  C_20
REMARK    6  A    between atoms: C_20  and  N_21
REMARK    7  A    between atoms: N_21  and  C_22
REMARK    8  A    between atoms: C_23  and  C_25
REMARK    9  A    between atoms: C_30  and  C_31
REMARK                            x       y       z     vdW  Elec       q    Type
REMARK                         _______ _______ _______ _____ _____    ______ ____
ROOT
ATOM      1  C   UNL     1       0.896  -5.593   1.587  0.00  0.00    +0.318 C 
ATOM      2  N   UNL     1       1.107  -6.746   0.698  0.00  0.00    -0.291 N 
ATOM      3  C   UNL     1       2.359  -6.600   0.147  0.00  0.00    +0.139 C 
ATOM      4  N   UNL     1       2.937  -5.534   0.568  0.00  0.00    -0.072 NA
ATOM      5  O   UNL     1       2.108  -4.829   1.477  0.00  0.00    -0.367 OA
ATOM      6  H   UNL     1       0.483  -7.470   0.532  0.00  0.00    +0.151 HD
ENDROOT
BRANCH   1  13
ATOM      7  C   UNL     1      -0.248   1.295   0.533  0.00  0.00    +0.044 C 
ATOM      8  C   UNL     1      -0.199  -0.195   0.311  0.00  0.00    -0.050 A 
ATOM      9  C   UNL     1       0.024  -0.685  -0.984  0.00  0.00    +0.005 A 
ATOM     10  C   UNL     1       0.082  -2.004  -1.264  0.00  0.00    +0.026 A 
ATOM     11  C   UNL     1      -0.086  -2.966  -0.231  0.00  0.00    +0.043 A 
ATOM     12  N   UNL     1      -0.074  -4.277  -0.248  0.00  0.00    -0.373 N 
ATOM     13  C   UNL     1      -0.302  -4.766   1.116  0.00  0.00    +0.168 C 
ATOM     14  C   UNL     1      -0.457  -3.532   1.978  0.00  0.00    -0.036 C 
ATOM     15  C   UNL     1      -0.323  -2.474   1.145  0.00  0.00    -0.001 A 
ATOM     16  C   UNL     1      -0.366  -1.024   1.366  0.00  0.00    +0.013 A 
ATOM     17  C   UNL     1      -0.710  -3.490   3.463  0.00  0.00    +0.042 C 
ATOM     18  H   UNL     1       0.063  -4.831  -1.032  0.00  0.00    +0.160 HD
ENDBRANCH   1  13
BRANCH   3  19
ATOM     19  C   UNL     1       2.974  -7.570  -0.828  0.00  0.00    +0.094 C 
BRANCH  19  20
ATOM     20  C   UNL     1       4.369  -7.082  -1.222  0.00  0.00    +0.115 C 
BRANCH  20  21
ATOM     21  N   UNL     1       4.968  -8.025  -2.170  0.00  0.00    -0.300 N 
ATOM     22  C   UNL     1       4.766  -7.843  -3.610  0.00  0.00    +0.132 C 
ATOM     23  C   UNL     1       5.704  -9.059  -1.718  0.00  0.00    +0.247 C 
ATOM     24  O   UNL     1       5.789  -9.268  -0.523  0.00  0.00    -0.270 OA
BRANCH  23  25
ATOM     25  C   UNL     1       6.407  -9.940  -2.674  0.00  0.00    +0.049 A 
ATOM     26  C   UNL     1       7.212  -9.389  -3.673  0.00  0.00    +0.013 A 
ATOM     27  C   UNL     1       7.866 -10.216  -4.562  0.00  0.00    +0.001 A 
ATOM     28  C   UNL     1       7.726 -11.589  -4.466  0.00  0.00    +0.001 A 
ATOM     29  C   UNL     1       6.930 -12.142  -3.478  0.00  0.00    +0.013 A 
ATOM     30  C   UNL     1       6.275 -11.326  -2.579  0.00  0.00    +0.067 A 
BRANCH  30  31
ATOM     31  C   UNL     1       5.413 -11.930  -1.500  0.00  0.00    +0.418 C 
ATOM     32  F   UNL     1       5.438 -13.324  -1.609  0.00  0.00    -0.166 F 
ATOM     33  F   UNL     1       5.902 -11.551  -0.246  0.00  0.00    -0.166 F 
ATOM     34  F   UNL     1       4.098 -11.474  -1.645  0.00  0.00    -0.166 F 
ENDBRANCH  30  31
ENDBRANCH  23  25
ENDBRANCH  20  21
ENDBRANCH  19  20
ENDBRANCH   3  19
TORSDOF 6
