REMARK  Name = ZINC39532522
REMARK  9 active torsions:
REMARK  status: ('A' for Active; 'I' for Inactive)
REMARK    1  A    between atoms: C_1  and  C_2
REMARK    2  A    between atoms: C_2  and  C_3
REMARK    3  A    between atoms: C_6  and  C_9
REMARK    4  A    between atoms: C_9  and  C_11
REMARK    5  A    between atoms: C_9  and  N_14
REMARK    6  A    between atoms: C_11  and  N_12
REMARK    7  A    between atoms: C_18  and  S_21
REMARK    8  A    between atoms: S_21  and  O_24
REMARK    9  A    between atoms: O_24  and  C_25
REMARK                            x       y       z     vdW  Elec       q    Type
REMARK                         _______ _______ _______ _____ _____    ______ ____
ROOT
ATOM      1  N   UNL     1       2.285  -1.350   5.937  0.00  0.00    -0.296 NA
ATOM      2  C   UNL     1       2.188   0.113   5.834  0.00  0.00    +0.066 C 
ATOM      3  C   UNL     1       1.609   0.675   7.134  0.00  0.00    -0.064 C 
ATOM      4  N   UNL     1       2.476   0.302   8.259  0.00  0.00    +0.398 N 
ATOM      5  C   UNL     1       2.543  -1.161   8.364  0.00  0.00    +0.130 C 
ATOM      6  C   UNL     1       3.131  -1.739   7.074  0.00  0.00    +0.095 C 
ATOM      7  H   UNL     1       3.403   0.671   8.105  0.00  0.00    -0.083 HD
ATOM      8  H   UNL     1       2.100   0.684   9.114  0.00  0.00    -0.083 HD
ENDROOT
BRANCH   5   9
ATOM      9  S   UNL     1       3.598  -1.619   9.767  0.00  0.00    +0.109 S 
ATOM     10  O   UNL     1       3.532  -3.020   9.992  0.00  0.00    -0.138 OA
ATOM     11  O   UNL     1       4.853  -0.959   9.671  0.00  0.00    -0.138 OA
BRANCH   9  12
ATOM     12  O   UNL     1       2.924  -0.998  10.982  0.00  0.00    -0.347 OA
BRANCH  12  13
ATOM     13  C   UNL     1       1.806  -1.654  11.390  0.00  0.00    +0.156 A 
ATOM     14  C   UNL     1       0.568  -1.306  10.872  0.00  0.00    +0.048 A 
ATOM     15  C   UNL     1      -0.567  -1.975  11.288  0.00  0.00    +0.004 A 
ATOM     16  C   UNL     1      -0.469  -2.991  12.220  0.00  0.00    +0.000 A 
ATOM     17  C   UNL     1       0.765  -3.340  12.738  0.00  0.00    +0.004 A 
ATOM     18  C   UNL     1       1.903  -2.678  12.321  0.00  0.00    +0.048 A 
ENDBRANCH  12  13
ENDBRANCH   9  12
ENDBRANCH   5   9
BRANCH   1  19
ATOM     19  C   UNL     1       2.785  -1.934   4.685  0.00  0.00    +0.101 C 
BRANCH  19  23
ATOM     20  C   UNL     1       0.125  -0.950   1.490  0.00  0.00    -0.048 A 
ATOM     21  C   UNL     1       1.492  -0.928   1.283  0.00  0.00    +0.004 A 
ATOM     22  C   UNL     1       2.353  -1.247   2.317  0.00  0.00    +0.005 A 
ATOM     23  C   UNL     1       1.847  -1.586   3.558  0.00  0.00    -0.029 A 
ATOM     24  C   UNL     1       0.480  -1.606   3.765  0.00  0.00    +0.005 A 
ATOM     25  C   UNL     1      -0.380  -1.284   2.733  0.00  0.00    +0.004 A 
BRANCH  20  27
ATOM     26  C   UNL     1      -1.087   0.902   0.373  0.00  0.00    +0.009 C 
ATOM     27  C   UNL     1      -0.813  -0.603   0.363  0.00  0.00    +0.032 C 
ENDBRANCH  20  27
ENDBRANCH  19  23
BRANCH  19  28
ATOM     28  C   UNL     1       2.868  -3.455   4.829  0.00  0.00    +0.117 C 
BRANCH  28  29
ATOM     29  N   UNL     1       3.446  -4.031   3.607  0.00  0.00    -0.254 NA
ATOM     30 BR   UNL     1       3.420  -5.880   3.670  0.00  0.00    +0.010 Br
ATOM     31  H   UNL     1       4.383  -3.688   3.454  0.00  0.00    +0.135 HD
ENDBRANCH  28  29
ENDBRANCH  19  28
ENDBRANCH   1  19
TORSDOF 8
