REMARK  Name = ZINC12789190
REMARK  9 active torsions:
REMARK  status: ('A' for Active; 'I' for Inactive)
REMARK    1  A    between atoms: C_1  and  C_2
REMARK    2  A    between atoms: C_5  and  C_8
REMARK    3  A    between atoms: N_14  and  C_15
REMARK    4  A    between atoms: C_15  and  C_16
REMARK    5  A    between atoms: C_16  and  C_17
REMARK    6  A    between atoms: N_19  and  C_20
REMARK    7  A    between atoms: C_20  and  C_21
REMARK    8  A    between atoms: C_21  and  C_23
REMARK    9  A    between atoms: C_21  and  N_60
REMARK                            x       y       z     vdW  Elec       q    Type
REMARK                         _______ _______ _______ _____ _____    ______ ____
ROOT
ATOM      1  C   UNL     1       2.025   0.515  -1.052  0.00  0.00    +0.215 C 
ATOM      2  O   UNL     1       2.559   1.399  -1.688  0.00  0.00    -0.276 OA
ATOM      3  N   UNL     1       2.012  -0.745  -1.530  0.00  0.00    -0.316 N 
ATOM      4  H   UNL     1       1.585  -1.452  -1.021  0.00  0.00    +0.149 HD
ENDROOT
BRANCH   1   5
ATOM      5  C   UNL     1       1.376   0.826   0.273  0.00  0.00    +0.117 C 
BRANCH   5   6
ATOM      6  C   UNL     1       1.532   2.317   0.580  0.00  0.00    +0.135 C 
BRANCH   6  13
ATOM      7  C   UNL     1      -0.385   3.089   2.048  0.00  0.00    +0.163 A 
ATOM      8  N   UNL     1      -0.596   3.236   3.325  0.00  0.00    -0.153 NA
ATOM      9  N   UNL     1       0.573   2.867   4.005  0.00  0.00    -0.254 N 
ATOM     10  H   UNL     1       0.707   2.879   4.965  0.00  0.00    +0.191 HD
ATOM     11  C   UNL     1       1.478   2.490   3.078  0.00  0.00    +0.176 A 
ATOM     12  S   UNL     1       3.073   1.948   3.386  0.00  0.00    -0.011 S 
ATOM     13  N   UNL     1       0.901   2.619   1.867  0.00  0.00    -0.303 N 
BRANCH   7  18
ATOM     14  C   UNL     1      -4.177   4.199  -2.137  0.00  0.00    +0.044 C 
ATOM     15  C   UNL     1      -3.184   3.908  -1.042  0.00  0.00    -0.050 A 
ATOM     16  C   UNL     1      -3.342   4.491   0.203  0.00  0.00    +0.004 A 
ATOM     17  C   UNL     1      -2.436   4.229   1.210  0.00  0.00    +0.012 A 
ATOM     18  C   UNL     1      -1.360   3.374   0.972  0.00  0.00    +0.019 A 
ATOM     19  C   UNL     1      -1.203   2.793  -0.287  0.00  0.00    +0.012 A 
ATOM     20  C   UNL     1      -2.119   3.059  -1.284  0.00  0.00    +0.004 A 
ENDBRANCH   7  18
ENDBRANCH   6  13
ENDBRANCH   5   6
ENDBRANCH   1   5
BRANCH   3  21
ATOM     21  C   UNL     1       2.642  -1.047  -2.817  0.00  0.00    +0.093 C 
BRANCH  21  22
ATOM     22  C   UNL     1       2.487  -2.538  -3.124  0.00  0.00    -0.020 C 
BRANCH  22  23
ATOM     23  C   UNL     1       3.026  -2.826  -4.502  0.00  0.00    -0.059 A 
ATOM     24  C   UNL     1       3.720  -3.997  -4.741  0.00  0.00    +0.002 A 
ATOM     25  C   UNL     1       4.211  -4.263  -6.006  0.00  0.00    +0.000 A 
ATOM     26  C   UNL     1       4.014  -3.354  -7.029  0.00  0.00    +0.000 A 
ATOM     27  C   UNL     1       3.325  -2.181  -6.788  0.00  0.00    +0.000 A 
ATOM     28  C   UNL     1       2.830  -1.916  -5.524  0.00  0.00    +0.002 A 
ENDBRANCH  22  23
BRANCH  22  33
ATOM     29  C   UNL     1       0.317  -2.309  -4.205  0.00  0.00    -0.078 C 
ATOM     30  C   UNL     1      -0.956  -3.187  -4.290  0.00  0.00    -0.020 C 
ATOM     31  C   UNL     1      -0.423  -4.601  -3.961  0.00  0.00    -0.020 C 
ATOM     32  C   UNL     1       0.889  -4.367  -3.191  0.00  0.00    -0.078 C 
ATOM     33  N   UNL     1       1.042  -2.916  -3.078  0.00  0.00    +0.385 N 
ATOM     34  H   UNL     1       0.638  -2.593  -2.191  0.00  0.00    -0.081 HD
ENDBRANCH  22  33
ENDBRANCH  21  22
ENDBRANCH   3  21
TORSDOF 8
