REMARK  Name = ZINC39448439
REMARK  11 active torsions:
REMARK  status: ('A' for Active; 'I' for Inactive)
REMARK    1  A    between atoms: C_1  and  O_2
REMARK    2  A    between atoms: O_2  and  C_3
REMARK    3  A    between atoms: C_6  and  C_11
REMARK    4  A    between atoms: C_8  and  O_9
REMARK    5  A    between atoms: O_9  and  C_10
REMARK    6  A    between atoms: C_13  and  N_17
REMARK    7  A    between atoms: C_27  and  O_36
REMARK    8  A    between atoms: C_28  and  O_34
REMARK    9  A    between atoms: C_31  and  N_33
REMARK   10  A    between atoms: O_34  and  C_35
REMARK   11  A    between atoms: O_36  and  C_37
REMARK                            x       y       z     vdW  Elec       q    Type
REMARK                         _______ _______ _______ _____ _____    ______ ____
ROOT
ATOM      1  N   UNL     1      -8.025  -3.267  -1.163  0.00  0.00    +0.400 N 
ATOM      2  C   UNL     1      -8.793  -2.026  -0.993  0.00  0.00    -0.056 C 
ATOM      3  C   UNL     1      -9.568  -1.725  -2.280  0.00  0.00    +0.089 C 
ATOM      4  N   UNL     1     -10.383  -2.901  -2.619  0.00  0.00    -0.305 N 
ATOM      5  C   UNL     1      -9.724  -4.216  -2.651  0.00  0.00    +0.089 C 
ATOM      6  C   UNL     1      -8.941  -4.399  -1.347  0.00  0.00    -0.056 C 
ATOM      7  C   UNL     1     -11.733  -2.775  -2.898  0.00  0.00    +0.198 A 
ATOM      8  N   UNL     1     -12.252  -1.565  -2.973  0.00  0.00    -0.327 N 
ATOM      9  C   UNL     1     -13.557  -1.401  -3.242  0.00  0.00    +0.056 A 
ATOM     10  C   UNL     1     -14.139  -0.130  -3.327  0.00  0.00    +0.075 A 
ATOM     11  C   UNL     1     -15.483  -0.015  -3.606  0.00  0.00    +0.163 A 
ATOM     12  C   UNL     1     -16.272  -1.157  -3.804  0.00  0.00    +0.162 A 
ATOM     13  C   UNL     1     -15.726  -2.405  -3.725  0.00  0.00    +0.062 A 
ATOM     14  C   UNL     1     -14.362  -2.550  -3.443  0.00  0.00    +0.042 A 
ATOM     15  C   UNL     1     -13.748  -3.822  -3.351  0.00  0.00    +0.129 A 
ATOM     16  N   UNL     1     -12.451  -3.878  -3.086  0.00  0.00    -0.201 NA
ATOM     17  H   UNL     1     -11.688  -0.788  -2.832  0.00  0.00    +0.169 HD
ATOM     18  H   UNL     1      -7.430  -3.182  -1.974  0.00  0.00    -0.078 HD
ENDROOT
BRANCH   1  21
ATOM     19  C   UNL     1      -5.021  -2.909   0.153  0.00  0.00    +0.089 C 
ATOM     20  C   UNL     1      -6.238  -2.340   0.246  0.00  0.00    +0.012 C 
ATOM     21  C   UNL     1      -7.198  -3.496   0.029  0.00  0.00    +0.101 C 
ATOM     22  N   UNL     1      -6.299  -4.645  -0.172  0.00  0.00    -0.198 NA
ATOM     23  N   UNL     1      -5.137  -4.240  -0.095  0.00  0.00    -0.156 NA
BRANCH  19  27
ATOM     24  C   UNL     1      -1.333  -0.823   0.563  0.00  0.00    +0.162 A 
ATOM     25  C   UNL     1      -2.533  -0.140   0.682  0.00  0.00    +0.050 A 
ATOM     26  C   UNL     1      -3.730  -0.813   0.549  0.00  0.00    +0.014 A 
ATOM     27  C   UNL     1      -3.735  -2.184   0.295  0.00  0.00    +0.005 A 
ATOM     28  C   UNL     1      -2.529  -2.872   0.175  0.00  0.00    +0.059 A 
ATOM     29  C   UNL     1      -1.331  -2.191   0.303  0.00  0.00    +0.162 A 
BRANCH  24  31
ATOM     30  C   UNL     1      -0.231   1.246   0.959  0.00  0.00    +0.277 C 
ATOM     31  O   UNL     1      -0.155  -0.156   0.694  0.00  0.00    -0.491 OA
ENDBRANCH  24  31
BRANCH  29  32
ATOM     32  O   UNL     1      -0.153  -2.859   0.181  0.00  0.00    -0.491 OA
ATOM     33  C   UNL     1      -0.226  -4.261  -0.085  0.00  0.00    +0.277 C 
ENDBRANCH  29  32
ENDBRANCH  19  27
ENDBRANCH   1  21
BRANCH  15  34
ATOM     34  N   UNL     1     -14.482  -4.975  -3.538  0.00  0.00    -0.343 N 
ATOM     35  H   UNL     1     -15.430  -4.920  -3.735  0.00  0.00    +0.144 HD
ATOM     36  H   UNL     1     -14.050  -5.841  -3.472  0.00  0.00    +0.144 HD
ENDBRANCH  15  34
BRANCH  12  37
ATOM     37  O   UNL     1     -17.598  -1.018  -4.077  0.00  0.00    -0.491 OA
ATOM     38  C   UNL     1     -18.349  -2.218  -4.269  0.00  0.00    +0.277 C 
ENDBRANCH  12  37
BRANCH  11  39
ATOM     39  O   UNL     1     -16.049   1.217  -3.690  0.00  0.00    -0.491 OA
ATOM     40  C   UNL     1     -15.192   2.340  -3.478  0.00  0.00    +0.277 C 
ENDBRANCH  11  39
TORSDOF 7
