REMARK  Name = ZINC28428276
REMARK  8 active torsions:
REMARK  status: ('A' for Active; 'I' for Inactive)
REMARK    1  A    between atoms: C_4  and  C_7
REMARK    2  A    between atoms: C_7  and  O_8
REMARK    3  A    between atoms: O_8  and  C_9
REMARK    4  A    between atoms: C_12  and  C_16
REMARK    5  A    between atoms: C_16  and  N_17
REMARK    6  A    between atoms: N_17  and  C_18
REMARK    7  A    between atoms: C_18  and  C_19
REMARK    8  A    between atoms: C_19  and  C_20
REMARK                            x       y       z     vdW  Elec       q    Type
REMARK                         _______ _______ _______ _____ _____    ______ ____
ROOT
ATOM      1  C   UNL     1      -2.080   2.502  -3.455  0.00  0.00    +0.157 A 
ATOM      2  C   UNL     1      -1.064   3.262  -2.893  0.00  0.00    +0.084 A 
ATOM      3  C   UNL     1      -0.397   2.801  -1.773  0.00  0.00    +0.028 A 
ATOM      4  C   UNL     1      -0.742   1.585  -1.213  0.00  0.00    -0.031 A 
ATOM      5  C   UNL     1      -1.750   0.823  -1.774  0.00  0.00    +0.028 A 
ATOM      6  C   UNL     1      -2.424   1.281  -2.891  0.00  0.00    +0.084 A 
ATOM      7 CL   UNL     1      -3.694   0.327  -3.591  0.00  0.00    -0.080 Cl
ATOM      8 CL   UNL     1      -0.631   4.789  -3.595  0.00  0.00    -0.080 Cl
ENDROOT
BRANCH   1   9
ATOM      9  O   UNL     1      -2.738   2.952  -4.557  0.00  0.00    -0.484 OA
BRANCH   9  10
ATOM     10  C   UNL     1      -2.202   2.583  -5.829  0.00  0.00    +0.264 C 
BRANCH  10  14
ATOM     11  C   UNL     1      -4.624   4.243  -8.931  0.00  0.00    +0.000 A 
ATOM     12  C   UNL     1      -3.555   4.962  -8.430  0.00  0.00    +0.000 A 
ATOM     13  C   UNL     1      -2.771   4.425  -7.426  0.00  0.00    +0.007 A 
ATOM     14  C   UNL     1      -3.056   3.169  -6.923  0.00  0.00    -0.010 A 
ATOM     15  C   UNL     1      -4.122   2.448  -7.428  0.00  0.00    +0.007 A 
ATOM     16  C   UNL     1      -4.910   2.988  -8.428  0.00  0.00    +0.000 A 
ENDBRANCH  10  14
ENDBRANCH   9  10
ENDBRANCH   1   9
BRANCH   4  17
ATOM     17  C   UNL     1      -0.013   1.086   0.008  0.00  0.00    +0.116 C 
BRANCH  17  18
ATOM     18  N   UNL     1      -0.700   1.560   1.217  0.00  0.00    -0.312 NA
ATOM     19  H   UNL     1      -0.715   2.659   1.223  0.00  0.00    +0.122 HD
BRANCH  18  20
ATOM     20  C   UNL     1      -0.016   1.091   2.429  0.00  0.00    +0.086 C 
BRANCH  20  21
ATOM     21  C   UNL     1      -0.760   1.603   3.664  0.00  0.00    +0.052 C 
BRANCH  21  22
ATOM     22  C   UNL     1      -0.058   1.123   4.909  0.00  0.00    -0.021 A 
ATOM     23  C   UNL     1      -0.362   0.029   5.625  0.00  0.00    +0.087 A 
ATOM     24  N   UNL     1       0.494  -0.087   6.686  0.00  0.00    -0.360 N 
ATOM     25  H   UNL     1       0.397  -0.933   7.381  0.00  0.00    +0.165 HD
ATOM     26  C   UNL     1       1.389   0.960   6.682  0.00  0.00    +0.047 A 
ATOM     27  C   UNL     1       1.082   1.764   5.569  0.00  0.00    +0.003 A 
ATOM     28  C   UNL     1       1.834   2.911   5.309  0.00  0.00    +0.010 A 
ATOM     29  C   UNL     1       2.866   3.248   6.140  0.00  0.00    +0.001 A 
ATOM     30  C   UNL     1       3.172   2.458   7.239  0.00  0.00    +0.002 A 
ATOM     31  C   UNL     1       2.443   1.322   7.514  0.00  0.00    +0.026 A 
ENDBRANCH  21  22
ENDBRANCH  20  21
ENDBRANCH  18  20
ENDBRANCH  17  18
ENDBRANCH   4  17
TORSDOF 8
