REMARK  Name = ZINC19435098
REMARK  2 active torsions:
REMARK  status: ('A' for Active; 'I' for Inactive)
REMARK    1  A    between atoms: C_6  and  N_7
REMARK    2  A    between atoms: C_11  and  C_14
REMARK                            x       y       z     vdW  Elec       q    Type
REMARK                         _______ _______ _______ _____ _____    ______ ____
ROOT
ATOM      1  N   UNL     1      -0.200   5.532   0.032  0.00  0.00    -0.299 N 
ATOM      2  C   UNL     1      -0.137   4.149   0.098  0.00  0.00    +0.123 A 
ATOM      3  C   UNL     1      -1.289   3.397  -0.123  0.00  0.00    +0.045 A 
ATOM      4  C   UNL     1      -1.223   2.031  -0.058  0.00  0.00    +0.024 A 
ATOM      5  C   UNL     1       0.014   1.434   0.232  0.00  0.00    +0.070 A 
ATOM      6  C   UNL     1       1.126   2.250   0.447  0.00  0.00    +0.131 A 
ATOM      7  N   UNL     1       1.020   3.560   0.370  0.00  0.00    -0.239 NA
ATOM      8  H   UNL     1      -1.171   6.033  -0.097  0.00  0.00    +0.154 HD
ENDROOT
BRANCH   1  14
ATOM      9  C   UNL     1       0.963   7.493   0.829  0.00  0.00    +0.024 A 
ATOM     10  C   UNL     1       2.122   8.237   0.930  0.00  0.00    +0.017 A 
ATOM     11  C   UNL     1       3.286   7.794   0.326  0.00  0.00    +0.018 A 
ATOM     12  C   UNL     1       3.293   6.601  -0.375  0.00  0.00    +0.017 A 
ATOM     13  C   UNL     1       2.139   5.849  -0.474  0.00  0.00    +0.024 A 
ATOM     14  C   UNL     1       0.970   6.292   0.131  0.00  0.00    +0.032 A 
ATOM     15 BR   UNL     1       4.868   8.820   0.460  0.00  0.00    -0.050 Br
ENDBRANCH   1  14
BRANCH   5  16
ATOM     16  C   UNL     1       0.132   0.009   0.311  0.00  0.00    +0.101 C 
ATOM     17  N   UNL     1       0.225  -1.121   0.374  0.00  0.00    -0.191 NA
ENDBRANCH   5  16
TORSDOF 2
