REMARK  Name = ZINC20079485
REMARK  7 active torsions:
REMARK  status: ('A' for Active; 'I' for Inactive)
REMARK    1  A    between atoms: C_1  and  C_2
REMARK    2  A    between atoms: C_5  and  C_38
REMARK    3  A    between atoms: C_9  and  C_14
REMARK    4  A    between atoms: C_14  and  C_16
REMARK    5  A    between atoms: C_14  and  N_26
REMARK    6  A    between atoms: N_20  and  C_21
REMARK    7  A    between atoms: N_29  and  C_32
REMARK                            x       y       z     vdW  Elec       q    Type
REMARK                         _______ _______ _______ _____ _____    ______ ____
ROOT
ATOM      1  C   UNL     1       2.507   3.775  -0.002  0.00  0.00    +0.162 C 
ENDROOT
BRANCH   1  10
ATOM      2  C   UNL     1      -2.496   5.221   0.052  0.00  0.00    +0.044 C 
ATOM      3  C   UNL     1      -2.465   3.714   0.044  0.00  0.00    -0.041 A 
ATOM      4  C   UNL     1      -3.632   3.004   0.051  0.00  0.00    +0.004 A 
ATOM      5  C   UNL     1      -3.615   1.616   0.043  0.00  0.00    +0.005 A 
ATOM      6  C   UNL     1      -2.421   0.927   0.029  0.00  0.00    -0.026 A 
ATOM      7  C   UNL     1      -1.220   1.629   0.017  0.00  0.00    +0.052 A 
ATOM      8  C   UNL     1      -1.241   3.037   0.029  0.00  0.00    +0.002 A 
ATOM      9  C   UNL     1       0.028   3.766   0.022  0.00  0.00    +0.021 A 
ATOM     10  C   UNL     1       1.183   3.055   0.007  0.00  0.00    +0.042 A 
ATOM     11  C   UNL     1       1.150   1.644  -0.000  0.00  0.00    +0.254 A 
ATOM     12  O   UNL     1       2.200   1.025  -0.013  0.00  0.00    -0.268 OA
ATOM     13  N   UNL     1      -0.011   0.966   0.007  0.00  0.00    -0.322 N 
ATOM     14  H   UNL     1       0.013  -0.134   0.006  0.00  0.00    +0.169 HD
ATOM     15  C   UNL     1      -2.417  -0.580   0.021  0.00  0.00    +0.046 C 
ENDBRANCH   1  10
BRANCH   1  16
ATOM     16  N   UNL     1       3.327   3.305   1.123  0.00  0.00    -0.292 NA
ATOM     17  C   UNL     1       2.621   3.480   2.399  0.00  0.00    +0.067 C 
ATOM     18  C   UNL     1       3.474   2.907   3.534  0.00  0.00    -0.063 C 
ATOM     19  N   UNL     1       4.776   3.589   3.557  0.00  0.00    +0.383 N 
ATOM     20  C   UNL     1       5.482   3.413   2.280  0.00  0.00    -0.063 C 
ATOM     21  C   UNL     1       4.629   3.986   1.146  0.00  0.00    +0.067 C 
ATOM     22  H   UNL     1       4.594   4.664   3.700  0.00  0.00    -0.081 HD
BRANCH  19  23
ATOM     23  C   UNL     1       5.596   3.119   4.681  0.00  0.00    -0.068 C 
ATOM     24  C   UNL     1       5.808   1.608   4.561  0.00  0.00    -0.015 C 
ATOM     25  C   UNL     1       6.662   1.118   5.732  0.00  0.00    -0.002 C 
ATOM     26  C   UNL     1       5.949   1.430   7.050  0.00  0.00    -0.000 C 
ATOM     27  C   UNL     1       5.737   2.941   7.170  0.00  0.00    -0.002 C 
ATOM     28  C   UNL     1       4.883   3.430   5.999  0.00  0.00    -0.015 C 
ENDBRANCH  19  23
ENDBRANCH   1  16
BRANCH   1  29
ATOM     29  C   UNL     1       3.223   3.494  -1.298  0.00  0.00    +0.173 A 
ATOM     30  N   UNL     1       3.830   2.381  -1.631  0.00  0.00    -0.111 NA
ATOM     31  N   UNL     1       4.317   2.533  -2.814  0.00  0.00    -0.023 NA
ATOM     32  N   UNL     1       4.036   3.714  -3.244  0.00  0.00    -0.044 NA
ATOM     33  N   UNL     1       3.358   4.335  -2.340  0.00  0.00    -0.224 N 
BRANCH  33  34
ATOM     34  C   UNL     1       2.836   5.701  -2.429  0.00  0.00    +0.111 C 
ATOM     35  C   UNL     1       1.902   5.832  -3.650  0.00  0.00    +0.027 C 
ATOM     36  C   UNL     1       2.190   7.252  -4.197  0.00  0.00    +0.002 C 
ATOM     37  C   UNL     1       3.720   7.393  -3.997  0.00  0.00    +0.002 C 
ATOM     38  C   UNL     1       3.991   6.694  -2.649  0.00  0.00    +0.027 C 
ENDBRANCH  33  34
ENDBRANCH   1  29
TORSDOF 5
