REMARK  Name = ZINC05292651
REMARK  3 active torsions:
REMARK  status: ('A' for Active; 'I' for Inactive)
REMARK    1  A    between atoms: C_4  and  C_7
REMARK    2  A    between atoms: C_10  and  C_13
REMARK    3  A    between atoms: C_13  and  N_14
REMARK                            x       y       z     vdW  Elec       q    Type
REMARK                         _______ _______ _______ _____ _____    ______ ____
ROOT
ATOM      1  C   UNL     1       1.494   3.308   0.005  0.00  0.00    +0.153 C 
ENDROOT
BRANCH   1   2
ATOM      2  N   UNL     1       1.214   1.870   0.001  0.00  0.00    -0.220 N 
ATOM      3  C   UNL     1       2.165   0.913  -0.014  0.00  0.00    +0.247 C 
ATOM      4  O   UNL     1       3.367   1.072  -0.024  0.00  0.00    -0.273 OA
ATOM      5  C   UNL     1       1.416  -0.400  -0.013  0.00  0.00    +0.113 C 
ATOM      6  C   UNL     1       1.734  -1.195  -1.275  0.00  0.00    +0.035 C 
ATOM      7  C   UNL     1       0.938  -2.502  -1.270  0.00  0.00    +0.003 C 
ATOM      8  C   UNL     1       1.306  -3.317  -0.028  0.00  0.00    +0.000 C 
ATOM      9  C   UNL     1       0.962  -2.516   1.230  0.00  0.00    +0.003 C 
ATOM     10  C   UNL     1       1.758  -1.208   1.234  0.00  0.00    +0.035 C 
ATOM     11  N   UNL     1       0.002  -0.004   0.002  0.00  0.00    -0.285 N 
ATOM     12  C   UNL     1      -0.016   1.343   0.009  0.00  0.00    +0.310 C 
ATOM     13  O   UNL     1      -1.035   2.005   0.018  0.00  0.00    -0.252 OA
ATOM     14  H   UNL     1      -0.767  -0.596   0.006  0.00  0.00    +0.151 HD
ENDBRANCH   1   2
BRANCH   1  18
ATOM     15  C   UNL     1       1.805   4.688   4.039  0.00  0.00    -0.018 A 
ATOM     16  C   UNL     1       2.937   4.232   3.367  0.00  0.00    +0.009 A 
ATOM     17  C   UNL     1       2.831   3.788   2.065  0.00  0.00    +0.006 A 
ATOM     18  C   UNL     1       1.603   3.794   1.427  0.00  0.00    -0.030 A 
ATOM     19  C   UNL     1       0.477   4.251   2.088  0.00  0.00    +0.006 A 
ATOM     20  C   UNL     1       0.571   4.692   3.392  0.00  0.00    +0.009 A 
BRANCH  15  24
ATOM     21  C   UNL     1       2.114   6.062   8.052  0.00  0.00    +0.000 A 
ATOM     22  C   UNL     1       0.887   6.068   7.414  0.00  0.00    +0.001 A 
ATOM     23  C   UNL     1       0.781   5.624   6.112  0.00  0.00    +0.008 A 
ATOM     24  C   UNL     1       1.913   5.168   5.439  0.00  0.00    -0.018 A 
ATOM     25  C   UNL     1       3.146   5.159   6.088  0.00  0.00    +0.008 A 
ATOM     26  C   UNL     1       3.241   5.611   7.389  0.00  0.00    +0.001 A 
ENDBRANCH  15  24
ENDBRANCH   1  18
TORSDOF 3
