REMARK  Name = ZINC24757820
REMARK  10 active torsions:
REMARK  status: ('A' for Active; 'I' for Inactive)
REMARK    1  A    between atoms: C_1  and  C_2
REMARK    2  A    between atoms: C_2  and  C_3
REMARK    3  A    between atoms: C_3  and  C_5
REMARK    4  A    between atoms: C_3  and  C_6
REMARK    5  A    between atoms: C_11  and  N_12
REMARK    6  A    between atoms: C_13  and  C_15
REMARK    7  A    between atoms: C_15  and  C_17
REMARK    8  A    between atoms: C_15  and  N_18
REMARK    9  A    between atoms: N_21  and  S_24
REMARK   10  A    between atoms: S_24  and  C_27
REMARK                            x       y       z     vdW  Elec       q    Type
REMARK                         _______ _______ _______ _____ _____    ______ ____
ROOT
ATOM      1  N   UNL     1      -2.499  -0.735   5.419  0.00  0.00    +0.389 N 
ATOM      2  C   UNL     1      -3.518  -0.116   6.277  0.00  0.00    -0.060 C 
ATOM      3  C   UNL     1      -4.085  -1.171   7.233  0.00  0.00    +0.091 C 
ATOM      4  N   UNL     1      -2.967  -1.801   7.951  0.00  0.00    -0.180 NA
ATOM      5  C   UNL     1      -1.840  -2.323   7.163  0.00  0.00    +0.091 C 
ATOM      6  C   UNL     1      -1.361  -1.223   6.210  0.00  0.00    -0.060 C 
ATOM      7  H   UNL     1      -2.960  -1.603   4.925  0.00  0.00    -0.081 HD
ENDROOT
BRANCH   4   8
ATOM      8  S   UNL     1      -2.976  -1.919   9.603  0.00  0.00    +0.061 S 
ATOM      9  O   UNL     1      -4.337  -1.868  10.006  0.00  0.00    -0.153 OA
ATOM     10  O   UNL     1      -2.123  -3.005   9.937  0.00  0.00    -0.153 OA
BRANCH   8  11
ATOM     11  C   UNL     1      -2.208  -0.464  10.233  0.00  0.00    +0.106 A 
ATOM     12  C   UNL     1      -0.844  -0.442  10.453  0.00  0.00    +0.031 A 
ATOM     13  C   UNL     1      -0.240   0.700  10.943  0.00  0.00    +0.040 A 
ATOM     14  C   UNL     1      -1.004   1.820  11.224  0.00  0.00    +0.124 A 
ATOM     15  C   UNL     1      -2.372   1.796  11.009  0.00  0.00    +0.040 A 
ATOM     16  C   UNL     1      -2.972   0.654  10.514  0.00  0.00    +0.031 A 
ATOM     17  F   UNL     1      -0.416   2.936  11.708  0.00  0.00    -0.205 F 
ENDBRANCH   8  11
ENDBRANCH   4   8
BRANCH   1  18
ATOM     18  C   UNL     1      -2.053   0.197   4.375  0.00  0.00    +0.017 C 
ATOM     19  C   UNL     1      -1.131   1.250   4.991  0.00  0.00    -0.004 C 
BRANCH  18  21
ATOM     20  N   UNL     1      -0.921   0.064   2.179  0.00  0.00    -0.287 N 
ATOM     21  C   UNL     1      -1.306  -0.563   3.309  0.00  0.00    +0.203 C 
ATOM     22  O   UNL     1      -1.052  -1.738   3.467  0.00  0.00    -0.277 OA
ATOM     23  H   UNL     1      -1.088   1.145   2.066  0.00  0.00    +0.155 HD
BRANCH  20  29
ATOM     24  C   UNL     1      -0.411  -0.225  -0.164  0.00  0.00    -0.023 A 
ATOM     25  C   UNL     1       0.190  -0.946  -1.177  0.00  0.00    +0.006 A 
ATOM     26  C   UNL     1       0.901  -2.095  -0.883  0.00  0.00    +0.000 A 
ATOM     27  C   UNL     1       1.003  -2.532   0.425  0.00  0.00    +0.002 A 
ATOM     28  C   UNL     1       0.400  -1.819   1.442  0.00  0.00    +0.023 A 
ATOM     29  C   UNL     1      -0.310  -0.661   1.151  0.00  0.00    +0.037 A 
BRANCH  24  30
ATOM     30  C   UNL     1      -1.180   1.031  -0.484  0.00  0.00    +0.017 C 
ATOM     31  C   UNL     1      -0.222   2.090  -1.034  0.00  0.00    +0.012 C 
BRANCH  30  33
ATOM     32  C   UNL     1      -3.112   1.962  -1.766  0.00  0.00    +0.004 C 
ATOM     33  C   UNL     1      -2.251   0.719  -1.532  0.00  0.00    +0.004 C 
ENDBRANCH  30  33
ENDBRANCH  24  30
ENDBRANCH  20  29
ENDBRANCH  18  21
ENDBRANCH   1  18
TORSDOF 7
