REMARK  Name = ZINC09296656
REMARK  6 active torsions:
REMARK  status: ('A' for Active; 'I' for Inactive)
REMARK    1  A    between atoms: C_1  and  C_2
REMARK    2  A    between atoms: C_2  and  O_3
REMARK    3  A    between atoms: O_3  and  C_4
REMARK    4  A    between atoms: C_6  and  C_12
REMARK    5  A    between atoms: C_9  and  O_10
REMARK    6  A    between atoms: N_18  and  C_19
REMARK                            x       y       z     vdW  Elec       q    Type
REMARK                         _______ _______ _______ _____ _____    ______ ____
ROOT
ATOM      1  C   UNL     1      -0.208  -4.963   0.443  0.00  0.00    +0.028 C 
ATOM      2  C   UNL     1      -0.190  -6.303   0.227  0.00  0.00    +0.078 C 
ATOM      3  C   UNL     1       0.428  -7.065  -0.874  0.00  0.00    +0.256 C 
ATOM      4  O   UNL     1       1.034  -6.509  -1.771  0.00  0.00    -0.269 OA
ATOM      5  N   UNL     1       0.295  -8.380  -0.842  0.00  0.00    -0.260 N 
ATOM      6  C   UNL     1      -0.395  -8.991   0.183  0.00  0.00    +0.166 C 
ATOM      7  N   UNL     1      -0.619 -10.273   0.366  0.00  0.00    -0.226 NA
ATOM      8  S   UNL     1      -0.902  -7.618   1.205  0.00  0.00    -0.049 S 
ATOM      9  H   UNL     1       0.686  -8.920  -1.546  0.00  0.00    +0.157 HD
ENDROOT
BRANCH   1  12
ATOM     10  C   UNL     1       1.493  -2.055  -1.207  0.00  0.00    +0.163 A 
ATOM     11  C   UNL     1       1.029  -2.914  -0.230  0.00  0.00    +0.057 A 
ATOM     12  C   UNL     1       0.288  -4.046  -0.591  0.00  0.00    -0.019 A 
ATOM     13  C   UNL     1       0.022  -4.301  -1.942  0.00  0.00    +0.027 A 
ATOM     14  C   UNL     1       0.490  -3.438  -2.910  0.00  0.00    +0.063 A 
ATOM     15  C   UNL     1       1.220  -2.313  -2.549  0.00  0.00    +0.173 A 
ATOM     16 BR   UNL     1       0.131  -3.785  -4.734  0.00  0.00    -0.046 Br
BRANCH  15  17
ATOM     17  O   UNL     1       1.673  -1.463  -3.508  0.00  0.00    -0.503 OA
ATOM     18  H   UNL     1       2.551  -1.686  -3.848  0.00  0.00    +0.292 HD
ENDBRANCH  15  17
BRANCH  10  19
ATOM     19  O   UNL     1       2.212  -0.955  -0.859  0.00  0.00    -0.489 OA
BRANCH  19  21
ATOM     20  C   UNL     1       3.274   0.525   0.729  0.00  0.00    +0.048 C 
ATOM     21  C   UNL     1       2.455  -0.753   0.534  0.00  0.00    +0.226 C 
ENDBRANCH  19  21
ENDBRANCH  10  19
ENDBRANCH   1  12
BRANCH   7  22
ATOM     22  C   UNL     1      -0.139 -11.187  -0.532  0.00  0.00    +0.067 A 
ATOM     23  C   UNL     1      -0.270 -10.959  -1.903  0.00  0.00    +0.028 A 
ATOM     24  C   UNL     1       0.216 -11.884  -2.803  0.00  0.00    +0.002 A 
ATOM     25  C   UNL     1       0.833 -13.037  -2.349  0.00  0.00    +0.000 A 
ATOM     26  C   UNL     1       0.965 -13.271  -0.992  0.00  0.00    +0.002 A 
ATOM     27  C   UNL     1       0.489 -12.351  -0.081  0.00  0.00    +0.028 A 
ENDBRANCH   7  22
TORSDOF 5
