REMARK  Name = ZINC38052592
REMARK  5 active torsions:
REMARK  status: ('A' for Active; 'I' for Inactive)
REMARK    1  A    between atoms: C_1  and  C_2
REMARK    2  A    between atoms: C_6  and  O_18
REMARK    3  A    between atoms: C_7  and  N_8
REMARK    4  A    between atoms: N_8  and  S_9
REMARK    5  A    between atoms: S_9  and  C_12
REMARK                            x       y       z     vdW  Elec       q    Type
REMARK                         _______ _______ _______ _____ _____    ______ ____
ROOT
ATOM      1  N   UNL     1      -0.033  -0.266   2.528  0.00  0.00    -0.212 N 
ATOM      2  H   UNL     1      -0.845   0.166   2.836  0.00  0.00    +0.174 HD
ENDROOT
BRANCH   1   9
ATOM      3  C   UNL     1      -0.163   1.600   0.386  0.00  0.00    +0.046 C 
ATOM      4  C   UNL     1      -0.013   0.120   0.144  0.00  0.00    -0.025 A 
ATOM      5  C   UNL     1       0.071  -0.365  -1.147  0.00  0.00    +0.005 A 
ATOM      6  C   UNL     1       0.209  -1.722  -1.372  0.00  0.00    +0.004 A 
ATOM      7  C   UNL     1       0.263  -2.602  -0.306  0.00  0.00    +0.047 A 
ATOM      8  C   UNL     1       0.179  -2.124   0.991  0.00  0.00    +0.139 A 
ATOM      9  C   UNL     1       0.046  -0.755   1.219  0.00  0.00    +0.092 A 
BRANCH   8  10
ATOM     10  O   UNL     1       0.232  -2.988   2.040  0.00  0.00    -0.505 OA
ATOM     11  H   UNL     1       1.130  -3.230   2.305  0.00  0.00    +0.292 HD
ENDBRANCH   8  10
ENDBRANCH   1   9
BRANCH   1  12
ATOM     12  S   UNL     1       1.259  -0.426   3.551  0.00  0.00    +0.079 S 
ATOM     13  O   UNL     1       0.882   0.181   4.779  0.00  0.00    -0.149 OA
ATOM     14  O   UNL     1       1.679  -1.781   3.468  0.00  0.00    -0.149 OA
BRANCH  12  15
ATOM     15  C   UNL     1       2.570   0.548   2.890  0.00  0.00    +0.147 A 
ATOM     16  C   UNL     1       2.819   1.870   3.056  0.00  0.00    +0.038 A 
ATOM     17  C   UNL     1       3.920   2.429   2.434  0.00  0.00    +0.025 A 
ATOM     18  C   UNL     1       4.719   1.637   1.676  0.00  0.00    +0.057 A 
ATOM     19  S   UNL     1       3.920   0.049   1.833  0.00  0.00    -0.061 S 
ATOM     20 BR   UNL     1       6.278   2.096   0.709  0.00  0.00    -0.043 Br
ENDBRANCH  12  15
ENDBRANCH   1  12
TORSDOF 4
