REMARK  Name = ZINC01913206
REMARK  14 active torsions:
REMARK  status: ('A' for Active; 'I' for Inactive)
REMARK    1  A    between atoms: C_1  and  C_2
REMARK    2  A    between atoms: C_2  and  C_3
REMARK    3  A    between atoms: C_3  and  C_4
REMARK    4  A    between atoms: C_4  and  N_61
REMARK    5  A    between atoms: C_5  and  C_6
REMARK    6  A    between atoms: C_5  and  N_61
REMARK    7  A    between atoms: C_7  and  C_8
REMARK    8  A    between atoms: C_7  and  N_61
REMARK    9  A    between atoms: C_9  and  O_32
REMARK   10  A    between atoms: C_15  and  C_28
REMARK   11  A    between atoms: C_16  and  O_19
REMARK   12  A    between atoms: O_19  and  C_20
REMARK   13  A    between atoms: C_23  and  C_26
REMARK   14  A    between atoms: C_26  and  C_27
REMARK                            x       y       z     vdW  Elec       q    Type
REMARK                         _______ _______ _______ _____ _____    ______ ____
ROOT
ATOM      1  C   UNL     1       1.003   1.488   0.524  0.00  0.00    +0.020 A 
ATOM      2  C   UNL     1       2.316   1.785   0.848  0.00  0.00    +0.122 A 
ATOM      3  C   UNL     1       2.699   3.095   1.128  0.00  0.00    +0.046 A 
ATOM      4  C   UNL     1       1.782   4.106   1.087  0.00  0.00    +0.019 A 
ATOM      5  C   UNL     1       0.454   3.824   0.763  0.00  0.00    +0.068 A 
ATOM      6  C   UNL     1       0.060   2.505   0.473  0.00  0.00    +0.144 A 
ATOM      7  O   UNL     1      -1.224   2.245   0.155  0.00  0.00    -0.447 OA
ATOM      8  C   UNL     1      -2.158   3.204   0.097  0.00  0.00    +0.254 A 
ATOM      9  C   UNL     1      -1.889   4.500   0.351  0.00  0.00    +0.222 A 
ATOM     10  C   UNL     1      -0.565   4.886   0.708  0.00  0.00    +0.235 A 
ATOM     11  O   UNL     1      -0.284   6.049   0.944  0.00  0.00    -0.283 OA
ENDROOT
BRANCH   8  12
ATOM     12  C   UNL     1      -3.568   2.817  -0.267  0.00  0.00    +0.454 C 
ATOM     13  F   UNL     1      -3.728   2.889  -1.655  0.00  0.00    -0.163 F 
ATOM     14  F   UNL     1      -3.819   1.510   0.165  0.00  0.00    -0.163 F 
ATOM     15  F   UNL     1      -4.466   3.693   0.352  0.00  0.00    -0.163 F 
ENDBRANCH   8  12
BRANCH   2  16
ATOM     16  O   UNL     1       3.239   0.790   0.893  0.00  0.00    -0.506 OA
ATOM     17  H   UNL     1       3.688   0.632   0.051  0.00  0.00    +0.292 HD
ENDBRANCH   2  16
BRANCH   1  18
ATOM     18  C   UNL     1       0.600   0.068   0.223  0.00  0.00    -0.036 C 
BRANCH  18  19
ATOM     19  N   UNL     1       0.206  -0.594   1.485  0.00  0.00    +0.382 N 
ATOM     20  H   UNL     1       0.952  -0.462   2.178  0.00  0.00    -0.081 HD
BRANCH  19  21
ATOM     21  C   UNL     1      -1.042   0.007   2.002  0.00  0.00    -0.082 C 
ATOM     22  C   UNL     1      -2.207  -0.275   1.051  0.00  0.00    -0.017 C 
ENDBRANCH  19  21
BRANCH  19  23
ATOM     23  C   UNL     1       0.013  -2.042   1.257  0.00  0.00    -0.078 C 
BRANCH  23  24
ATOM     24  C   UNL     1      -0.098  -2.743   2.612  0.00  0.00    -0.019 C 
BRANCH  24  26
ATOM     25  C   UNL     1      -0.319  -4.955   3.753  0.00  0.00    +0.004 C 
ATOM     26  C   UNL     1      -0.208  -4.254   2.398  0.00  0.00    -0.005 C 
ENDBRANCH  24  26
ENDBRANCH  23  24
ENDBRANCH  19  23
ENDBRANCH  18  19
ENDBRANCH   1  18
BRANCH   9  27
ATOM     27  O   UNL     1      -2.878   5.432   0.277  0.00  0.00    -0.448 OA
BRANCH  27  28
ATOM     28  C   UNL     1      -3.592   5.694   1.402  0.00  0.00    +0.129 A 
ATOM     29  C   UNL     1      -3.309   5.016   2.579  0.00  0.00    +0.046 A 
ATOM     30  C   UNL     1      -4.033   5.289   3.724  0.00  0.00    +0.007 A 
ATOM     31  C   UNL     1      -5.047   6.228   3.694  0.00  0.00    -0.047 A 
ATOM     32  C   UNL     1      -5.335   6.902   2.521  0.00  0.00    +0.007 A 
ATOM     33  C   UNL     1      -4.611   6.637   1.375  0.00  0.00    +0.046 A 
BRANCH  31  34
ATOM     34  C   UNL     1      -5.840   6.519   4.942  0.00  0.00    +0.032 C 
ATOM     35  C   UNL     1      -7.052   5.588   5.006  0.00  0.00    +0.009 C 
ENDBRANCH  31  34
ENDBRANCH  27  28
ENDBRANCH   9  27
TORSDOF 11
