REMARK  Name = ZINC21243407
REMARK  6 active torsions:
REMARK  status: ('A' for Active; 'I' for Inactive)
REMARK    1  A    between atoms: C_1  and  C_2
REMARK    2  A    between atoms: C_2  and  C_4
REMARK    3  A    between atoms: C_2  and  S_20
REMARK    4  A    between atoms: N_9  and  C_10
REMARK    5  A    between atoms: S_20  and  C_21
REMARK    6  A    between atoms: N_26  and  C_27
REMARK                            x       y       z     vdW  Elec       q    Type
REMARK                         _______ _______ _______ _____ _____    ______ ____
ROOT
ATOM      1  C   UNL     1      -4.094   2.129  -0.089  0.00  0.00    +0.233 C 
ATOM      2  O   UNL     1      -4.079   3.307   0.196  0.00  0.00    -0.274 OA
ATOM      3  N   UNL     1      -5.238   1.551  -0.507  0.00  0.00    -0.239 N 
ATOM      4  C   UNL     1      -6.365   2.283  -0.608  0.00  0.00    +0.306 C 
ATOM      5  O   UNL     1      -6.350   3.465  -0.322  0.00  0.00    -0.252 OA
ATOM      6  N   UNL     1      -7.508   1.706  -1.026  0.00  0.00    -0.294 N 
ATOM      7  H   UNL     1      -5.251   0.482  -0.766  0.00  0.00    +0.159 HD
ATOM      8  H   UNL     1      -7.522   0.637  -1.285  0.00  0.00    +0.151 HD
ENDROOT
BRANCH   6   9
ATOM      9  C   UNL     1      -8.733   2.502  -1.136  0.00  0.00    +0.037 C 
ATOM     10  C   UNL     1      -9.091   3.079   0.235  0.00  0.00    +0.029 C 
ATOM     11  C   UNL     1     -10.370   3.911   0.120  0.00  0.00    -0.008 C 
ATOM     12  C   UNL     1     -11.514   3.022  -0.372  0.00  0.00    +0.007 C 
ATOM     13  C   UNL     1     -11.156   2.444  -1.743  0.00  0.00    -0.008 C 
ATOM     14  C   UNL     1      -9.877   1.612  -1.628  0.00  0.00    +0.029 C 
ATOM     15  C   UNL     1     -10.935   3.586  -2.736  0.00  0.00    +0.007 C 
ATOM     16  C   UNL     1      -9.791   4.476  -2.244  0.00  0.00    -0.008 C 
ATOM     17  C   UNL     1     -10.149   5.053  -0.873  0.00  0.00    +0.007 C 
ATOM     18  C   UNL     1      -8.512   3.644  -2.129  0.00  0.00    +0.029 C 
ENDBRANCH   6   9
BRANCH   1  20
ATOM     19  C   UNL     1      -2.861   0.509   1.328  0.00  0.00    +0.029 C 
ATOM     20  C   UNL     1      -2.834   1.310   0.024  0.00  0.00    +0.136 C 
BRANCH  20  21
ATOM     21  S   UNL     1      -1.394   2.413   0.022  0.00  0.00    -0.084 S 
BRANCH  21  22
ATOM     22  C   UNL     1      -0.016   1.315   0.009  0.00  0.00    +0.161 A 
ATOM     23  N   UNL     1       0.002  -0.004   0.002  0.00  0.00    -0.133 NA
ATOM     24  N   UNL     1       1.205  -0.672  -0.013  0.00  0.00    -0.125 NA
ATOM     25  C   UNL     1       2.334   0.009  -0.020  0.00  0.00    +0.183 A 
ATOM     26  S   UNL     1       1.730   1.690  -0.005  0.00  0.00    -0.025 S 
ATOM     27  N   UNL     1       3.643  -0.457  -0.035  0.00  0.00    -0.319 N 
ATOM     28  H   UNL     1       4.481   0.256  -0.039  0.00  0.00    +0.148 HD
BRANCH  27  29
ATOM     29  C   UNL     1       3.908  -1.898  -0.044  0.00  0.00    +0.072 C 
ATOM     30  C   UNL     1       3.890  -2.429   1.391  0.00  0.00    +0.022 C 
ATOM     31  C   UNL     1       4.167  -3.933   1.381  0.00  0.00    +0.002 C 
ATOM     32  C   UNL     1       5.539  -4.196   0.757  0.00  0.00    +0.000 C 
ATOM     33  C   UNL     1       5.557  -3.665  -0.678  0.00  0.00    +0.002 C 
ATOM     34  C   UNL     1       5.280  -2.160  -0.668  0.00  0.00    +0.022 C 
ENDBRANCH  27  29
ENDBRANCH  21  22
ENDBRANCH  20  21
ENDBRANCH   1  20
TORSDOF 5
