REMARK  Name = ZINC48153929
REMARK  9 active torsions:
REMARK  status: ('A' for Active; 'I' for Inactive)
REMARK    1  A    between atoms: C_1  and  C_2
REMARK    2  A    between atoms: C_2  and  C_3
REMARK    3  A    between atoms: C_6  and  C_9
REMARK    4  A    between atoms: C_9  and  N_10
REMARK    5  A    between atoms: N_10  and  C_11
REMARK    6  A    between atoms: C_14  and  C_16
REMARK    7  A    between atoms: C_16  and  C_17
REMARK    8  A    between atoms: C_17  and  C_19
REMARK    9  A    between atoms: C_17  and  N_24
REMARK                            x       y       z     vdW  Elec       q    Type
REMARK                         _______ _______ _______ _____ _____    ______ ____
ROOT
ATOM      1  N   UNL     1      -6.366  -0.871   0.060  0.00  0.00    -0.294 N 
ATOM      2  C   UNL     1      -6.760  -0.353   1.240  0.00  0.00    +0.218 C 
ATOM      3  O   UNL     1      -6.282  -0.769   2.275  0.00  0.00    -0.276 OA
ENDROOT
BRANCH   1   4
ATOM      4  C   UNL     1      -6.860  -0.296  -1.194  0.00  0.00    +0.077 C 
ATOM      5  C   UNL     1      -6.426  -0.968  -2.498  0.00  0.00    +0.024 C 
ATOM      6  C   UNL     1      -5.841   0.391  -2.105  0.00  0.00    +0.024 C 
ENDBRANCH   1   4
BRANCH   1   7
ATOM      7  C   UNL     1      -5.445  -2.010   0.031  0.00  0.00    +0.143 C 
BRANCH   7  11
ATOM      8  C   UNL     1      -1.419  -0.586  -0.068  0.00  0.00    -0.048 A 
ATOM      9  C   UNL     1      -2.040  -0.821   1.145  0.00  0.00    +0.004 A 
ATOM     10  C   UNL     1      -3.342  -1.282   1.177  0.00  0.00    +0.005 A 
ATOM     11  C   UNL     1      -4.025  -1.507  -0.004  0.00  0.00    -0.030 A 
ATOM     12  C   UNL     1      -3.405  -1.271  -1.217  0.00  0.00    +0.005 A 
ATOM     13  C   UNL     1      -2.103  -0.806  -1.249  0.00  0.00    +0.004 A 
BRANCH   8  15
ATOM     14  C   UNL     1       0.002   1.446  -0.090  0.00  0.00    +0.009 C 
ATOM     15  C   UNL     1       0.001  -0.084  -0.103  0.00  0.00    +0.032 C 
ENDBRANCH   8  15
ENDBRANCH   7  11
ENDBRANCH   1   7
BRANCH   2  16
ATOM     16  C   UNL     1      -7.792   0.744   1.274  0.00  0.00    +0.123 C 
BRANCH  16  17
ATOM     17  C   UNL     1      -7.967   1.235   2.713  0.00  0.00    +0.120 C 
BRANCH  17  18
ATOM     18  N   UNL     1      -8.521   0.155   3.533  0.00  0.00    -0.292 N 
ATOM     19  C   UNL     1      -8.307   0.141   4.864  0.00  0.00    +0.298 C 
ATOM     20  O   UNL     1      -7.653   1.025   5.383  0.00  0.00    -0.253 OA
ATOM     21  N   UNL     1      -8.816  -0.852   5.619  0.00  0.00    -0.313 N 
ATOM     22  H   UNL     1      -9.043  -0.550   3.119  0.00  0.00    +0.151 HD
ATOM     23  H   UNL     1      -9.338  -1.557   5.204  0.00  0.00    +0.146 HD
ATOM     24  H   UNL     1      -8.662  -0.862   6.576  0.00  0.00    +0.146 HD
ENDBRANCH  17  18
BRANCH  17  25
ATOM     25  C   UNL     1      -8.908   2.413   2.731  0.00  0.00    +0.010 A 
ATOM     26  C   UNL     1      -8.618   3.735   2.796  0.00  0.00    +0.013 A 
ATOM     27  C   UNL     1      -9.655   4.649   2.799  0.00  0.00    +0.008 A 
ATOM     28  C   UNL     1     -10.931   4.196   2.737  0.00  0.00    +0.045 A 
ATOM     29  S   UNL     1     -10.691   2.428   2.665  0.00  0.00    -0.100 S 
ENDBRANCH  17  25
ENDBRANCH  16  17
ENDBRANCH   2  16
TORSDOF 8
