REMARK  Name = ZINC09445590
REMARK  3 active torsions:
REMARK  status: ('A' for Active; 'I' for Inactive)
REMARK    1  A    between atoms: C_4  and  C_7
REMARK    2  A    between atoms: C_8  and  N_18
REMARK    3  A    between atoms: C_10  and  C_12
REMARK                            x       y       z     vdW  Elec       q    Type
REMARK                         _______ _______ _______ _____ _____    ______ ____
ROOT
ATOM      1  C   UNL     1      -3.649   3.257  -0.041  0.00  0.00    +0.180 A 
ATOM      2  C   UNL     1      -2.401   3.811   0.034  0.00  0.00    +0.189 A 
ATOM      3  N   UNL     1      -2.554   5.138   0.148  0.00  0.00    -0.190 NA
ATOM      4  C   UNL     1      -3.837   5.420   0.137  0.00  0.00    +0.230 A 
ATOM      5  O   UNL     1      -4.535   4.277   0.025  0.00  0.00    -0.433 OA
ENDROOT
BRANCH   2   6
ATOM      6  N   UNL     1      -1.185   3.118   0.002  0.00  0.00    -0.250 N 
ATOM      7  C   UNL     1      -0.616   2.797  -1.204  0.00  0.00    +0.100 A 
ATOM      8  C   UNL     1       0.554   2.123  -1.232  0.00  0.00    +0.052 A 
ATOM      9  C   UNL     1       1.176   1.771  -0.011  0.00  0.00    +0.089 A 
ATOM     10  S   UNL     1       2.663   0.923  -0.013  0.00  0.00    -0.033 S 
ATOM     11  N   UNL     1       0.588   2.110   1.154  0.00  0.00    -0.301 N 
ATOM     12  H   UNL     1       1.009   1.872   1.994  0.00  0.00    +0.171 HD
ATOM     13  C   UNL     1      -0.582   2.777   1.156  0.00  0.00    +0.333 A 
ATOM     14  O   UNL     1      -1.100   3.075   2.214  0.00  0.00    -0.246 OA
ENDBRANCH   2   6
BRANCH   1  18
ATOM     15  C   UNL     1      -4.565  -0.872  -0.407  0.00  0.00    +0.000 A 
ATOM     16  C   UNL     1      -5.580   0.067  -0.470  0.00  0.00    +0.001 A 
ATOM     17  C   UNL     1      -5.290   1.410  -0.352  0.00  0.00    +0.011 A 
ATOM     18  C   UNL     1      -3.967   1.822  -0.168  0.00  0.00    +0.021 A 
ATOM     19  C   UNL     1      -2.947   0.869  -0.111  0.00  0.00    +0.011 A 
ATOM     20  C   UNL     1      -3.253  -0.471  -0.225  0.00  0.00    +0.001 A 
ENDBRANCH   1  18
BRANCH   4  21
ATOM     21  C   UNL     1      -4.419   6.774   0.239  0.00  0.00    +0.037 A 
ATOM     22  C   UNL     1      -5.804   6.945   0.217  0.00  0.00    +0.013 A 
ATOM     23  C   UNL     1      -6.341   8.212   0.319  0.00  0.00    +0.001 A 
ATOM     24  C   UNL     1      -5.509   9.312   0.430  0.00  0.00    +0.000 A 
ATOM     25  C   UNL     1      -4.135   9.150   0.446  0.00  0.00    +0.001 A 
ATOM     26  C   UNL     1      -3.585   7.889   0.351  0.00  0.00    +0.013 A 
ENDBRANCH   4  21
TORSDOF 3
