REMARK  Name = ZINC61804013
REMARK  4 active torsions:
REMARK  status: ('A' for Active; 'I' for Inactive)
REMARK    1  A    between atoms: C_1  and  C_2
REMARK    2  A    between atoms: C_2  and  C_18
REMARK    3  A    between atoms: N_5  and  S_8
REMARK    4  A    between atoms: S_8  and  C_11
REMARK                            x       y       z     vdW  Elec       q    Type
REMARK                         _______ _______ _______ _____ _____    ______ ____
ROOT
ATOM      1  S   UNL     1      -1.173  -3.668   2.148  0.00  0.00    +0.062 S 
ATOM      2  O   UNL     1      -0.421  -3.521   3.344  0.00  0.00    -0.153 OA
ATOM      3  O   UNL     1      -2.589  -3.544   2.119  0.00  0.00    -0.153 OA
ENDROOT
BRANCH   1   8
ATOM      4  C   UNL     1      -0.019   1.526   0.010  0.00  0.00    +0.011 C 
ATOM      5  C   UNL     1       0.002  -0.004   0.002  0.00  0.00    -0.032 C 
ATOM      6  C   UNL     1      -1.434  -0.533   0.011  0.00  0.00    +0.023 C 
ATOM      7  C   UNL     1      -1.409  -2.065  -0.032  0.00  0.00    +0.110 C 
ATOM      8  N   UNL     1      -0.578  -2.556   1.075  0.00  0.00    -0.177 NA
ATOM      9  C   UNL     1       0.791  -2.042   1.212  0.00  0.00    +0.110 C 
ATOM     10  C   UNL     1       0.742  -0.511   1.242  0.00  0.00    +0.023 C 
ATOM     11  C   UNL     1       0.719  -0.497  -1.256  0.00  0.00    +0.011 C 
ENDBRANCH   1   8
BRANCH   1  12
ATOM     12  C   UNL     1      -0.795  -5.265   1.507  0.00  0.00    +0.119 A 
ATOM     13  C   UNL     1       0.070  -6.098   2.193  0.00  0.00    +0.029 A 
ATOM     14  C   UNL     1       0.367  -7.351   1.690  0.00  0.00    +0.002 A 
ATOM     15  C   UNL     1      -0.201  -7.772   0.502  0.00  0.00    +0.001 A 
ATOM     16  C   UNL     1      -1.065  -6.940  -0.184  0.00  0.00    +0.017 A 
ATOM     17  C   UNL     1      -1.367  -5.688   0.321  0.00  0.00    +0.044 A 
ATOM     18 BR   UNL     1      -2.555  -4.552  -0.614  0.00  0.00    -0.048 Br
ENDBRANCH   1  12
TORSDOF 2
