REMARK  Name = ZINC33937005
REMARK  14 active torsions:
REMARK  status: ('A' for Active; 'I' for Inactive)
REMARK    1  A    between atoms: C_1  and  C_2
REMARK    2  A    between atoms: C_2  and  C_3
REMARK    3  A    between atoms: C_3  and  C_5
REMARK    4  A    between atoms: C_3  and  N_17
REMARK    5  A    between atoms: N_9  and  C_10
REMARK    6  A    between atoms: C_10  and  C_11
REMARK    7  A    between atoms: N_17  and  C_18
REMARK    8  A    between atoms: N_17  and  C_27
REMARK    9  A    between atoms: C_18  and  C_19
REMARK   10  A    between atoms: C_22  and  O_25
REMARK   11  A    between atoms: O_25  and  C_26
REMARK   12  A    between atoms: C_27  and  C_28
REMARK   13  A    between atoms: C_33  and  O_40
REMARK   14  A    between atoms: O_40  and  C_41
REMARK                            x       y       z     vdW  Elec       q    Type
REMARK                         _______ _______ _______ _____ _____    ______ ____
ROOT
ATOM      1  N   UNL     1       2.946  -0.082   0.787  0.00  0.00    +0.392 N 
ATOM      2  H   UNL     1       3.616  -0.532   0.181  0.00  0.00    -0.080 HD
ENDROOT
BRANCH   1   3
ATOM      3  C   UNL     1       1.644  -0.748   0.659  0.00  0.00    +0.003 C 
BRANCH   3   4
ATOM      4  C   UNL     1       0.738  -0.300   1.777  0.00  0.00    +0.138 A 
ATOM      5  N   UNL     1       1.021  -0.292   3.057  0.00  0.00    -0.115 NA
ATOM      6  N   UNL     1      -0.008   0.159   3.689  0.00  0.00    -0.023 NA
ATOM      7  N   UNL     1      -0.939   0.439   2.845  0.00  0.00    -0.044 NA
ATOM      8  N   UNL     1      -0.515   0.174   1.655  0.00  0.00    -0.228 N 
BRANCH   8   9
ATOM      9  C   UNL     1      -1.260   0.354   0.406  0.00  0.00    +0.178 C 
BRANCH   9  10
ATOM     10  C   UNL     1      -2.039  -0.925   0.089  0.00  0.00    +0.140 C 
ATOM     11  C   UNL     1      -2.905  -0.725  -1.180  0.00  0.00    +0.035 C 
ATOM     12  C   UNL     1      -3.053  -2.192  -1.670  0.00  0.00    +0.031 C 
ATOM     13  C   UNL     1      -1.694  -2.808  -1.273  0.00  0.00    +0.160 C 
ATOM     14  O   UNL     1      -1.134  -1.992  -0.236  0.00  0.00    -0.375 OA
ENDBRANCH   9  10
ENDBRANCH   8   9
ENDBRANCH   3   4
BRANCH   3  16
ATOM     15  C   UNL     1       2.689  -2.729  -0.448  0.00  0.00    +0.002 C 
ATOM     16  C   UNL     1       1.837  -2.264   0.734  0.00  0.00    -0.011 C 
ENDBRANCH   3  16
ENDBRANCH   1   3
BRANCH   1  17
ATOM     17  C   UNL     1       3.407  -0.170   2.179  0.00  0.00    -0.042 C 
BRANCH  17  18
ATOM     18  C   UNL     1       3.684  -1.610   2.525  0.00  0.00    -0.064 A 
ATOM     19  C   UNL     1       2.839  -2.288   3.385  0.00  0.00    +0.005 A 
ATOM     20  C   UNL     1       3.090  -3.608   3.704  0.00  0.00    +0.046 A 
ATOM     21  C   UNL     1       4.192  -4.254   3.162  0.00  0.00    +0.120 A 
ATOM     22  C   UNL     1       5.038  -3.572   2.300  0.00  0.00    +0.046 A 
ATOM     23  C   UNL     1       4.779  -2.254   1.979  0.00  0.00    +0.005 A 
BRANCH  21  24
ATOM     24  O   UNL     1       4.442  -5.553   3.476  0.00  0.00    -0.495 OA
ATOM     25  C   UNL     1       5.594  -6.154   2.881  0.00  0.00    +0.277 C 
ENDBRANCH  21  24
ENDBRANCH  17  18
ENDBRANCH   1  17
BRANCH   1  26
ATOM     26  C   UNL     1       2.814   1.331   0.404  0.00  0.00    -0.036 C 
BRANCH  26  27
ATOM     27  C   UNL     1       2.539   1.427  -1.075  0.00  0.00    +0.001 A 
ATOM     28  C   UNL     1       1.282   1.690  -1.513  0.00  0.00    +0.017 A 
ATOM     29  C   UNL     1       1.048   1.777  -2.954  0.00  0.00    -0.001 A 
ATOM     30  C   UNL     1      -0.228   2.047  -3.465  0.00  0.00    +0.013 A 
ATOM     31  C   UNL     1      -0.416   2.123  -4.814  0.00  0.00    +0.046 A 
ATOM     32  C   UNL     1       0.653   1.933  -5.689  0.00  0.00    +0.122 A 
ATOM     33  C   UNL     1       1.921   1.666  -5.205  0.00  0.00    +0.072 A 
ATOM     34  C   UNL     1       2.132   1.585  -3.834  0.00  0.00    +0.053 A 
ATOM     35  N   UNL     1       3.385   1.321  -3.324  0.00  0.00    -0.322 N 
ATOM     36  H   UNL     1       4.130   1.190  -3.931  0.00  0.00    +0.169 HD
ATOM     37  C   UNL     1       3.590   1.248  -1.997  0.00  0.00    +0.251 A 
ATOM     38  O   UNL     1       4.713   1.017  -1.581  0.00  0.00    -0.268 OA
BRANCH  32  39
ATOM     39  O   UNL     1       0.447   2.012  -7.029  0.00  0.00    -0.495 OA
ATOM     40  C   UNL     1      -0.885   2.290  -7.466  0.00  0.00    +0.277 C 
ENDBRANCH  32  39
ENDBRANCH  26  27
ENDBRANCH   1  26
TORSDOF 11
