REMARK  Name = ZINC02347279
REMARK  6 active torsions:
REMARK  status: ('A' for Active; 'I' for Inactive)
REMARK    1  A    between atoms: C_8  and  N_27
REMARK    2  A    between atoms: C_9  and  C_12
REMARK    3  A    between atoms: N_16  and  C_20
REMARK    4  A    between atoms: C_20  and  C_21
REMARK    5  A    between atoms: N_27  and  C_28
REMARK    6  A    between atoms: C_28  and  C_29
REMARK                            x       y       z     vdW  Elec       q    Type
REMARK                         _______ _______ _______ _____ _____    ______ ____
ROOT
ATOM      1  C   UNL     1      -0.010   1.363  -0.233  0.00  0.00    +0.005 A 
ATOM      2  C   UNL     1       1.188   2.045  -0.483  0.00  0.00    +0.018 A 
ATOM      3  C   UNL     1       2.361   1.372  -0.496  0.00  0.00    +0.096 A 
ATOM      4  N   UNL     1       2.397   0.029  -0.267  0.00  0.00    -0.268 N 
ATOM      5  C   UNL     1       1.245  -0.663  -0.020  0.00  0.00    +0.142 A 
ATOM      6  C   UNL     1       0.015   0.020  -0.003  0.00  0.00    +0.047 A 
ATOM      7  N   UNL     1       1.260  -1.977   0.207  0.00  0.00    -0.214 NA
ATOM      8  C   UNL     1       2.389  -2.671   0.203  0.00  0.00    +0.134 A 
ATOM      9  C   UNL     1       3.614  -2.007  -0.048  0.00  0.00    +0.081 A 
ATOM     10  C   UNL     1       3.586  -0.613  -0.287  0.00  0.00    +0.267 A 
ATOM     11  O   UNL     1       4.617  -0.001  -0.507  0.00  0.00    -0.267 OA
ENDROOT
BRANCH   9  12
ATOM     12  C   UNL     1       4.835  -2.721  -0.059  0.00  0.00    +0.037 C 
ATOM     13  C   UNL     1       5.775  -2.479   0.900  0.00  0.00    +0.077 C 
ATOM     14  C   UNL     1       5.699  -1.648   2.054  0.00  0.00    +0.258 C 
ATOM     15  O   UNL     1       4.686  -1.019   2.307  0.00  0.00    -0.269 OA
ATOM     16  N   UNL     1       6.757  -1.578   2.842  0.00  0.00    -0.253 N 
ATOM     17  C   UNL     1       7.880  -2.276   2.562  0.00  0.00    +0.121 C 
ATOM     18  S   UNL     1       9.353  -2.336   3.433  0.00  0.00    -0.027 S 
ATOM     19  S   UNL     1       7.434  -3.127   1.056  0.00  0.00    -0.061 S 
BRANCH  16  20
ATOM     20  C   UNL     1       6.713  -0.732   4.038  0.00  0.00    +0.146 C 
BRANCH  20  21
ATOM     21  C   UNL     1       6.198  -1.550   5.223  0.00  0.00    +0.136 C 
ATOM     22  C   UNL     1       6.033  -0.638   6.457  0.00  0.00    +0.035 C 
ATOM     23  C   UNL     1       6.523  -1.553   7.612  0.00  0.00    +0.031 C 
ATOM     24  C   UNL     1       7.636  -2.360   6.896  0.00  0.00    +0.160 C 
ATOM     25  O   UNL     1       7.147  -2.569   5.559  0.00  0.00    -0.375 OA
ENDBRANCH  20  21
ENDBRANCH  16  20
ENDBRANCH   9  12
BRANCH   8  26
ATOM     26  N   UNL     1       2.371  -4.027   0.441  0.00  0.00    -0.321 N 
ATOM     27  H   UNL     1       3.200  -4.532   0.437  0.00  0.00    +0.148 HD
BRANCH  26  28
ATOM     28  C   UNL     1       1.101  -4.709   0.700  0.00  0.00    +0.177 C 
BRANCH  28  29
ATOM     29  C   UNL     1       1.355  -6.176   0.928  0.00  0.00    +0.122 A 
ATOM     30  C   UNL     1       1.601  -6.757   2.116  0.00  0.00    +0.046 A 
ATOM     31  C   UNL     1       1.779  -8.138   1.868  0.00  0.00    +0.041 A 
ATOM     32  C   UNL     1       1.631  -8.318   0.543  0.00  0.00    +0.195 A 
ATOM     33  O   UNL     1       1.369  -7.127  -0.020  0.00  0.00    -0.466 OA
ENDBRANCH  28  29
ENDBRANCH  26  28
ENDBRANCH   8  26
TORSDOF 6
