REMARK  Name = ZINC12675837
REMARK  8 active torsions:
REMARK  status: ('A' for Active; 'I' for Inactive)
REMARK    1  A    between atoms: C_1  and  C_2
REMARK    2  A    between atoms: C_2  and  C_3
REMARK    3  A    between atoms: C_4  and  C_29
REMARK    4  A    between atoms: C_6  and  C_8
REMARK    5  A    between atoms: N_10  and  N_11
REMARK    6  A    between atoms: C_12  and  C_14
REMARK    7  A    between atoms: C_14  and  N_15
REMARK    8  A    between atoms: C_23  and  C_24
REMARK                            x       y       z     vdW  Elec       q    Type
REMARK                         _______ _______ _______ _____ _____    ______ ____
ROOT
ATOM      1  N   UNL     1       5.766   0.157   1.616  0.00  0.00    -0.233 N 
ATOM      2  C   UNL     1       4.746  -0.689   1.375  0.00  0.00    +0.249 C 
ATOM      3  O   UNL     1       4.149  -1.198   2.299  0.00  0.00    -0.272 OA
ATOM      4  H   UNL     1       6.244   0.564   0.876  0.00  0.00    +0.173 HD
ENDROOT
BRANCH   1   7
ATOM      5  C   UNL     1       7.158   1.296   3.176  0.00  0.00    +0.267 C 
ATOM      6  O   UNL     1       7.757   1.807   2.248  0.00  0.00    -0.268 OA
ATOM      7  N   UNL     1       6.137   0.450   2.935  0.00  0.00    -0.230 N 
ATOM      8  H   UNL     1       5.660   0.043   3.674  0.00  0.00    +0.173 HD
BRANCH   5  12
ATOM      9  C   UNL     1       7.874   1.843   7.192  0.00  0.00    -0.007 A 
ATOM     10  C   UNL     1       8.704   2.543   6.376  0.00  0.00    -0.040 A 
ATOM     11  C   UNL     1       8.554   2.435   5.016  0.00  0.00    +0.024 A 
ATOM     12  C   UNL     1       7.546   1.602   4.556  0.00  0.00    +0.076 A 
ATOM     13  S   UNL     1       6.840   1.005   6.081  0.00  0.00    -0.088 S 
ATOM     14  C   UNL     1       9.776   3.428   6.957  0.00  0.00    +0.044 C 
BRANCH   9  16
ATOM     15  C   UNL     1       6.922   2.905   9.221  0.00  0.00    +0.009 C 
ATOM     16  C   UNL     1       7.852   1.808   8.699  0.00  0.00    +0.039 C 
ENDBRANCH   9  16
ENDBRANCH   5  12
ENDBRANCH   1   7
BRANCH   2  17
ATOM     17  C   UNL     1       4.346  -1.004  -0.044  0.00  0.00    +0.221 C 
BRANCH  17  18
ATOM     18  N   UNL     1       3.221  -1.941  -0.039  0.00  0.00    -0.313 N 
ATOM     19  C   UNL     1       3.302  -3.321  -0.046  0.00  0.00    +0.070 A 
ATOM     20  C   UNL     1       4.356  -4.223  -0.062  0.00  0.00    +0.028 A 
ATOM     21  C   UNL     1       4.097  -5.578  -0.066  0.00  0.00    +0.002 A 
ATOM     22  C   UNL     1       2.790  -6.043  -0.056  0.00  0.00    +0.002 A 
ATOM     23  C   UNL     1       1.739  -5.170  -0.041  0.00  0.00    +0.030 A 
ATOM     24  C   UNL     1       1.978  -3.792  -0.036  0.00  0.00    +0.090 A 
ATOM     25  N   UNL     1       1.166  -2.707  -0.017  0.00  0.00    -0.226 NA
ATOM     26  C   UNL     1       1.891  -1.614  -0.024  0.00  0.00    +0.161 A 
BRANCH  26  27
ATOM     27  C   UNL     1       1.354  -0.238  -0.012  0.00  0.00    +0.113 A 
ATOM     28  C   UNL     1       0.002  -0.004   0.002  0.00  0.00    +0.078 A 
ATOM     29  S   UNL     1      -0.022   1.782   0.012  0.00  0.00    -0.083 S 
ATOM     30  C   UNL     1       1.695   2.036  -0.003  0.00  0.00    +0.156 A 
ATOM     31  N   UNL     1       2.163   0.813  -0.014  0.00  0.00    -0.244 NA
ENDBRANCH  26  27
ENDBRANCH  17  18
ENDBRANCH   2  17
TORSDOF 6
