REMARK  Name = ZINC05362724
REMARK  12 active torsions:
REMARK  status: ('A' for Active; 'I' for Inactive)
REMARK    1  A    between atoms: C_1  and  C_2
REMARK    2  A    between atoms: C_2  and  C_4
REMARK    3  A    between atoms: C_2  and  S_15
REMARK    4  A    between atoms: N_6  and  C_7
REMARK    5  A    between atoms: C_7  and  C_13
REMARK    6  A    between atoms: S_15  and  C_16
REMARK    7  A    between atoms: C_19  and  C_22
REMARK    8  A    between atoms: N_20  and  N_21
REMARK    9  A    between atoms: C_25  and  C_28
REMARK   10  A    between atoms: C_28  and  C_29
REMARK   11  A    between atoms: C_28  and  C_30
REMARK   12  A    between atoms: C_28  and  C_31
REMARK                            x       y       z     vdW  Elec       q    Type
REMARK                         _______ _______ _______ _____ _____    ______ ____
ROOT
ATOM      1  C   UNL     1       0.121  -0.021   0.168  0.00  0.00    +0.209 A 
ATOM      2  N   UNL     1       1.099  -0.899   0.135  0.00  0.00    -0.121 NA
ATOM      3  N   UNL     1       0.629  -2.075  -0.079  0.00  0.00    -0.127 NA
ATOM      4  C   UNL     1      -0.677  -2.020  -0.204  0.00  0.00    +0.182 A 
ATOM      5  N   UNL     1      -1.042  -0.703  -0.049  0.00  0.00    -0.224 N 
ENDROOT
BRANCH   4   6
ATOM      6  C   UNL     1      -1.584  -3.159  -0.462  0.00  0.00    +0.021 A 
ATOM      7  C   UNL     1      -1.143  -4.467  -0.253  0.00  0.00    +0.012 A 
ATOM      8  C   UNL     1      -1.996  -5.525  -0.491  0.00  0.00    +0.005 A 
ATOM      9  C   UNL     1      -3.282  -5.292  -0.947  0.00  0.00    -0.042 A 
ATOM     10  C   UNL     1      -3.723  -3.998  -1.161  0.00  0.00    +0.005 A 
ATOM     11  C   UNL     1      -2.881  -2.931  -0.922  0.00  0.00    +0.012 A 
BRANCH   9  12
ATOM     12  C   UNL     1      -4.206  -6.453  -1.210  0.00  0.00    -0.013 C 
ATOM     13  C   UNL     1      -4.629  -6.444  -2.681  0.00  0.00    +0.015 C 
ATOM     14  C   UNL     1      -3.482  -7.763  -0.896  0.00  0.00    +0.015 C 
ATOM     15  C   UNL     1      -5.446  -6.330  -0.322  0.00  0.00    +0.015 C 
ENDBRANCH   9  12
ENDBRANCH   4   6
BRANCH   5  16
ATOM     16  N   UNL     1      -2.305  -0.185  -0.103  0.00  0.00    -0.295 N 
ATOM     17  H   UNL     1      -2.579   0.002  -1.057  0.00  0.00    +0.163 HD
ATOM     18  H   UNL     1      -2.966  -0.797   0.350  0.00  0.00    +0.163 HD
ENDBRANCH   5  16
BRANCH   1  19
ATOM     19  S   UNL     1       0.282   1.713   0.437  0.00  0.00    -0.072 S 
BRANCH  19  21
ATOM     20  C   UNL     1       2.764   1.455  -0.676  0.00  0.00    +0.029 C 
ATOM     21  C   UNL     1       2.076   1.835   0.637  0.00  0.00    +0.137 C 
BRANCH  21  22
ATOM     22  C   UNL     1       2.446   3.249   1.006  0.00  0.00    +0.227 C 
ATOM     23  O   UNL     1       1.675   4.157   0.776  0.00  0.00    -0.275 OA
ATOM     24  N   UNL     1       3.632   3.504   1.592  0.00  0.00    -0.296 N 
ATOM     25  H   UNL     1       4.248   2.778   1.776  0.00  0.00    +0.150 HD
BRANCH  24  26
ATOM     26  C   UNL     1       3.991   4.879   1.951  0.00  0.00    +0.121 C 
ATOM     27  C   UNL     1       4.006   5.747   0.691  0.00  0.00    +0.041 C 
ATOM     28  C   UNL     1       4.381   7.182   1.066  0.00  0.00    +0.003 C 
ATOM     29  C   UNL     1       5.768   7.196   1.711  0.00  0.00    +0.000 C 
ATOM     30  C   UNL     1       5.753   6.327   2.970  0.00  0.00    +0.003 C 
ATOM     31  C   UNL     1       5.378   4.892   2.596  0.00  0.00    +0.041 C 
BRANCH  26  32
ATOM     32  C   UNL     1       3.002   5.412   2.902  0.00  0.00    +0.088 C 
ATOM     33  N   UNL     1       2.239   5.823   3.637  0.00  0.00    -0.194 NA
ENDBRANCH  26  32
ENDBRANCH  24  26
ENDBRANCH  21  22
ENDBRANCH  19  21
ENDBRANCH   1  19
TORSDOF 8
