REMARK  Name = ZINC40732966
REMARK  9 active torsions:
REMARK  status: ('A' for Active; 'I' for Inactive)
REMARK    1  A    between atoms: CG_7  and  CB_11
REMARK    2  A    between atoms: CB_11  and  CA_12
REMARK    3  A    between atoms: CA_12  and  C_14
REMARK    4  A    between atoms: CA_12  and  N_17
REMARK    5  A    between atoms: N_17  and  C_18
REMARK    6  A    between atoms: C_18  and  C_19
REMARK    7  A    between atoms: C_22  and  O_25
REMARK    8  A    between atoms: O_25  and  C_26
REMARK    9  A    between atoms: C_26  and  C_27
REMARK                            x       y       z     vdW  Elec       q    Type
REMARK                         _______ _______ _______ _____ _____    ______ ____
ROOT
ATOM      1  N   TRP A   1       1.404  -4.023  -2.233  0.00  0.00    +0.391 N 
ATOM      2  H1  TRP A   1       2.127  -3.321  -2.175  0.00  0.00    -0.084 HD
ATOM      3  H2  TRP A   1       1.751  -4.895  -1.862  0.00  0.00    -0.084 HD
ENDROOT
BRANCH   1   4
ATOM      4  CA  TRP A   1       0.236  -3.589  -1.455  0.00  0.00    +0.048 C 
BRANCH   4   5
ATOM      5  C   TRP A   1      -0.795  -4.689  -1.442  0.00  0.00    +0.343 C 
ATOM      6  O   TRP A   1      -1.913  -4.470  -1.007  0.00  0.00    -0.248 OA
ATOM      7  OXT TRP A   1      -0.510  -5.796  -1.865  0.00  0.00    -0.248 OA
ENDBRANCH   4   5
BRANCH   4   8
ATOM      8  CB  TRP A   1       0.666  -3.275  -0.021  0.00  0.00    +0.032 C 
BRANCH   8  15
ATOM      9  CZ3 TRP A   1      -0.017   1.362   0.009  0.00  0.00    +0.001 A 
ATOM     10  CH2 TRP A   1       1.170   2.083   0.002  0.00  0.00    +0.002 A 
ATOM     11  CZ2 TRP A   1       2.386   1.436  -0.013  0.00  0.00    +0.026 A 
ATOM     12  CE2 TRP A   1       2.428   0.046  -0.021  0.00  0.00    +0.047 A 
ATOM     13  CD2 TRP A   1       1.223  -0.681  -0.013  0.00  0.00    +0.003 A 
ATOM     14  CE3 TRP A   1       0.002  -0.004   0.002  0.00  0.00    +0.010 A 
ATOM     15  CG  TRP A   1       1.604  -2.095  -0.025  0.00  0.00    -0.023 A 
ATOM     16  CD1 TRP A   1       2.945  -2.141  -0.038  0.00  0.00    +0.087 A 
ATOM     17  NE1 TRP A   1       3.455  -0.871  -0.036  0.00  0.00    -0.360 N 
ATOM     18  HE1 TRP A   1       4.399  -0.650  -0.044  0.00  0.00    +0.165 HD
ENDBRANCH   8  15
ENDBRANCH   4   8
ENDBRANCH   1   4
BRANCH   1  19
ATOM     19  C   UNK A   0       1.016  -4.209  -3.638  0.00  0.00    -0.046 C 
BRANCH  19  20
ATOM     20  C   UNK A   0       2.214  -4.654  -4.436  0.00  0.00    -0.064 A 
ATOM     21  C   UNK A   0       3.039  -3.713  -5.024  0.00  0.00    +0.005 A 
ATOM     22  C   UNK A   0       4.138  -4.119  -5.756  0.00  0.00    +0.046 A 
ATOM     23  C   UNK A   0       4.414  -5.470  -5.901  0.00  0.00    +0.121 A 
ATOM     24  C   UNK A   0       3.584  -6.412  -5.310  0.00  0.00    +0.046 A 
ATOM     25  C   UNK A   0       2.490  -6.002  -4.574  0.00  0.00    +0.005 A 
BRANCH  23  26
ATOM     26  O   UNK A   0       5.494  -5.872  -6.622  0.00  0.00    -0.487 OA
BRANCH  26  27
ATOM     27  C   UNK A   0       5.716  -7.279  -6.729  0.00  0.00    +0.264 C 
BRANCH  27  28
ATOM     28  C   UNK A   0       6.949  -7.532  -7.558  0.00  0.00    -0.009 A 
ATOM     29  C   UNK A   0       6.843  -7.673  -8.929  0.00  0.00    +0.008 A 
ATOM     30  C   UNK A   0       7.973  -7.905  -9.690  0.00  0.00    +0.022 A 
ATOM     31  C   UNK A   0       9.211  -7.996  -9.080  0.00  0.00    +0.059 A 
ATOM     32  C   UNK A   0       9.317  -7.854  -7.707  0.00  0.00    +0.060 A 
ATOM     33  C   UNK A   0       8.186  -7.617  -6.947  0.00  0.00    +0.028 A 
ATOM     34 CL   UNK A   0      10.870  -7.969  -6.940  0.00  0.00    -0.082 Cl
ATOM     35 CL   UNK A   0      10.631  -8.288 -10.036  0.00  0.00    -0.082 Cl
ENDBRANCH  27  28
ENDBRANCH  26  27
ENDBRANCH  23  26
ENDBRANCH  19  20
ENDBRANCH   1  19
TORSDOF 9
