REMARK  Name = ZINC21450255
REMARK  6 active torsions:
REMARK  status: ('A' for Active; 'I' for Inactive)
REMARK    1  A    between atoms: C_3  and  S_24
REMARK    2  A    between atoms: C_6  and  N_7
REMARK    3  A    between atoms: C_8  and  C_10
REMARK    4  A    between atoms: N_15  and  C_17
REMARK    5  A    between atoms: S_24  and  N_27
REMARK    6  A    between atoms: N_27  and  C_28
REMARK                            x       y       z     vdW  Elec       q    Type
REMARK                         _______ _______ _______ _____ _____    ______ ____
ROOT
ATOM      1  C   UNL     1      -5.336   4.271  -4.654  0.00  0.00    +0.025 A 
ATOM      2  C   UNL     1      -5.554   4.294  -6.018  0.00  0.00    +0.030 A 
ATOM      3  C   UNL     1      -6.306   5.308  -6.582  0.00  0.00    +0.105 A 
ATOM      4  C   UNL     1      -6.847   6.299  -5.783  0.00  0.00    +0.030 A 
ATOM      5  C   UNL     1      -6.638   6.278  -4.418  0.00  0.00    +0.025 A 
ATOM      6  C   UNL     1      -5.883   5.261  -3.848  0.00  0.00    +0.034 A 
ENDROOT
BRANCH   6   7
ATOM      7  N   UNL     1      -5.668   5.238  -2.466  0.00  0.00    -0.285 N 
ATOM      8  C   UNL     1      -5.615   4.060  -1.812  0.00  0.00    +0.222 C 
ATOM      9  O   UNL     1      -5.670   3.019  -2.432  0.00  0.00    -0.275 OA
ATOM     10  H   UNL     1      -5.543   6.180  -1.912  0.00  0.00    +0.155 HD
BRANCH   8  11
ATOM     11  C   UNL     1      -5.487   4.037  -0.310  0.00  0.00    +0.102 C 
ATOM     12  C   UNL     1      -4.107   4.575   0.135  0.00  0.00    +0.110 C 
ATOM     13  C   UNL     1      -3.247   3.337   0.261  0.00  0.00    +0.221 C 
ATOM     14  O   UNL     1      -2.036   3.336   0.321  0.00  0.00    -0.275 OA
ATOM     15  N   UNL     1      -4.021   2.239   0.295  0.00  0.00    -0.271 N 
ATOM     16  C   UNL     1      -5.444   2.586   0.218  0.00  0.00    +0.127 C 
BRANCH  15  17
ATOM     17  C   UNL     1      -3.531   0.931   0.395  0.00  0.00    +0.036 A 
ATOM     18  C   UNL     1      -2.164   0.694   0.346  0.00  0.00    +0.025 A 
ATOM     19  C   UNL     1      -1.684  -0.597   0.439  0.00  0.00    +0.022 A 
ATOM     20  C   UNL     1      -2.564  -1.654   0.593  0.00  0.00    +0.041 A 
ATOM     21  C   UNL     1      -3.927  -1.421   0.648  0.00  0.00    +0.022 A 
ATOM     22  C   UNL     1      -4.412  -0.131   0.549  0.00  0.00    +0.025 A 
ATOM     23 CL   UNL     1      -1.957  -3.276   0.718  0.00  0.00    -0.084 Cl
ENDBRANCH  15  17
ENDBRANCH   8  11
ENDBRANCH   6   7
BRANCH   3  24
ATOM     24  S   UNL     1      -6.576   5.338  -8.323  0.00  0.00    +0.059 S 
ATOM     25  O   UNL     1      -6.423   4.001  -8.781  0.00  0.00    -0.153 OA
ATOM     26  O   UNL     1      -7.766   6.085  -8.537  0.00  0.00    -0.153 OA
BRANCH  24  27
ATOM     27  N   UNL     1      -5.341   6.213  -8.995  0.00  0.00    -0.187 NA
ATOM     28  H   UNL     1      -5.537   7.235  -9.349  0.00  0.00    +0.148 HD
BRANCH  27  29
ATOM     29  C   UNL     1      -3.965   5.716  -8.917  0.00  0.00    +0.077 C 
ATOM     30  C   UNL     1      -3.264   6.342  -7.710  0.00  0.00    +0.020 C 
ATOM     31  C   UNL     1      -1.827   5.823  -7.629  0.00  0.00    +0.002 C 
ATOM     32  C   UNL     1      -1.075   6.201  -8.907  0.00  0.00    +0.000 C 
ATOM     33  C   UNL     1      -1.776   5.575 -10.114  0.00  0.00    +0.002 C 
ATOM     34  C   UNL     1      -3.213   6.093 -10.195  0.00  0.00    +0.020 C 
ENDBRANCH  27  29
ENDBRANCH  24  27
ENDBRANCH   3  24
TORSDOF 6
