REMARK  Name = ZINC64057275
REMARK  5 active torsions:
REMARK  status: ('A' for Active; 'I' for Inactive)
REMARK    1  A    between atoms: C_7  and  C_10
REMARK    2  A    between atoms: C_10  and  C_11
REMARK    3  A    between atoms: C_11  and  N_12
REMARK    4  A    between atoms: C_13  and  C_15
REMARK    5  A    between atoms: C_20  and  O_21
REMARK                            x       y       z     vdW  Elec       q    Type
REMARK                         _______ _______ _______ _____ _____    ______ ____
ROOT
ATOM      1  N   UNL     1      -0.458  -4.798  -1.460  0.00  0.00    -0.311 N 
ATOM      2  C   UNL     1      -0.811  -5.380  -2.623  0.00  0.00    +0.248 C 
ATOM      3  O   UNL     1      -0.369  -4.956  -3.674  0.00  0.00    -0.270 OA
ATOM      4  H   UNL     1      -0.810  -5.136  -0.622  0.00  0.00    +0.149 HD
ENDROOT
BRANCH   2   5
ATOM      5  C   UNL     1      -1.732  -6.533  -2.622  0.00  0.00    +0.079 A 
ATOM      6  C   UNL     1      -2.246  -7.020  -1.417  0.00  0.00    +0.032 A 
ATOM      7  C   UNL     1      -3.107  -8.097  -1.423  0.00  0.00    +0.019 A 
ATOM      8  C   UNL     1      -3.465  -8.699  -2.619  0.00  0.00    +0.019 A 
ATOM      9  C   UNL     1      -2.964  -8.227  -3.816  0.00  0.00    +0.047 A 
ATOM     10  C   UNL     1      -2.101  -7.141  -3.829  0.00  0.00    +0.129 A 
ATOM     11 BR   UNL     1      -3.802  -8.755   0.208  0.00  0.00    -0.050 Br
BRANCH  10  12
ATOM     12  O   UNL     1      -1.613  -6.673  -5.005  0.00  0.00    -0.506 OA
ATOM     13  H   UNL     1      -0.783  -7.088  -5.279  0.00  0.00    +0.292 HD
ENDBRANCH  10  12
ENDBRANCH   2   5
BRANCH   1  14
ATOM     14  C   UNL     1       0.457  -3.653  -1.462  0.00  0.00    +0.109 C 
BRANCH  14  15
ATOM     15  C   UNL     1       0.691  -3.186  -0.024  0.00  0.00    +0.052 C 
BRANCH  15  22
ATOM     16  C   UNL     1      -0.016   1.348   0.009  0.00  0.00    +0.001 A 
ATOM     17  C   UNL     1       1.166   2.101   0.002  0.00  0.00    +0.002 A 
ATOM     18  C   UNL     1       2.391   1.535  -0.013  0.00  0.00    +0.026 A 
ATOM     19  C   UNL     1       2.529   0.120  -0.022  0.00  0.00    +0.043 A 
ATOM     20  N   UNL     1       3.587  -0.654  -0.037  0.00  0.00    -0.380 N 
ATOM     21  C   UNL     1       3.143  -2.053  -0.041  0.00  0.00    +0.144 C 
ATOM     22  C   UNL     1       1.631  -2.008  -0.025  0.00  0.00    -0.040 C 
ATOM     23  C   UNL     1       1.295  -0.698  -0.014  0.00  0.00    -0.001 A 
ATOM     24  C   UNL     1       0.002  -0.004   0.002  0.00  0.00    +0.010 A 
ATOM     25  H   UNL     1       4.509  -0.353  -0.045  0.00  0.00    +0.160 HD
ENDBRANCH  15  22
ENDBRANCH  14  15
ENDBRANCH   1  14
TORSDOF 5
