REMARK  Name = ZINC64450333
REMARK  3 active torsions:
REMARK  status: ('A' for Active; 'I' for Inactive)
REMARK    1  A    between atoms: C_1  and  C_2
REMARK    2  A    between atoms: C_4  and  C_23
REMARK    3  A    between atoms: N_12  and  C_14
REMARK                            x       y       z     vdW  Elec       q    Type
REMARK                         _______ _______ _______ _____ _____    ______ ____
ROOT
ATOM      1  C   UNL     1      -0.003   1.496   0.085  0.00  0.00    +0.062 C 
ATOM      2  C   UNL     1       0.013  -0.011   0.073  0.00  0.00    +0.019 C 
ATOM      3  C   UNL     1      -1.052  -0.758   0.136  0.00  0.00    -0.008 C 
ATOM      4  C   UNL     1      -2.495  -0.408   0.400  0.00  0.00    +0.058 C 
ATOM      5  C   UNL     1      -2.880  -1.130   1.700  0.00  0.00    +0.108 C 
ATOM      6  C   UNL     1      -2.251  -2.482   1.792  0.00  0.00    +0.215 C 
ATOM      7  O   UNL     1      -2.766  -3.261   2.566  0.00  0.00    -0.276 OA
ATOM      8  N   UNL     1      -1.188  -2.933   1.124  0.00  0.00    -0.295 N 
ATOM      9  C   UNL     1      -0.597  -2.203   0.009  0.00  0.00    +0.194 C 
ATOM     10  N   UNL     1       0.866  -2.116   0.075  0.00  0.00    -0.164 NA
ATOM     11  N   UNL     1       1.163  -0.780  -0.013  0.00  0.00    -0.277 N 
ATOM     12  H   UNL     1      -0.794  -3.778   1.389  0.00  0.00    +0.151 HD
ATOM     13  H   UNL     1       2.058  -0.422  -0.118  0.00  0.00    +0.166 HD
ENDROOT
BRANCH  10  14
ATOM     14  C   UNL     1       1.487  -2.863  -1.027  0.00  0.00    +0.270 C 
ATOM     15  N   UNL     1       0.992  -2.365  -2.316  0.00  0.00    -0.350 N 
ATOM     16  C   UNL     1       0.400  -3.356  -2.917  0.00  0.00    +0.061 A 
ATOM     17  C   UNL     1      -0.282  -3.476  -4.213  0.00  0.00    +0.027 A 
ATOM     18  C   UNL     1      -0.814  -4.660  -4.578  0.00  0.00    +0.002 A 
ATOM     19  C   UNL     1      -0.747  -5.804  -3.764  0.00  0.00    +0.002 A 
ATOM     20  C   UNL     1      -0.146  -5.803  -2.557  0.00  0.00    +0.027 A 
ATOM     21  C   UNL     1       0.471  -4.568  -2.055  0.00  0.00    +0.061 A 
ATOM     22  N   UNL     1       1.104  -4.278  -0.955  0.00  0.00    -0.350 N 
ATOM     23  H   UNL     1       1.088  -1.462  -2.658  0.00  0.00    +0.163 HD
ATOM     24  H   UNL     1       1.290  -4.887  -0.223  0.00  0.00    +0.163 HD
ENDBRANCH  10  14
BRANCH   4  25
ATOM     25  C   UNL     1      -2.644   1.082   0.569  0.00  0.00    -0.040 A 
ATOM     26  C   UNL     1      -3.040   1.863  -0.501  0.00  0.00    +0.005 A 
ATOM     27  C   UNL     1      -3.177   3.229  -0.347  0.00  0.00    +0.020 A 
ATOM     28  C   UNL     1      -2.918   3.816   0.879  0.00  0.00    +0.041 A 
ATOM     29  C   UNL     1      -2.522   3.035   1.950  0.00  0.00    +0.020 A 
ATOM     30  C   UNL     1      -2.391   1.667   1.796  0.00  0.00    +0.005 A 
ATOM     31 CL   UNL     1      -3.090   5.533   1.073  0.00  0.00    -0.084 Cl
ENDBRANCH   4  25
TORSDOF 2
