REMARK  Name = ZINC39531821
REMARK  7 active torsions:
REMARK  status: ('A' for Active; 'I' for Inactive)
REMARK    1  A    between atoms: C_1  and  O_2
REMARK    2  A    between atoms: O_2  and  C_3
REMARK    3  A    between atoms: C_6  and  C_10
REMARK    4  A    between atoms: C_7  and  O_9
REMARK    5  A    between atoms: C_10  and  N_11
REMARK    6  A    between atoms: C_15  and  C_18
REMARK    7  A    between atoms: C_20  and  C_24
REMARK                            x       y       z     vdW  Elec       q    Type
REMARK                         _______ _______ _______ _____ _____    ______ ____
ROOT
ATOM      1  N   UNL     1       3.942  -2.950   3.905  0.00  0.00    +0.383 N 
ATOM      2  C   UNL     1       4.743  -1.757   3.606  0.00  0.00    -0.078 C 
ATOM      3  C   UNL     1       6.124  -2.179   3.099  0.00  0.00    -0.018 C 
ATOM      4  C   UNL     1       6.826  -3.010   4.177  0.00  0.00    +0.002 C 
ATOM      5  C   UNL     1       5.946  -4.212   4.535  0.00  0.00    +0.003 C 
ATOM      6  C   UNL     1       4.572  -3.714   4.988  0.00  0.00    -0.072 C 
ATOM      7  H   UNL     1       3.881  -3.527   3.079  0.00  0.00    -0.081 HD
ENDROOT
BRANCH   5   8
ATOM      8  C   UNL     1       6.602  -5.006   5.666  0.00  0.00    +0.161 C 
ATOM      9  C   UNL     1       7.946  -5.561   5.225  0.00  0.00    +0.006 C 
ATOM     10  C   UNL     1       7.784  -6.901   5.320  0.00  0.00    +0.140 C 
ATOM     11  N   UNL     1       6.550  -7.197   5.749  0.00  0.00    -0.162 NA
ATOM     12  N   UNL     1       5.825  -6.220   5.969  0.00  0.00    -0.179 NA
BRANCH   9  13
ATOM     13  C   UNL     1       9.140  -4.817   4.795  0.00  0.00    -0.018 A 
ATOM     14  C   UNL     1       9.819  -3.994   5.700  0.00  0.00    +0.010 A 
ATOM     15  C   UNL     1      10.938  -3.300   5.290  0.00  0.00    +0.020 A 
ATOM     16  C   UNL     1      11.390  -3.417   3.986  0.00  0.00    +0.041 A 
ATOM     17  C   UNL     1      10.723  -4.231   3.085  0.00  0.00    +0.020 A 
ATOM     18  C   UNL     1       9.606  -4.934   3.482  0.00  0.00    +0.010 A 
ATOM     19 CL   UNL     1      12.800  -2.540   3.479  0.00  0.00    -0.084 Cl
ENDBRANCH   9  13
ENDBRANCH   5   8
BRANCH   1  20
ATOM     20  C   UNL     1       2.593  -2.541   4.316  0.00  0.00    -0.039 C 
BRANCH  20  24
ATOM     21  C   UNL     1       0.626  -0.618   1.042  0.00  0.00    +0.124 A 
ATOM     22  C   UNL     1       1.202   0.139   2.051  0.00  0.00    +0.046 A 
ATOM     23  C   UNL     1       1.837  -0.484   3.108  0.00  0.00    +0.009 A 
ATOM     24  C   UNL     1       1.899  -1.864   3.163  0.00  0.00    -0.022 A 
ATOM     25  C   UNL     1       1.324  -2.626   2.156  0.00  0.00    +0.122 A 
ATOM     26  C   UNL     1       0.682  -2.002   1.097  0.00  0.00    +0.091 A 
BRANCH  21  28
ATOM     27  C   UNL     1      -0.017   1.425   0.010  0.00  0.00    +0.277 C 
ATOM     28  O   UNL     1       0.002  -0.004   0.002  0.00  0.00    -0.495 OA
ENDBRANCH  21  28
BRANCH  25  29
ATOM     29  O   UNL     1       1.386  -3.982   2.210  0.00  0.00    -0.506 OA
ATOM     30  H   UNL     1       0.642  -4.392   2.673  0.00  0.00    +0.292 HD
ENDBRANCH  25  29
ENDBRANCH  20  24
ENDBRANCH   1  20
TORSDOF 6
