REMARK  Name = ZINC36751672
REMARK  3 active torsions:
REMARK  status: ('A' for Active; 'I' for Inactive)
REMARK    1  A    between atoms: C_4  and  N_8
REMARK    2  A    between atoms: N_8  and  C_9
REMARK    3  A    between atoms: C_12  and  N_18
REMARK                            x       y       z     vdW  Elec       q    Type
REMARK                         _______ _______ _______ _____ _____    ______ ____
ROOT
ATOM      1  C   UNL     1       3.696  -2.045   0.045  0.00  0.00    +0.063 A 
ATOM      2  C   UNL     1       2.561  -2.793   0.042  0.00  0.00    +0.027 A 
ATOM      3  C   UNL     1       2.582  -4.187   0.122  0.00  0.00    +0.027 A 
ATOM      4  C   UNL     1       3.740  -4.894   0.209  0.00  0.00    +0.056 A 
ATOM      5  C   UNL     1       5.022  -4.184   0.221  0.00  0.00    +0.157 A 
ATOM      6  C   UNL     1       5.000  -2.710   0.129  0.00  0.00    +0.157 A 
ATOM      7  N   UNL     1       6.238  -2.281   0.149  0.00  0.00    -0.047 NA
ATOM      8  O   UNL     1       7.090  -3.411   0.244  0.00  0.00    -0.241 OA
ATOM      9  N   UNL     1       6.273  -4.569   0.293  0.00  0.00    -0.047 NA
ENDROOT
BRANCH   4  10
ATOM     10  N   UNL     1       3.708  -6.289   0.288  0.00  0.00    -0.356 N 
ATOM     11  H   UNL     1       2.858  -6.755   0.281  0.00  0.00    +0.142 HD
ATOM     12  H   UNL     1       4.536  -6.790   0.351  0.00  0.00    +0.142 HD
ENDBRANCH   4  10
BRANCH   1  13
ATOM     13  N   UNL     1       3.621  -0.653  -0.037  0.00  0.00    -0.310 N 
ATOM     14  H   UNL     1       4.228  -0.168  -0.618  0.00  0.00    +0.152 HD
BRANCH  13  18
ATOM     15  C   UNL     1       0.787   1.417   2.209  0.00  0.00    +0.018 A 
ATOM     16  C   UNL     1       1.574   2.098   1.297  0.00  0.00    +0.041 A 
ATOM     17  C   UNL     1       2.515   1.415   0.550  0.00  0.00    +0.144 A 
ATOM     18  C   UNL     1       2.671   0.042   0.717  0.00  0.00    +0.068 A 
ATOM     19  C   UNL     1       1.879  -0.637   1.634  0.00  0.00    +0.041 A 
ATOM     20  C   UNL     1       0.939   0.053   2.377  0.00  0.00    +0.020 A 
ATOM     21 BR   UNL     1      -0.140  -0.871   3.626  0.00  0.00    -0.050 Br
ATOM     22  F   UNL     1       3.283   2.079  -0.341  0.00  0.00    -0.204 F 
ENDBRANCH  13  18
ENDBRANCH   1  13
TORSDOF 3
