REMARK  Name = ZINC43217696
REMARK  5 active torsions:
REMARK  status: ('A' for Active; 'I' for Inactive)
REMARK    1  A    between atoms: C_1  and  C_2
REMARK    2  A    between atoms: C_7  and  N_12
REMARK    3  A    between atoms: C_9  and  C_11
REMARK    4  A    between atoms: C_13  and  C_15
REMARK    5  A    between atoms: C_18  and  C_20
REMARK                            x       y       z     vdW  Elec       q    Type
REMARK                         _______ _______ _______ _____ _____    ______ ____
ROOT
ATOM      1  N   UNL     1       0.735  -0.503   3.687  0.00  0.00    -0.307 N 
ATOM      2  C   UNL     1       0.634   0.166   4.853  0.00  0.00    +0.266 C 
ATOM      3  O   UNL     1      -0.045   1.173   4.919  0.00  0.00    -0.268 OA
ATOM      4  H   UNL     1       1.276  -1.306   3.634  0.00  0.00    +0.149 HD
ENDROOT
BRANCH   1  10
ATOM      5  C   UNL     1      -0.019   1.526   0.010  0.00  0.00    +0.008 C 
ATOM      6  C   UNL     1       0.002  -0.004   0.002  0.00  0.00    -0.009 C 
ATOM      7  C   UNL     1      -1.433  -0.534   0.013  0.00  0.00    +0.003 C 
ATOM      8  C   UNL     1      -2.149  -0.040   1.272  0.00  0.00    +0.002 C 
ATOM      9  C   UNL     1      -1.409  -0.547   2.511  0.00  0.00    +0.022 C 
ATOM     10  C   UNL     1       0.026  -0.018   2.500  0.00  0.00    +0.076 C 
ATOM     11  C   UNL     1       0.742  -0.511   1.242  0.00  0.00    +0.009 C 
ATOM     12  C   UNL     1       2.178   0.019   1.231  0.00  0.00    +0.009 C 
ENDBRANCH   1  10
BRANCH   2  13
ATOM     13  C   UNL     1       1.347  -0.322   6.047  0.00  0.00    +0.163 A 
ATOM     14  C   UNL     1       1.333   0.244   7.285  0.00  0.00    +0.230 A 
ATOM     15  O   UNL     1       2.110  -0.517   8.072  0.00  0.00    -0.449 OA
ATOM     16  C   UNL     1       2.591  -1.528   7.335  0.00  0.00    +0.182 A 
ATOM     17  N   UNL     1       2.138  -1.427   6.121  0.00  0.00    -0.210 NA
BRANCH  16  18
ATOM     18  C   UNL     1       3.508  -2.614   7.835  0.00  0.00    +0.016 C 
ATOM     19  C   UNL     1       4.929  -2.048   8.083  0.00  0.00    -0.008 C 
ATOM     20  C   UNL     1       5.488  -3.050   9.127  0.00  0.00    -0.020 C 
ATOM     21  C   UNL     1       4.248  -3.393   9.979  0.00  0.00    -0.082 C 
ATOM     22  N   UNL     1       3.057  -3.100   9.157  0.00  0.00    +0.387 N 
ATOM     23  H   UNL     1       2.500  -2.390   9.608  0.00  0.00    -0.085 HD
ATOM     24  H   UNL     1       2.508  -3.938   9.041  0.00  0.00    -0.085 HD
ENDBRANCH  16  18
ENDBRANCH   2  13
TORSDOF 3
