REMARK  Name = ZINC65375075
REMARK  2 active torsions:
REMARK  status: ('A' for Active; 'I' for Inactive)
REMARK    1  A    between atoms: C_8  and  C_11
REMARK    2  A    between atoms: C_21  and  C_23
REMARK                            x       y       z     vdW  Elec       q    Type
REMARK                         _______ _______ _______ _____ _____    ______ ____
ROOT
ATOM      1  C   UNL     1       3.521  -2.947  -1.282  0.00  0.00    +0.236 C 
ATOM      2  O   UNL     1       3.927  -2.303  -2.227  0.00  0.00    -0.274 OA
ATOM      3  N   UNL     1       3.495  -4.293  -1.345  0.00  0.00    -0.297 N 
ATOM      4  C   UNL     1       2.999  -5.071  -0.203  0.00  0.00    +0.125 C 
ATOM      5  C   UNL     1       3.953  -6.246   0.091  0.00  0.00    +0.125 C 
ATOM      6  N   UNL     1       4.168  -6.939  -1.164  0.00  0.00    -0.219 NA
ATOM      7  C   UNL     1       4.934  -6.062  -2.092  0.00  0.00    +0.118 C 
ATOM      8  C   UNL     1       3.962  -4.984  -2.566  0.00  0.00    +0.132 C 
ATOM      9  C   UNL     1       5.366  -7.050  -3.139  0.00  0.00    +0.018 C 
ATOM     10  C   UNL     1       5.275  -8.245  -2.554  0.00  0.00    +0.059 C 
ATOM     11  N   UNL     1       4.842  -8.105  -1.227  0.00  0.00    -0.278 N 
ATOM     12  H   UNL     1       4.997  -8.726  -0.498  0.00  0.00    +0.166 HD
ENDROOT
BRANCH  10  13
ATOM     13  C   UNL     1       5.591  -9.557  -3.223  0.00  0.00    +0.221 C 
ATOM     14  N   UNL     1       4.426 -10.448  -3.161  0.00  0.00    -0.359 N 
ATOM     15  C   UNL     1       4.780 -11.509  -2.496  0.00  0.00    +0.060 A 
ATOM     16  C   UNL     1       4.063 -12.733  -2.111  0.00  0.00    +0.027 A 
ATOM     17  C   UNL     1       4.705 -13.685  -1.405  0.00  0.00    +0.002 A 
ATOM     18  C   UNL     1       6.049 -13.561  -1.011  0.00  0.00    +0.002 A 
ATOM     19  C   UNL     1       6.797 -12.481  -1.311  0.00  0.00    +0.027 A 
ATOM     20  C   UNL     1       6.203 -11.378  -2.080  0.00  0.00    +0.060 A 
ATOM     21  N   UNL     1       6.674 -10.241  -2.504  0.00  0.00    -0.359 N 
ATOM     22  H   UNL     1       3.552 -10.277  -3.546  0.00  0.00    +0.162 HD
ATOM     23  H   UNL     1       7.574  -9.907  -2.371  0.00  0.00    +0.162 HD
ENDBRANCH  10  13
BRANCH   1  31
ATOM     24  C   UNL     1      -0.017   1.378   0.010  0.00  0.00    +0.000 A 
ATOM     25  C   UNL     1       1.174   2.082   0.002  0.00  0.00    +0.002 A 
ATOM     26  C   UNL     1       2.377   1.411  -0.013  0.00  0.00    +0.023 A 
ATOM     27  C   UNL     1       2.405   0.014  -0.021  0.00  0.00    +0.031 A 
ATOM     28  C   UNL     1       1.206  -0.682  -0.013  0.00  0.00    -0.024 A 
ATOM     29  C   UNL     1       0.002  -0.004   0.002  0.00  0.00    +0.005 A 
ATOM     30  C   UNL     1       1.510  -2.163  -0.023  0.00  0.00    +0.068 C 
ATOM     31  C   UNL     1       3.046  -2.241  -0.038  0.00  0.00    +0.161 C 
ATOM     32  N   UNL     1       3.501  -0.849  -0.036  0.00  0.00    -0.332 N 
ATOM     33  H   UNL     1       4.430  -0.568  -0.044  0.00  0.00    +0.147 HD
ENDBRANCH   1  31
TORSDOF 2
