REMARK  Name = ZINC39469828
REMARK  8 active torsions:
REMARK  status: ('A' for Active; 'I' for Inactive)
REMARK    1  A    between atoms: C_1  and  C_2
REMARK    2  A    between atoms: C_2  and  C_3
REMARK    3  A    between atoms: C_2  and  S_4
REMARK    4  A    between atoms: S_4  and  P_7
REMARK    5  A    between atoms: C_15  and  C_32
REMARK    6  A    between atoms: C_16  and  C_25
REMARK    7  A    between atoms: C_30  and  O_31
REMARK    8  A    between atoms: C_32  and  C_33
REMARK                            x       y       z     vdW  Elec       q    Type
REMARK                         _______ _______ _______ _____ _____    ______ ____
ROOT
ATOM      1  P   UNL     1      -1.503  -2.736   0.180  0.00  0.00    +0.392 P 
ATOM      2  O   UNL     1      -0.833  -3.090   1.452  0.00  0.00    -0.249 OA
ATOM      3  N   UNL     1      -2.984  -3.459   0.090  0.00  0.00    -0.274 NA
ATOM      4  N   UNL     1      -3.028  -4.795  -0.247  0.00  0.00    +0.398 N 
ATOM      5  C   UNL     1      -4.455  -5.138  -0.365  0.00  0.00    -0.046 C 
ATOM      6  C   UNL     1      -4.634  -6.609  -0.718  0.00  0.00    +0.005 C 
ATOM      7  C   UNL     1      -4.035  -7.484   0.350  0.00  0.00    -0.020 C 
ATOM      8  C   UNL     1      -3.686  -8.732   0.057  0.00  0.00    -0.039 C 
ATOM      9  C   UNL     1      -3.903  -9.246  -1.313  0.00  0.00    -0.015 C 
ATOM     10  C   UNL     1      -4.026  -8.381  -2.333  0.00  0.00    -0.014 C 
ATOM     11  C   UNL     1      -3.937  -6.900  -2.051  0.00  0.00    +0.016 C 
ATOM     12  C   UNL     1      -2.466  -6.499  -1.929  0.00  0.00    -0.003 C 
ATOM     13  C   UNL     1      -2.341  -5.027  -1.520  0.00  0.00    -0.020 C 
ATOM     14  C   UNL     1      -0.843  -4.714  -1.415  0.00  0.00    +0.158 C 
ATOM     15  O   UNL     1      -0.663  -3.326  -1.083  0.00  0.00    -0.304 OA
ATOM     16  H   UNL     1      -3.796  -2.960   0.268  0.00  0.00    +0.112 HD
ATOM     17  H   UNL     1      -2.593  -5.344   0.479  0.00  0.00    -0.055 HD
ENDROOT
BRANCH   9  18
ATOM     18  C   UNL     1      -3.984 -10.706  -1.559  0.00  0.00    +0.024 A 
ATOM     19  C   UNL     1      -2.829 -11.485  -1.534  0.00  0.00    +0.012 A 
ATOM     20  C   UNL     1      -2.909 -12.843  -1.763  0.00  0.00    +0.001 A 
ATOM     21  C   UNL     1      -4.133 -13.436  -2.018  0.00  0.00    +0.004 A 
ATOM     22  C   UNL     1      -5.285 -12.673  -2.046  0.00  0.00    +0.046 A 
ATOM     23  C   UNL     1      -5.220 -11.309  -1.811  0.00  0.00    +0.125 A 
BRANCH  23  24
ATOM     24  O   UNL     1      -6.352 -10.558  -1.832  0.00  0.00    -0.506 OA
ATOM     25  H   UNL     1      -6.572 -10.201  -2.704  0.00  0.00    +0.292 HD
ENDBRANCH  23  24
ENDBRANCH   9  18
BRANCH   1  26
ATOM     26  S   UNL     1      -1.700  -0.632   0.015  0.00  0.00    +0.056 S 
ATOM     27  O   UNL     1      -2.359  -0.234   1.209  0.00  0.00    -0.164 OA
ATOM     28  O   UNL     1      -2.308  -0.423  -1.252  0.00  0.00    -0.164 OA
BRANCH  26  30
ATOM     29  C   UNL     1      -0.019   1.526   0.010  0.00  0.00    +0.032 C 
ATOM     30  C   UNL     1       0.002  -0.004   0.002  0.00  0.00    +0.135 C 
ATOM     31  C   UNL     1       0.742  -0.511   1.242  0.00  0.00    +0.032 C 
ENDBRANCH  26  30
ENDBRANCH   1  26
BRANCH   8  32
ATOM     32  C   UNL     1      -3.074  -9.617   1.113  0.00  0.00    +0.070 C 
BRANCH  32  33
ATOM     33  C   UNL     1      -4.152 -10.453   1.754  0.00  0.00    -0.043 A 
ATOM     34  C   UNL     1      -4.825  -9.978   2.865  0.00  0.00    +0.004 A 
ATOM     35  C   UNL     1      -5.813 -10.744   3.453  0.00  0.00    +0.000 A 
ATOM     36  C   UNL     1      -6.129 -11.985   2.932  0.00  0.00    +0.000 A 
ATOM     37  C   UNL     1      -5.456 -12.459   1.821  0.00  0.00    +0.000 A 
ATOM     38  C   UNL     1      -4.471 -11.691   1.230  0.00  0.00    +0.004 A 
ENDBRANCH  32  33
ENDBRANCH   8  32
TORSDOF 6
