REMARK  Name = ZINC13499035
REMARK  12 active torsions:
REMARK  status: ('A' for Active; 'I' for Inactive)
REMARK    1  A    between atoms: C_1  and  C_2
REMARK    2  A    between atoms: C_4  and  C_39
REMARK    3  A    between atoms: C_7  and  C_14
REMARK    4  A    between atoms: C_14  and  N_15
REMARK    5  A    between atoms: N_15  and  C_16
REMARK    6  A    between atoms: N_15  and  C_23
REMARK    7  A    between atoms: C_16  and  C_17
REMARK    8  A    between atoms: C_23  and  C_25
REMARK    9  A    between atoms: C_23  and  C_36
REMARK   10  A    between atoms: N_29  and  C_30
REMARK   11  A    between atoms: C_36  and  C_37
REMARK   12  A    between atoms: C_36  and  C_38
REMARK                            x       y       z     vdW  Elec       q    Type
REMARK                         _______ _______ _______ _____ _____    ______ ____
ROOT
ATOM      1  N   UNL     1       1.742  -7.027   1.220  0.00  0.00    -0.284 NA
ENDROOT
BRANCH   1   2
ATOM      2  C   UNL     1       0.524  -6.630   0.500  0.00  0.00    +0.126 C 
BRANCH   2   9
ATOM      3  C   UNL     1       1.823   0.143  -3.507  0.00  0.00    +0.044 C 
ATOM      4  C   UNL     1       1.641  -1.244  -2.948  0.00  0.00    -0.048 A 
ATOM      5  C   UNL     1       1.895  -2.348  -3.751  0.00  0.00    +0.007 A 
ATOM      6  C   UNL     1       1.736  -3.614  -3.264  0.00  0.00    -0.041 A 
ATOM      7  C   UNL     1       1.312  -3.800  -1.943  0.00  0.00    +0.002 A 
ATOM      8  C   UNL     1       1.132  -5.143  -1.389  0.00  0.00    +0.020 A 
ATOM      9  C   UNL     1       0.720  -5.263  -0.102  0.00  0.00    +0.032 A 
ATOM     10  C   UNL     1       0.474  -4.111   0.675  0.00  0.00    +0.254 A 
ATOM     11  O   UNL     1       0.105  -4.240   1.829  0.00  0.00    -0.268 OA
ATOM     12  N   UNL     1       0.637  -2.873   0.174  0.00  0.00    -0.322 N 
ATOM     13  H   UNL     1       0.460  -2.103   0.736  0.00  0.00    +0.169 HD
ATOM     14  C   UNL     1       1.054  -2.684  -1.126  0.00  0.00    +0.050 A 
ATOM     15  C   UNL     1       1.228  -1.404  -1.643  0.00  0.00    +0.029 A 
ATOM     16  C   UNL     1       2.014  -4.804  -4.144  0.00  0.00    +0.044 C 
ENDBRANCH   2   9
ENDBRANCH   1   2
BRANCH   1  17
ATOM     17  C   UNL     1       1.837  -6.338   2.513  0.00  0.00    +0.120 C 
BRANCH  17  18
ATOM     18  C   UNL     1       3.235  -6.481   3.057  0.00  0.00    -0.033 A 
ATOM     19  C   UNL     1       3.528  -7.490   3.955  0.00  0.00    +0.005 A 
ATOM     20  C   UNL     1       4.810  -7.621   4.454  0.00  0.00    +0.000 A 
ATOM     21  C   UNL     1       5.800  -6.742   4.054  0.00  0.00    +0.000 A 
ATOM     22  C   UNL     1       5.507  -5.734   3.156  0.00  0.00    +0.000 A 
ATOM     23  C   UNL     1       4.226  -5.605   2.654  0.00  0.00    +0.005 A 
ENDBRANCH  17  18
ENDBRANCH   1  17
BRANCH   1  24
ATOM     24  C   UNL     1       1.798  -8.485   1.394  0.00  0.00    +0.130 C 
BRANCH  24  25
ATOM     25  C   UNL     1       2.338  -9.121   0.139  0.00  0.00    +0.169 A 
ATOM     26  N   UNL     1       2.034  -8.799  -1.094  0.00  0.00    -0.112 NA
ATOM     27  N   UNL     1       2.701  -9.570  -1.883  0.00  0.00    -0.023 NA
ATOM     28  N   UNL     1       3.423 -10.374  -1.184  0.00  0.00    -0.044 NA
ATOM     29  N   UNL     1       3.231 -10.125   0.068  0.00  0.00    -0.225 N 
BRANCH  29  30
ATOM     30  C   UNL     1       3.864 -10.810   1.198  0.00  0.00    +0.111 C 
ATOM     31  C   UNL     1       5.367 -10.526   1.189  0.00  0.00    +0.027 C 
ATOM     32  C   UNL     1       6.028 -11.241   2.370  0.00  0.00    +0.002 C 
ATOM     33  C   UNL     1       5.792 -12.748   2.250  0.00  0.00    +0.000 C 
ATOM     34  C   UNL     1       4.289 -13.031   2.259  0.00  0.00    +0.002 C 
ATOM     35  C   UNL     1       3.628 -12.317   1.078  0.00  0.00    +0.027 C 
ENDBRANCH  29  30
ENDBRANCH  24  25
BRANCH  24  36
ATOM     36  C   UNL     1       0.392  -9.020   1.673  0.00  0.00    +0.008 C 
ATOM     37  C   UNL     1       0.434 -10.547   1.751  0.00  0.00    +0.009 C 
ATOM     38  C   UNL     1      -0.115  -8.455   3.001  0.00  0.00    +0.009 C 
ENDBRANCH  24  36
ENDBRANCH   1  24
TORSDOF 8
