REMARK  Name = ZINC33060491
REMARK  12 active torsions:
REMARK  status: ('A' for Active; 'I' for Inactive)
REMARK    1  A    between atoms: C_1  and  N_2
REMARK    2  A    between atoms: N_2  and  C_3
REMARK    3  A    between atoms: N_2  and  C_4
REMARK    4  A    between atoms: C_7  and  C_10
REMARK    5  A    between atoms: C_10  and  C_11
REMARK    6  A    between atoms: C_11  and  C_12
REMARK    7  A    between atoms: C_12  and  N_13
REMARK    8  A    between atoms: C_14  and  C_16
REMARK    9  A    between atoms: C_16  and  C_18
REMARK   10  A    between atoms: C_16  and  N_29
REMARK   11  A    between atoms: C_18  and  C_19
REMARK   12  A    between atoms: C_30  and  C_32
REMARK                            x       y       z     vdW  Elec       q    Type
REMARK                         _______ _______ _______ _____ _____    ______ ____
ROOT
ATOM      1  C   UNL     1      -1.044   1.721  -6.126  0.00  0.00    +0.163 C 
ENDROOT
BRANCH   1   3
ATOM      2  N   UNL     1      -0.759   1.552  -3.675  0.00  0.00    -0.314 N 
ATOM      3  C   UNL     1      -0.307   1.236  -4.905  0.00  0.00    +0.234 C 
ATOM      4  O   UNL     1       0.694   0.562  -5.028  0.00  0.00    -0.274 OA
ATOM      5  H   UNL     1      -1.666   2.163  -3.563  0.00  0.00    +0.149 HD
BRANCH   2   6
ATOM      6  C   UNL     1      -0.042   1.081  -2.488  0.00  0.00    +0.104 C 
BRANCH   6   7
ATOM      7  C   UNL     1      -0.759   1.575  -1.230  0.00  0.00    +0.023 C 
BRANCH   7   8
ATOM      8  C   UNL     1      -0.010   1.083   0.011  0.00  0.00    +0.036 C 
BRANCH   8  12
ATOM      9  C   UNL     1      -2.013   2.463   3.525  0.00  0.00    +0.029 A 
ATOM     10  C   UNL     1      -2.357   1.241   2.962  0.00  0.00    +0.023 A 
ATOM     11  C   UNL     1      -1.708   0.798   1.827  0.00  0.00    +0.005 A 
ATOM     12  C   UNL     1      -0.716   1.570   1.250  0.00  0.00    -0.047 A 
ATOM     13  C   UNL     1      -0.366   2.785   1.811  0.00  0.00    +0.005 A 
ATOM     14  C   UNL     1      -1.016   3.236   2.943  0.00  0.00    +0.023 A 
BRANCH   9  16
ATOM     15  C   UNL     1      -3.802   2.162   5.213  0.00  0.00    +0.129 C 
ATOM     16  N   UNL     1      -2.667   2.915   4.673  0.00  0.00    -0.336 N 
ATOM     17  C   UNL     1      -2.220   4.141   5.338  0.00  0.00    +0.129 C 
ENDBRANCH   9  16
ENDBRANCH   8  12
ENDBRANCH   7   8
ENDBRANCH   6   7
ENDBRANCH   2   6
ENDBRANCH   1   3
BRANCH   1  18
ATOM     18  N   UNL     1      -0.677   0.894  -7.279  0.00  0.00    -0.299 N 
ATOM     19  C   UNL     1       0.608   0.828  -7.679  0.00  0.00    +0.251 C 
ATOM     20  O   UNL     1       1.464   1.456  -7.083  0.00  0.00    -0.270 OA
ATOM     21  H   UNL     1      -1.451   0.326  -7.817  0.00  0.00    +0.150 HD
BRANCH  19  22
ATOM     22  C   UNL     1       0.975   0.001  -8.832  0.00  0.00    +0.074 A 
ATOM     23  C   UNL     1       2.223  -0.202  -9.399  0.00  0.00    +0.021 A 
ATOM     24  C   UNL     1       2.287  -1.038 -10.486  0.00  0.00    +0.008 A 
ATOM     25  C   UNL     1       1.147  -1.616 -10.947  0.00  0.00    +0.046 A 
ATOM     26  S   UNL     1      -0.067  -1.014  -9.865  0.00  0.00    -0.092 S 
ENDBRANCH  19  22
ENDBRANCH   1  18
BRANCH   1  27
ATOM     27  C   UNL     1      -0.669   3.178  -6.404  0.00  0.00    +0.069 C 
BRANCH  27  28
ATOM     28  C   UNL     1      -1.497   3.700  -7.550  0.00  0.00    -0.020 A 
ATOM     29  C   UNL     1      -1.137   3.739  -8.843  0.00  0.00    +0.087 A 
ATOM     30  N   UNL     1      -2.147   4.277  -9.592  0.00  0.00    -0.360 N 
ATOM     31  H   UNL     1      -2.029   4.381 -10.681  0.00  0.00    +0.165 HD
ATOM     32  C   UNL     1      -3.206   4.614  -8.778  0.00  0.00    +0.047 A 
ATOM     33  C   UNL     1      -2.845   4.267  -7.463  0.00  0.00    +0.003 A 
ATOM     34  C   UNL     1      -3.736   4.496  -6.413  0.00  0.00    +0.010 A 
ATOM     35  C   UNL     1      -4.955   5.057  -6.668  0.00  0.00    +0.001 A 
ATOM     36  C   UNL     1      -5.316   5.402  -7.963  0.00  0.00    +0.002 A 
ATOM     37  C   UNL     1      -4.452   5.184  -9.015  0.00  0.00    +0.026 A 
ENDBRANCH  27  28
ENDBRANCH   1  27
TORSDOF 10
