REMARK  Name = ZINC00804172
REMARK  7 active torsions:
REMARK  status: ('A' for Active; 'I' for Inactive)
REMARK    1  A    between atoms: C_1  and  C_2
REMARK    2  A    between atoms: C_11  and  C_23
REMARK    3  A    between atoms: C_13  and  C_19
REMARK    4  A    between atoms: C_13  and  C_21
REMARK    5  A    between atoms: C_14  and  N_18
REMARK    6  A    between atoms: C_15  and  C_16
REMARK    7  A    between atoms: C_23  and  C_24
REMARK                            x       y       z     vdW  Elec       q    Type
REMARK                         _______ _______ _______ _____ _____    ______ ____
ROOT
ATOM      1  C   UNL     1      -2.501   1.297   2.982  0.00  0.00    +0.109 C 
ATOM      2  C   UNL     1      -1.858   2.616   2.639  0.00  0.00    +0.213 C 
ATOM      3  O   UNL     1      -1.734   3.470   3.491  0.00  0.00    -0.276 OA
ATOM      4  N   UNL     1      -1.422   2.847   1.385  0.00  0.00    -0.297 N 
ATOM      5  C   UNL     1      -1.560   1.833   0.320  0.00  0.00    +0.135 C 
ATOM      6  C   UNL     1      -0.180   1.584  -0.234  0.00  0.00    -0.003 C 
ATOM      7  C   UNL     1       0.755   2.513  -0.190  0.00  0.00    -0.026 C 
ATOM      8  C   UNL     1       0.551   3.894   0.359  0.00  0.00    +0.044 C 
ATOM      9  C   UNL     1      -0.792   4.119   1.016  0.00  0.00    +0.116 C 
ATOM     10  C   UNL     1       1.709   4.211   1.307  0.00  0.00    +0.042 C 
ATOM     11  C   UNL     1       3.014   4.219   0.509  0.00  0.00    +0.184 C 
ATOM     12  C   UNL     1       3.163   2.978  -0.319  0.00  0.00    +0.054 C 
ATOM     13  C   UNL     1       2.124   2.177  -0.664  0.00  0.00    +0.074 C 
ENDROOT
BRANCH  12  14
ATOM     14  N   UNL     1       4.414   2.635  -0.748  0.00  0.00    -0.358 N 
ATOM     15  H   UNL     1       4.557   1.730  -1.358  0.00  0.00    +0.142 HD
ATOM     16  H   UNL     1       5.277   3.263  -0.485  0.00  0.00    +0.142 HD
ENDBRANCH  12  14
BRANCH  13  17
ATOM     17  C   UNL     1       2.344   1.019  -1.478  0.00  0.00    +0.101 C 
ATOM     18  N   UNL     1       2.518   0.101  -2.123  0.00  0.00    -0.191 NA
ENDBRANCH  13  17
BRANCH  11  19
ATOM     19  C   UNL     1       3.027   5.393  -0.378  0.00  0.00    +0.091 C 
ATOM     20  N   UNL     1       3.037   6.299  -1.063  0.00  0.00    -0.195 NA
ENDBRANCH  11  19
BRANCH  11  21
ATOM     21  C   UNL     1       4.148   4.310   1.443  0.00  0.00    +0.091 C 
ATOM     22  N   UNL     1       5.023   4.381   2.164  0.00  0.00    -0.195 NA
ENDBRANCH  11  21
BRANCH  10  23
ATOM     23  C   UNL     1       1.784   3.143   2.400  0.00  0.00    +0.042 C 
BRANCH  23  24
ATOM     24  C   UNL     1       2.767   3.574   3.458  0.00  0.00    -0.047 A 
ATOM     25  C   UNL     1       3.900   2.818   3.697  0.00  0.00    +0.003 A 
ATOM     26  C   UNL     1       4.804   3.216   4.664  0.00  0.00    +0.000 A 
ATOM     27  C   UNL     1       4.572   4.364   5.397  0.00  0.00    +0.000 A 
ATOM     28  C   UNL     1       3.437   5.117   5.161  0.00  0.00    +0.000 A 
ATOM     29  C   UNL     1       2.534   4.722   4.191  0.00  0.00    +0.003 A 
ENDBRANCH  23  24
ENDBRANCH  10  23
TORSDOF 6
