REMARK  Name = ZINC15866409
REMARK  4 active torsions:
REMARK  status: ('A' for Active; 'I' for Inactive)
REMARK    1  A    between atoms: C_1  and  C_2
REMARK    2  A    between atoms: C_2  and  C_3
REMARK    3  A    between atoms: C_6  and  C_9
REMARK    4  A    between atoms: C_12  and  C_20
REMARK                            x       y       z     vdW  Elec       q    Type
REMARK                         _______ _______ _______ _____ _____    ______ ____
ROOT
ATOM      1  C   UNL     1      -0.019   1.529   0.010  0.00  0.00    +0.106 C 
ATOM      2  C   UNL     1       0.002  -0.004   0.002  0.00  0.00    +0.059 C 
ATOM      3  C   UNL     1       0.689  -0.521   1.273  0.00  0.00    +0.149 C 
ATOM      4  N   UNL     1       1.953   0.190   1.446  0.00  0.00    -0.206 N 
ATOM      5  C   UNL     1       2.259   1.369   0.846  0.00  0.00    +0.236 A 
ATOM      6  N   UNL     1       3.461   1.698   1.228  0.00  0.00    -0.092 NA
ATOM      7  N   UNL     1       3.934   0.806   2.030  0.00  0.00    -0.021 NA
ATOM      8  N   UNL     1       3.072  -0.141   2.210  0.00  0.00    -0.042 NA
ATOM      9  N   UNL     1       1.373   2.020  -0.000  0.00  0.00    -0.305 N 
ATOM     10  H   UNL     1       1.653   2.757  -0.566  0.00  0.00    +0.150 HD
ENDROOT
BRANCH   3  11
ATOM     11  C   UNL     1       0.955  -1.998   1.138  0.00  0.00    +0.031 A 
ATOM     12  C   UNL     1       1.753  -2.467   0.108  0.00  0.00    +0.130 A 
ATOM     13  C   UNL     1       2.001  -3.824  -0.011  0.00  0.00    +0.039 A 
ATOM     14  C   UNL     1       1.443  -4.711   0.891  0.00  0.00    +0.004 A 
ATOM     15  C   UNL     1       0.642  -4.243   1.915  0.00  0.00    +0.020 A 
ATOM     16  C   UNL     1       0.398  -2.886   2.039  0.00  0.00    +0.049 A 
ATOM     17 CL   UNL     1      -0.608  -2.300   3.327  0.00  0.00    -0.083 Cl
ATOM     18  F   UNL     1       2.293  -1.601  -0.777  0.00  0.00    -0.205 F 
ENDBRANCH   3  11
BRANCH   1  22
ATOM     19  C   UNL     1      -2.002   2.915   3.531  0.00  0.00    -0.048 A 
ATOM     20  C   UNL     1      -2.679   2.877   2.326  0.00  0.00    +0.004 A 
ATOM     21  C   UNL     1      -2.037   2.428   1.187  0.00  0.00    +0.006 A 
ATOM     22  C   UNL     1      -0.718   2.018   1.252  0.00  0.00    -0.027 A 
ATOM     23  C   UNL     1      -0.043   2.051   2.458  0.00  0.00    +0.006 A 
ATOM     24  C   UNL     1      -0.684   2.505   3.596  0.00  0.00    +0.004 A 
BRANCH  19  26
ATOM     25  C   UNL     1      -3.371   2.224   5.479  0.00  0.00    +0.009 C 
ATOM     26  C   UNL     1      -2.701   3.405   4.772  0.00  0.00    +0.032 C 
ENDBRANCH  19  26
ENDBRANCH   1  22
TORSDOF 3
