REMARK  Name = ZINC22027073
REMARK  8 active torsions:
REMARK  status: ('A' for Active; 'I' for Inactive)
REMARK    1  A    between atoms: C_1  and  C_2
REMARK    2  A    between atoms: C_2  and  N_3
REMARK    3  A    between atoms: N_3  and  C_4
REMARK    4  A    between atoms: C_9  and  C_11
REMARK    5  A    between atoms: C_11  and  S_12
REMARK    6  A    between atoms: S_12  and  C_13
REMARK    7  A    between atoms: C_16  and  C_19
REMARK    8  A    between atoms: N_17  and  N_18
REMARK                            x       y       z     vdW  Elec       q    Type
REMARK                         _______ _______ _______ _____ _____    ______ ____
ROOT
ATOM      1  C   UNL     1       1.362   3.873   0.172  0.00  0.00    +0.209 A 
ATOM      2  N   UNL     1       0.187   4.462   0.168  0.00  0.00    -0.121 NA
ATOM      3  N   UNL     1       0.327   5.724  -0.031  0.00  0.00    -0.127 NA
ATOM      4  C   UNL     1       1.598   6.017  -0.176  0.00  0.00    +0.183 A 
ATOM      5  N   UNL     1       2.300   4.840  -0.050  0.00  0.00    -0.224 N 
ENDROOT
BRANCH   4   6
ATOM      6  C   UNL     1       2.168   7.358  -0.425  0.00  0.00    +0.040 A 
ATOM      7  C   UNL     1       3.126   7.537  -1.424  0.00  0.00    +0.033 A 
ATOM      8  C   UNL     1       3.654   8.793  -1.652  0.00  0.00    +0.042 A 
ATOM      9  C   UNL     1       3.235   9.872  -0.892  0.00  0.00    +0.021 A 
ATOM     10  C   UNL     1       2.286   9.701   0.099  0.00  0.00    +0.022 A 
ATOM     11  C   UNL     1       1.745   8.452   0.334  0.00  0.00    +0.052 A 
ATOM     12 CL   UNL     1       0.548   8.240   1.573  0.00  0.00    -0.083 Cl
ATOM     13 CL   UNL     1       4.846   9.018  -2.893  0.00  0.00    -0.084 Cl
ENDBRANCH   4   6
BRANCH   5  14
ATOM     14  N   UNL     1       3.654   4.674  -0.131  0.00  0.00    -0.295 N 
ATOM     15  H   UNL     1       4.304   5.542  -0.315  0.00  0.00    +0.163 HD
ATOM     16  H   UNL     1       4.093   3.673  -0.013  0.00  0.00    +0.163 HD
ENDBRANCH   5  14
BRANCH   1  17
ATOM     17  S   UNL     1       1.669   2.154   0.411  0.00  0.00    -0.075 S 
BRANCH  17  18
ATOM     18  C   UNL     1      -0.026   1.560   0.635  0.00  0.00    +0.173 C 
BRANCH  18  20
ATOM     19  N   UNL     1      -1.167  -0.594   1.054  0.00  0.00    -0.275 N 
ATOM     20  C   UNL     1      -0.010   0.071   0.862  0.00  0.00    +0.230 C 
ATOM     21  O   UNL     1       1.043  -0.530   0.872  0.00  0.00    -0.274 OA
BRANCH  19  22
ATOM     22  C   UNL     1      -1.153  -1.970   1.264  0.00  0.00    +0.010 C 
ATOM     23  C   UNL     1      -2.224  -2.704   1.467  0.00  0.00    -0.008 C 
ATOM     24  C   UNL     1      -1.856  -4.157   1.655  0.00  0.00    +0.029 C 
ATOM     25  C   UNL     1      -0.407  -4.270   1.127  0.00  0.00    +0.010 C 
ATOM     26  C   UNL     1       0.097  -2.818   1.296  0.00  0.00    +0.051 C 
ENDBRANCH  19  22
BRANCH  19  28
ATOM     27  C   UNL     1      -2.994   0.167  -0.383  0.00  0.00    +0.025 C 
ATOM     28  C   UNL     1      -2.439   0.132   1.043  0.00  0.00    +0.110 C 
ENDBRANCH  19  28
ENDBRANCH  18  20
ENDBRANCH  17  18
ENDBRANCH   1  17
TORSDOF 7
