REMARK  Name = ZINC29098312
REMARK  9 active torsions:
REMARK  status: ('A' for Active; 'I' for Inactive)
REMARK    1  A    between atoms: C_1  and  C_2
REMARK    2  A    between atoms: C_2  and  C_4
REMARK    3  A    between atoms: C_2  and  N_16
REMARK    4  A    between atoms: C_7  and  C_10
REMARK    5  A    between atoms: C_17  and  C_19
REMARK    6  A    between atoms: C_19  and  C_20
REMARK    7  A    between atoms: C_20  and  C_21
REMARK    8  A    between atoms: C_21  and  C_22
REMARK    9  A    between atoms: C_22  and  C_23
REMARK                            x       y       z     vdW  Elec       q    Type
REMARK                         _______ _______ _______ _____ _____    ______ ____
ROOT
ATOM      1  N   UNL     1       6.124  -2.163  -0.951  0.00  0.00    -0.309 N 
ATOM      2  C   UNL     1       7.236  -2.666  -1.523  0.00  0.00    +0.213 C 
ATOM      3  O   UNL     1       8.315  -2.160  -1.299  0.00  0.00    -0.276 OA
ATOM      4  H   UNL     1       5.145  -2.623  -1.154  0.00  0.00    +0.149 HD
ENDROOT
BRANCH   1   6
ATOM      5  C   UNL     1       6.556  -1.479   1.357  0.00  0.00    +0.033 C 
ATOM      6  C   UNL     1       6.219  -1.005  -0.058  0.00  0.00    +0.100 C 
BRANCH   6   7
ATOM      7  C   UNL     1       4.901  -0.274  -0.043  0.00  0.00    -0.027 A 
ATOM      8  C   UNL     1       4.881   1.109  -0.036  0.00  0.00    +0.006 A 
ATOM      9  C   UNL     1       3.677   1.784  -0.022  0.00  0.00    +0.009 A 
ATOM     10  C   UNL     1       2.481   1.070  -0.015  0.00  0.00    -0.018 A 
ATOM     11  C   UNL     1       2.507  -0.323  -0.016  0.00  0.00    +0.009 A 
ATOM     12  C   UNL     1       3.717  -0.988  -0.036  0.00  0.00    +0.006 A 
BRANCH  10  13
ATOM     13  C   UNL     1       1.184   1.790   0.000  0.00  0.00    -0.018 A 
ATOM     14  C   UNL     1      -0.013   1.076   0.008  0.00  0.00    +0.008 A 
ATOM     15  C   UNL     1      -1.216   1.751   0.017  0.00  0.00    +0.001 A 
ATOM     16  C   UNL     1      -1.236   3.134   0.030  0.00  0.00    +0.000 A 
ATOM     17  C   UNL     1      -0.052   3.848   0.022  0.00  0.00    +0.001 A 
ATOM     18  C   UNL     1       1.157   3.183   0.008  0.00  0.00    +0.008 A 
ENDBRANCH  10  13
ENDBRANCH   6   7
ENDBRANCH   1   6
BRANCH   2  19
ATOM     19  C   UNL     1       7.138  -3.857  -2.441  0.00  0.00    +0.096 C 
BRANCH  19  20
ATOM     20  C   UNL     1       8.534  -4.223  -2.951  0.00  0.00    +0.009 C 
BRANCH  20  21
ATOM     21  C   UNL     1       8.435  -5.433  -3.883  0.00  0.00    +0.002 C 
BRANCH  21  22
ATOM     22  C   UNL     1       9.830  -5.799  -4.394  0.00  0.00    +0.016 C 
BRANCH  22  23
ATOM     23  C   UNL     1       9.731  -7.008  -5.326  0.00  0.00    +0.069 C 
ATOM     24  C   UNL     1      11.100  -7.332  -5.960  0.00  0.00    +0.108 C 
ATOM     25  C   UNL     1      11.391  -8.832  -6.062  0.00  0.00    +0.105 C 
ATOM     26  C   UNL     1      10.257  -9.723  -5.510  0.00  0.00    +0.093 C 
ATOM     27  S   UNL     1       9.395  -8.553  -4.373  0.00  0.00    -0.154 S 
ATOM     28  N   UNL     1      12.595  -9.020  -5.237  0.00  0.00    -0.294 N 
ATOM     29  C   UNL     1      12.963  -7.836  -4.727  0.00  0.00    +0.300 C 
ATOM     30  O   UNL     1      13.931  -7.698  -4.004  0.00  0.00    -0.253 OA
ATOM     31  N   UNL     1      12.168  -6.819  -5.087  0.00  0.00    -0.294 N 
ATOM     32  H   UNL     1      13.036 -10.021  -5.127  0.00  0.00    +0.151 HD
ATOM     33  H   UNL     1      12.208  -5.749  -4.837  0.00  0.00    +0.151 HD
ENDBRANCH  22  23
ENDBRANCH  21  22
ENDBRANCH  20  21
ENDBRANCH  19  20
ENDBRANCH   2  19
TORSDOF 8
