REMARK  Name = ZINC40013881
REMARK  4 active torsions:
REMARK  status: ('A' for Active; 'I' for Inactive)
REMARK    1  A    between atoms: C_1  and  O_2
REMARK    2  A    between atoms: O_2  and  C_3
REMARK    3  A    between atoms: C_13  and  C_29
REMARK    4  A    between atoms: C_32  and  O_35
REMARK                            x       y       z     vdW  Elec       q    Type
REMARK                         _______ _______ _______ _____ _____    ______ ____
ROOT
ATOM      1  C   UNL     1       0.606  -0.607  -1.056  0.00  0.00    +0.121 A 
ATOM      2  C   UNL     1       1.177   0.156  -2.070  0.00  0.00    +0.048 A 
ATOM      3  C   UNL     1       1.788  -0.422  -3.139  0.00  0.00    +0.032 A 
ATOM      4  C   UNL     1       1.865  -1.829  -3.259  0.00  0.00    +0.081 A 
ATOM      5  C   UNL     1       1.276  -2.579  -2.216  0.00  0.00    +0.044 A 
ATOM      6  C   UNL     1       0.665  -1.991  -1.135  0.00  0.00    +0.063 A 
ATOM      7  S   UNL     1       1.580  -4.251  -2.732  0.00  0.00    -0.052 S 
ATOM      8  C   UNL     1       2.440  -3.864  -4.250  0.00  0.00    +0.169 A 
ATOM      9  N   UNL     1       2.432  -2.552  -4.250  0.00  0.00    -0.224 NA
ATOM     10  N   UNL     1       2.979  -4.729  -5.188  0.00  0.00    -0.232 N 
ATOM     11  C   UNL     1       3.684  -4.339  -6.420  0.00  0.00    +0.151 C 
ATOM     12  C   UNL     1       4.068  -5.617  -7.091  0.00  0.00    +0.072 A 
ATOM     13  C   UNL     1       4.776  -5.873  -8.349  0.00  0.00    +0.199 A 
ATOM     14  O   UNL     1       5.335  -5.000  -8.989  0.00  0.00    -0.287 OA
ATOM     15  C   UNL     1       4.749  -7.297  -8.767  0.00  0.00    +0.067 A 
ATOM     16  C   UNL     1       5.202  -7.669 -10.033  0.00  0.00    +0.053 A 
ATOM     17  C   UNL     1       5.165  -8.996 -10.406  0.00  0.00    +0.124 A 
ATOM     18  C   UNL     1       4.677  -9.954  -9.525  0.00  0.00    +0.042 A 
ATOM     19  C   UNL     1       4.229  -9.596  -8.274  0.00  0.00    +0.050 A 
ATOM     20  C   UNL     1       4.259  -8.261  -7.871  0.00  0.00    +0.140 A 
ATOM     21  O   UNL     1       3.822  -7.940  -6.632  0.00  0.00    -0.450 OA
ATOM     22  C   UNL     1       3.627  -6.647  -6.308  0.00  0.00    +0.199 A 
ATOM     23  C   UNL     1       2.955  -6.076  -5.129  0.00  0.00    +0.289 C 
ATOM     24  O   UNL     1       2.451  -6.724  -4.233  0.00  0.00    -0.266 OA
ATOM     25  F   UNL     1       5.603  -9.365 -11.630  0.00  0.00    -0.205 F 
ENDROOT
BRANCH  11  26
ATOM     26  C   UNL     1       4.914  -3.536  -6.084  0.00  0.00    -0.022 A 
ATOM     27  C   UNL     1       5.686  -3.881  -4.990  0.00  0.00    +0.009 A 
ATOM     28  C   UNL     1       6.813  -3.147  -4.679  0.00  0.00    +0.046 A 
ATOM     29  C   UNL     1       7.172  -2.062  -5.466  0.00  0.00    +0.117 A 
ATOM     30  C   UNL     1       6.396  -1.718  -6.564  0.00  0.00    +0.046 A 
ATOM     31  C   UNL     1       5.272  -2.459  -6.873  0.00  0.00    +0.009 A 
BRANCH  29  32
ATOM     32  O   UNL     1       8.281  -1.337  -5.162  0.00  0.00    -0.507 OA
ATOM     33  H   UNL     1       9.089  -1.659  -5.585  0.00  0.00    +0.292 HD
ENDBRANCH  29  32
ENDBRANCH  11  26
BRANCH   1  35
ATOM     34  C   UNL     1      -0.017   1.425   0.010  0.00  0.00    +0.277 C 
ATOM     35  O   UNL     1       0.002  -0.004   0.002  0.00  0.00    -0.495 OA
ENDBRANCH   1  35
TORSDOF 3
