REMARK  Name = ZINC57415667
REMARK  9 active torsions:
REMARK  status: ('A' for Active; 'I' for Inactive)
REMARK    1  A    between atoms: C_1  and  C_2
REMARK    2  A    between atoms: C_2  and  O_3
REMARK    3  A    between atoms: O_3  and  C_4
REMARK    4  A    between atoms: C_4  and  C_6
REMARK    5  A    between atoms: C_7  and  C_21
REMARK    6  A    between atoms: C_12  and  C_14
REMARK    7  A    between atoms: C_21  and  N_22
REMARK    8  A    between atoms: N_25  and  C_28
REMARK    9  A    between atoms: C_33  and  C_34
REMARK                            x       y       z     vdW  Elec       q    Type
REMARK                         _______ _______ _______ _____ _____    ______ ____
ROOT
ATOM      1  C   UNL     1      -2.795  -2.407   0.102  0.00  0.00    +0.079 C 
ATOM      2  C   UNL     1      -2.985  -3.731  -0.085  0.00  0.00    +0.038 C 
ATOM      3  N   UNL     1      -4.241  -4.259  -0.162  0.00  0.00    -0.271 N 
ATOM      4  C   UNL     1      -5.360  -3.530  -0.063  0.00  0.00    +0.304 C 
ATOM      5  O   UNL     1      -6.436  -4.091  -0.144  0.00  0.00    -0.252 OA
ATOM      6  N   UNL     1      -5.333  -2.196   0.125  0.00  0.00    -0.288 N 
ATOM      7  C   UNL     1      -4.024  -1.529   0.228  0.00  0.00    +0.144 C 
ATOM      8  H   UNL     1      -4.329  -5.215  -0.297  0.00  0.00    +0.156 HD
ATOM      9  H   UNL     1      -6.156  -1.687   0.194  0.00  0.00    +0.151 HD
ENDROOT
BRANCH   7  10
ATOM     10  C   UNL     1      -3.957  -0.478  -0.850  0.00  0.00    -0.020 A 
ATOM     11  C   UNL     1      -4.337  -0.789  -2.142  0.00  0.00    +0.006 A 
ATOM     12  C   UNL     1      -4.276   0.175  -3.132  0.00  0.00    +0.003 A 
ATOM     13  C   UNL     1      -3.834   1.449  -2.830  0.00  0.00    +0.038 A 
ATOM     14  C   UNL     1      -3.454   1.761  -1.536  0.00  0.00    +0.124 A 
ATOM     15  C   UNL     1      -3.522   0.797  -0.544  0.00  0.00    +0.044 A 
ATOM     16  F   UNL     1      -3.022   3.007  -1.240  0.00  0.00    -0.205 F 
ENDBRANCH   7  10
BRANCH   1  17
ATOM     17  C   UNL     1      -1.494  -1.858   0.183  0.00  0.00    +0.339 C 
ATOM     18  O   UNL     1      -1.019  -1.575   1.267  0.00  0.00    -0.245 OA
BRANCH  17  19
ATOM     19  O   UNL     1      -0.778  -1.650  -0.942  0.00  0.00    -0.462 OA
BRANCH  19  21
ATOM     20  C   UNL     1       1.181  -0.930  -2.160  0.00  0.00    +0.048 C 
ATOM     21  C   UNL     1       0.529  -1.093  -0.786  0.00  0.00    +0.229 C 
ENDBRANCH  19  21
ENDBRANCH  17  19
ENDBRANCH   1  17
BRANCH   2  22
ATOM     22  C   UNL     1      -1.789  -4.640  -0.210  0.00  0.00    +0.136 C 
BRANCH  22  23
ATOM     23  N   UNL     1      -1.770  -5.582   0.917  0.00  0.00    -0.294 NA
ATOM     24  C   UNL     1      -1.552  -4.878   2.188  0.00  0.00    +0.103 C 
ATOM     25  C   UNL     1      -1.719  -5.864   3.349  0.00  0.00    +0.120 C 
ATOM     26  N   UNL     1      -0.834  -7.016   3.116  0.00  0.00    -0.327 N 
ATOM     27  C   UNL     1      -0.899  -7.689   1.810  0.00  0.00    +0.120 C 
ATOM     28  C   UNL     1      -0.764  -6.632   0.709  0.00  0.00    +0.103 C 
BRANCH  26  29
ATOM     29  C   UNL     1       0.045  -7.457   4.107  0.00  0.00    +0.033 A 
ATOM     30  C   UNL     1      -0.364  -8.420   5.022  0.00  0.00    +0.023 A 
ATOM     31  C   UNL     1       0.507  -8.855   6.001  0.00  0.00    +0.002 A 
ATOM     32  C   UNL     1       1.786  -8.333   6.072  0.00  0.00    +0.000 A 
ATOM     33  C   UNL     1       2.196  -7.374   5.163  0.00  0.00    +0.005 A 
ATOM     34  C   UNL     1       1.332  -6.939   4.178  0.00  0.00    -0.029 A 
ATOM     35  C   UNL     1       1.782  -5.900   3.184  0.00  0.00    +0.045 C 
ENDBRANCH  26  29
ENDBRANCH  22  23
ENDBRANCH   2  22
TORSDOF 7
