REMARK  Name = ZINC63479136
REMARK  5 active torsions:
REMARK  status: ('A' for Active; 'I' for Inactive)
REMARK    1  A    between atoms: C_10  and  C_16
REMARK    2  A    between atoms: N_18  and  C_19
REMARK    3  A    between atoms: C_19  and  C_20
REMARK    4  A    between atoms: C_20  and  N_21
REMARK    5  A    between atoms: N_24  and  C_27
REMARK                            x       y       z     vdW  Elec       q    Type
REMARK                         _______ _______ _______ _____ _____    ______ ____
ROOT
ATOM      1  C   UNL     1       0.969  -5.582  -1.276  0.00  0.00    +0.230 C 
ATOM      2  O   UNL     1       1.514  -5.272  -2.314  0.00  0.00    -0.274 OA
ATOM      3  N   UNL     1       0.163  -6.661  -1.234  0.00  0.00    -0.313 N 
ATOM      4  H   UNL     1      -0.273  -6.908  -0.403  0.00  0.00    +0.149 HD
ENDROOT
BRANCH   1  14
ATOM      5  C   UNL     1      -0.016   1.359   0.009  0.00  0.00    +0.001 A 
ATOM      6  C   UNL     1       1.170   2.086   0.002  0.00  0.00    +0.002 A 
ATOM      7  C   UNL     1       2.378   1.455  -0.013  0.00  0.00    +0.024 A 
ATOM      8  C   UNL     1       2.439   0.052  -0.021  0.00  0.00    +0.042 A 
ATOM      9  N   UNL     1       3.627  -0.568  -0.036  0.00  0.00    -0.281 N 
ATOM     10  C   UNL     1       3.773  -1.877  -0.045  0.00  0.00    +0.249 C 
ATOM     11  O   UNL     1       4.895  -2.361  -0.059  0.00  0.00    -0.270 OA
ATOM     12  C   UNL     1       2.576  -2.777  -0.038  0.00  0.00    +0.049 C 
ATOM     13  C   UNL     1       2.566  -4.124  -0.044  0.00  0.00    +0.011 C 
ATOM     14  C   UNL     1       1.193  -4.759  -0.033  0.00  0.00    +0.160 C 
ATOM     15  S   UNL     1       0.104  -3.282  -0.015  0.00  0.00    -0.107 S 
ATOM     16  C   UNL     1       1.276  -2.091  -0.021  0.00  0.00    +0.030 C 
ATOM     17  C   UNL     1       1.229  -0.687  -0.013  0.00  0.00    +0.010 A 
ATOM     18  C   UNL     1       0.002  -0.004   0.002  0.00  0.00    +0.011 A 
ATOM     19  H   UNL     1       4.427  -0.020  -0.041  0.00  0.00    +0.155 HD
ENDBRANCH   1  14
BRANCH   3  20
ATOM     20  C   UNL     1      -0.055  -7.460  -2.442  0.00  0.00    +0.119 C 
BRANCH  20  21
ATOM     21  C   UNL     1      -1.004  -8.618  -2.123  0.00  0.00    +0.103 C 
BRANCH  21  22
ATOM     22  N   UNL     1      -1.222  -9.420  -3.334  0.00  0.00    -0.298 NA
ATOM     23  C   UNL     1      -1.937  -8.644  -4.357  0.00  0.00    +0.103 C 
ATOM     24  C   UNL     1      -1.986  -9.447  -5.661  0.00  0.00    +0.120 C 
ATOM     25  N   UNL     1      -2.556 -10.772  -5.373  0.00  0.00    -0.325 N 
ATOM     26  C   UNL     1      -1.979 -11.553  -4.269  0.00  0.00    +0.120 C 
ATOM     27  C   UNL     1      -1.931 -10.667  -3.019  0.00  0.00    +0.103 C 
BRANCH  25  28
ATOM     28  C   UNL     1      -3.619 -11.275  -6.130  0.00  0.00    +0.065 A 
ATOM     29  C   UNL     1      -3.366 -12.033  -7.266  0.00  0.00    +0.026 A 
ATOM     30  C   UNL     1      -4.418 -12.530  -8.011  0.00  0.00    +0.002 A 
ATOM     31  C   UNL     1      -5.722 -12.273  -7.629  0.00  0.00    +0.003 A 
ATOM     32  C   UNL     1      -5.979 -11.519  -6.498  0.00  0.00    +0.040 A 
ATOM     33  C   UNL     1      -4.931 -11.024  -5.744  0.00  0.00    +0.144 A 
ATOM     34  F   UNL     1      -5.181 -10.291  -4.636  0.00  0.00    -0.204 F 
ENDBRANCH  25  28
ENDBRANCH  21  22
ENDBRANCH  20  21
ENDBRANCH   3  20
TORSDOF 5
