REMARK  Name = ZINC43737346
REMARK  9 active torsions:
REMARK  status: ('A' for Active; 'I' for Inactive)
REMARK    1  A    between atoms: C_1  and  N_2
REMARK    2  A    between atoms: C_5  and  C_11
REMARK    3  A    between atoms: C_5  and  C_22
REMARK    4  A    between atoms: C_11  and  C_12
REMARK    5  A    between atoms: C_15  and  O_20
REMARK    6  A    between atoms: C_17  and  O_18
REMARK    7  A    between atoms: O_18  and  C_19
REMARK    8  A    between atoms: O_20  and  C_21
REMARK    9  A    between atoms: C_22  and  N_23
REMARK                            x       y       z     vdW  Elec       q    Type
REMARK                         _______ _______ _______ _____ _____    ______ ____
ROOT
ATOM      1  C   UNL     1      -0.337   1.603  -0.041  0.00  0.00    +0.143 C 
ATOM      2  N   UNL     1      -0.219   0.143  -0.013  0.00  0.00    -0.228 N 
ATOM      3  C   UNL     1      -1.342  -0.605  -0.027  0.00  0.00    +0.239 C 
ATOM      4  O   UNL     1      -2.440  -0.091  -0.062  0.00  0.00    -0.274 OA
ATOM      5  C   UNL     1      -1.181  -2.113   0.003  0.00  0.00    +0.140 C 
ATOM      6  C   UNL     1       0.243  -2.634   0.045  0.00  0.00    +0.237 C 
ATOM      7  O   UNL     1       0.477  -3.824   0.070  0.00  0.00    -0.274 OA
ATOM      8  N   UNL     1       1.241  -1.724   0.053  0.00  0.00    -0.239 N 
ATOM      9  C   UNL     1       1.000  -0.409   0.020  0.00  0.00    +0.315 C 
ATOM     10  O   UNL     1       1.957   0.339   0.025  0.00  0.00    -0.252 OA
ATOM     11  H   UNL     1       2.160  -2.034   0.080  0.00  0.00    +0.159 HD
ENDROOT
BRANCH   5  12
ATOM     12  C   UNL     1      -1.920  -2.647   1.231  0.00  0.00    +0.065 C 
BRANCH  12  13
ATOM     13  C   UNL     1      -1.329  -2.038   2.477  0.00  0.00    -0.004 A 
ATOM     14  C   UNL     1      -0.347  -2.712   3.177  0.00  0.00    +0.011 A 
ATOM     15  C   UNL     1       0.196  -2.156   4.319  0.00  0.00    +0.046 A 
ATOM     16  C   UNL     1      -0.244  -0.918   4.766  0.00  0.00    +0.124 A 
ATOM     17  C   UNL     1      -1.229  -0.240   4.066  0.00  0.00    +0.091 A 
ATOM     18  C   UNL     1      -1.769  -0.797   2.916  0.00  0.00    +0.127 A 
BRANCH  18  19
ATOM     19  O   UNL     1      -2.730  -0.132   2.224  0.00  0.00    -0.495 OA
ATOM     20  C   UNL     1      -3.134   1.140   2.735  0.00  0.00    +0.277 C 
ENDBRANCH  18  19
BRANCH  16  21
ATOM     21  O   UNL     1       0.290  -0.372   5.890  0.00  0.00    -0.495 OA
ATOM     22  C   UNL     1       1.300  -1.127   6.561  0.00  0.00    +0.277 C 
ENDBRANCH  16  21
ENDBRANCH  12  13
ENDBRANCH   5  12
BRANCH   5  23
ATOM     23  C   UNL     1      -1.861  -2.689  -1.240  0.00  0.00    +0.110 C 
BRANCH  23  24
ATOM     24  N   UNL     1      -1.302  -2.057  -2.443  0.00  0.00    -0.300 NA
ATOM     25  C   UNL     1       0.035  -2.581  -2.738  0.00  0.00    +0.089 C 
ATOM     26  C   UNL     1       0.641  -1.884  -3.947  0.00  0.00    +0.024 C 
ATOM     27  C   UNL     1      -0.288  -1.994  -5.159  0.00  0.00    +0.017 C 
ATOM     28  C   UNL     1      -1.641  -1.395  -4.761  0.00  0.00    +0.050 C 
ATOM     29  C   UNL     1      -2.203  -2.223  -3.594  0.00  0.00    +0.094 C 
ATOM     30  C   UNL     1      -1.433   0.021  -4.271  0.00  0.00    +0.026 A 
ATOM     31  C   UNL     1      -2.459   0.898  -4.430  0.00  0.00    +0.022 A 
ATOM     32  C   UNL     1      -2.359   2.205  -3.942  0.00  0.00    +0.007 A 
ATOM     33  C   UNL     1      -1.225   2.577  -3.282  0.00  0.00    +0.070 A 
ATOM     34  C   UNL     1      -0.187   1.647  -3.131  0.00  0.00    +0.251 A 
ATOM     35  O   UNL     1       0.806   1.948  -2.489  0.00  0.00    -0.268 OA
ATOM     36  N   UNL     1      -0.275   0.416  -3.692  0.00  0.00    -0.312 N 
ATOM     37  C   UNL     1       0.923  -0.416  -3.672  0.00  0.00    +0.130 C 
ENDBRANCH  23  24
ENDBRANCH   5  23
TORSDOF 6
