REMARK  Name = ZINC59891071
REMARK  13 active torsions:
REMARK  status: ('A' for Active; 'I' for Inactive)
REMARK    1  A    between atoms: C_1  and  C_2
REMARK    2  A    between atoms: C_2  and  C_3
REMARK    3  A    between atoms: C_3  and  C_4
REMARK    4  A    between atoms: C_4  and  C_5
REMARK    5  A    between atoms: C_5  and  C_27
REMARK    6  A    between atoms: N_6  and  N_7
REMARK    7  A    between atoms: C_10  and  S_13
REMARK    8  A    between atoms: S_13  and  C_14
REMARK    9  A    between atoms: C_14  and  C_15
REMARK   10  A    between atoms: N_17  and  C_18
REMARK   11  A    between atoms: C_21  and  N_24
REMARK   12  A    between atoms: N_24  and  C_25
REMARK   13  A    between atoms: N_24  and  C_26
REMARK                            x       y       z     vdW  Elec       q    Type
REMARK                         _______ _______ _______ _____ _____    ______ ____
ROOT
ATOM      1  N   UNL     1       3.191  -3.631  -3.560  0.00  0.00    -0.205 N 
ATOM      2  C   UNL     1       4.385  -4.321  -3.450  0.00  0.00    +0.232 A 
ATOM      3  N   UNL     1       5.008  -4.616  -2.329  0.00  0.00    -0.186 NA
ATOM      4  C   UNL     1       6.132  -5.288  -2.602  0.00  0.00    +0.211 A 
ATOM      5  N   UNL     1       6.238  -5.430  -3.902  0.00  0.00    -0.144 NA
ATOM      6  N   UNL     1       5.113  -4.816  -4.474  0.00  0.00    -0.245 N 
ATOM      7  H   UNL     1       2.805  -3.466  -4.434  0.00  0.00    +0.177 HD
ATOM      8  H   UNL     1       4.901  -4.756  -5.419  0.00  0.00    +0.192 HD
ENDROOT
BRANCH   1  10
ATOM      9  C   UNL     1       1.433  -2.534  -2.510  0.00  0.00    +0.034 C 
ATOM     10  N   UNL     1       2.539  -3.172  -2.408  0.00  0.00    -0.189 NA
ATOM     11  C   UNL     1       0.834  -2.277  -3.868  0.00  0.00    +0.062 C 
BRANCH   9  12
ATOM     12  C   UNL     1       0.732  -2.041  -1.270  0.00  0.00    +0.052 C 
BRANCH  12  13
ATOM     13  C   UNL     1       0.709  -0.511  -1.273  0.00  0.00    +0.006 C 
BRANCH  13  15
ATOM     14  C   UNL     1      -0.027   1.520  -0.017  0.00  0.00    +0.004 C 
ATOM     15  C   UNL     1      -0.004  -0.009  -0.015  0.00  0.00    -0.003 C 
ENDBRANCH  13  15
ENDBRANCH  12  13
ENDBRANCH   9  12
ENDBRANCH   1  10
BRANCH   4  16
ATOM     16  S   UNL     1       7.283  -5.885  -1.409  0.00  0.00    -0.075 S 
BRANCH  16  17
ATOM     17  C   UNL     1       8.566  -6.694  -2.405  0.00  0.00    +0.173 C 
BRANCH  17  18
ATOM     18  C   UNL     1       9.627  -7.257  -1.495  0.00  0.00    +0.227 C 
ATOM     19  O   UNL     1       9.528  -7.125  -0.293  0.00  0.00    -0.275 OA
ATOM     20  N   UNL     1      10.687  -7.907  -2.016  0.00  0.00    -0.285 N 
ATOM     21  H   UNL     1      10.733  -8.072  -2.971  0.00  0.00    +0.155 HD
BRANCH  20  22
ATOM     22  C   UNL     1      11.722  -8.345  -1.179  0.00  0.00    +0.034 A 
ATOM     23  C   UNL     1      13.035  -8.324  -1.629  0.00  0.00    +0.025 A 
ATOM     24  C   UNL     1      14.054  -8.755  -0.804  0.00  0.00    +0.025 A 
ATOM     25  C   UNL     1      13.767  -9.210   0.476  0.00  0.00    +0.029 A 
ATOM     26  C   UNL     1      12.453  -9.231   0.926  0.00  0.00    +0.025 A 
ATOM     27  C   UNL     1      11.434  -8.795   0.103  0.00  0.00    +0.025 A 
BRANCH  25  28
ATOM     28  N   UNL     1      14.800  -9.648   1.312  0.00  0.00    -0.336 N 
ATOM     29  C   UNL     1      16.194  -9.524   0.880  0.00  0.00    +0.129 C 
ATOM     30  C   UNL     1      14.487 -10.230   2.619  0.00  0.00    +0.129 C 
ENDBRANCH  25  28
ENDBRANCH  20  22
ENDBRANCH  17  18
ENDBRANCH  16  17
ENDBRANCH   4  16
TORSDOF 9
