REMARK  Name = ZINC24795061
REMARK  7 active torsions:
REMARK  status: ('A' for Active; 'I' for Inactive)
REMARK    1  A    between atoms: C_1  and  C_2
REMARK    2  A    between atoms: C_7  and  S_24
REMARK    3  A    between atoms: N_11  and  C_12
REMARK    4  A    between atoms: C_12  and  C_13
REMARK    5  A    between atoms: C_16  and  O_19
REMARK    6  A    between atoms: O_19  and  C_20
REMARK    7  A    between atoms: S_24  and  N_27
REMARK                            x       y       z     vdW  Elec       q    Type
REMARK                         _______ _______ _______ _____ _____    ______ ____
ROOT
ATOM      1  C   UNL     1       2.019   6.080   0.330  0.00  0.00    +0.028 C 
ATOM      2  C   UNL     1       1.126   5.548   1.453  0.00  0.00    +0.075 C 
ATOM      3  C   UNL     1       1.778   5.790   2.833  0.00  0.00    +0.059 C 
ATOM      4  C   UNL     1       2.538   4.502   3.077  0.00  0.00    -0.023 A 
ATOM      5  C   UNL     1       3.545   4.187   3.966  0.00  0.00    +0.034 A 
ATOM      6  C   UNL     1       4.082   2.913   3.982  0.00  0.00    +0.105 A 
ATOM      7  C   UNL     1       3.609   1.955   3.104  0.00  0.00    +0.030 A 
ATOM      8  C   UNL     1       2.601   2.263   2.215  0.00  0.00    +0.025 A 
ATOM      9  C   UNL     1       2.052   3.544   2.195  0.00  0.00    +0.034 A 
ATOM     10  N   UNL     1       1.032   4.073   1.394  0.00  0.00    -0.322 N 
ENDROOT
BRANCH   6  11
ATOM     11  S   UNL     1       5.369   2.512   5.117  0.00  0.00    +0.056 S 
ATOM     12  O   UNL     1       5.255   3.426   6.199  0.00  0.00    -0.153 OA
ATOM     13  O   UNL     1       5.323   1.104   5.302  0.00  0.00    -0.153 OA
BRANCH  11  14
ATOM     14  N   UNL     1       6.806   2.844   4.366  0.00  0.00    -0.204 NA
ATOM     15  H   UNL     1       7.638   2.606   5.045  0.00  0.00    +0.144 HD
ATOM     16  H   UNL     1       6.843   3.911   4.100  0.00  0.00    +0.144 HD
ENDBRANCH  11  14
ENDBRANCH   6  11
BRANCH  10  17
ATOM     17  C   UNL     1       1.147   3.593   0.011  0.00  0.00    +0.140 C 
BRANCH  17  18
ATOM     18  C   UNL     1       1.060   2.088  -0.008  0.00  0.00    -0.030 A 
ATOM     19  C   UNL     1       0.010   1.450   0.626  0.00  0.00    +0.009 A 
ATOM     20  C   UNL     1      -0.072   0.071   0.610  0.00  0.00    +0.046 A 
ATOM     21  C   UNL     1       0.900  -0.673  -0.042  0.00  0.00    +0.130 A 
ATOM     22  C   UNL     1       1.953  -0.030  -0.677  0.00  0.00    +0.046 A 
ATOM     23  C   UNL     1       2.030   1.349  -0.658  0.00  0.00    +0.009 A 
BRANCH  21  24
ATOM     24  O   UNL     1       0.822  -2.030  -0.058  0.00  0.00    -0.406 OA
BRANCH  24  25
ATOM     25  C   UNL     1       1.858  -2.731  -0.748  0.00  0.00    +0.575 C 
ATOM     26  F   UNL     1       3.093  -2.433  -0.163  0.00  0.00    -0.133 F 
ATOM     27  F   UNL     1       1.623  -4.108  -0.666  0.00  0.00    -0.133 F 
ATOM     28  F   UNL     1       1.872  -2.340  -2.091  0.00  0.00    -0.133 F 
ENDBRANCH  24  25
ENDBRANCH  21  24
ENDBRANCH  17  18
ENDBRANCH  10  17
TORSDOF 6
