REMARK  Name = ZINC36535132
REMARK  11 active torsions:
REMARK  status: ('A' for Active; 'I' for Inactive)
REMARK    1  A    between atoms: C_1  and  C_2
REMARK    2  A    between atoms: C_5  and  S_8
REMARK    3  A    between atoms: S_8  and  C_11
REMARK    4  A    between atoms: C_11  and  N_12
REMARK    5  A    between atoms: C_13  and  C_15
REMARK    6  A    between atoms: C_15  and  C_17
REMARK    7  A    between atoms: C_15  and  N_31
REMARK    8  A    between atoms: N_31  and  C_32
REMARK    9  A    between atoms: C_33  and  C_35
REMARK   10  A    between atoms: C_36  and  C_37
REMARK   11  A    between atoms: C_36  and  C_38
REMARK                            x       y       z     vdW  Elec       q    Type
REMARK                         _______ _______ _______ _____ _____    ______ ____
ROOT
ATOM      1  C   UNL     1       3.651  -4.878   3.754  0.00  0.00    +0.193 C 
ENDROOT
BRANCH   1   2
ATOM      2  C   UNL     1       5.024  -4.267   3.651  0.00  0.00    -0.010 A 
ATOM      3  C   UNL     1       6.000  -4.694   4.478  0.00  0.00    +0.015 A 
ATOM      4  C   UNL     1       7.305  -4.152   4.420  0.00  0.00    -0.017 A 
ATOM      5  C   UNL     1       8.313  -4.603   5.284  0.00  0.00    +0.008 A 
ATOM      6  C   UNL     1       9.563  -4.063   5.206  0.00  0.00    +0.001 A 
ATOM      7  C   UNL     1       9.855  -3.068   4.280  0.00  0.00    +0.001 A 
ATOM      8  C   UNL     1       8.895  -2.607   3.425  0.00  0.00    +0.009 A 
ATOM      9  C   UNL     1       7.606  -3.141   3.480  0.00  0.00    -0.010 A 
ATOM     10  C   UNL     1       6.545  -2.676   2.581  0.00  0.00    -0.010 A 
ATOM     11  C   UNL     1       5.263  -3.262   2.685  0.00  0.00    -0.012 A 
ATOM     12  C   UNL     1       4.243  -2.829   1.826  0.00  0.00    +0.009 A 
ATOM     13  C   UNL     1       4.502  -1.858   0.904  0.00  0.00    +0.001 A 
ATOM     14  C   UNL     1       5.765  -1.288   0.801  0.00  0.00    +0.001 A 
ATOM     15  C   UNL     1       6.777  -1.680   1.631  0.00  0.00    +0.009 A 
ENDBRANCH   1   2
BRANCH   1  17
ATOM     16  N   UNL     1       3.302  -5.799   1.485  0.00  0.00    -0.294 N 
ATOM     17  C   UNL     1       3.541  -6.032   2.791  0.00  0.00    +0.239 C 
ATOM     18  O   UNL     1       3.667  -7.170   3.190  0.00  0.00    -0.273 OA
ATOM     19  H   UNL     1       3.201  -4.889   1.165  0.00  0.00    +0.150 HD
BRANCH  16  20
ATOM     20  C   UNL     1       3.194  -6.920   0.548  0.00  0.00    +0.278 C 
BRANCH  20  21
ATOM     21  S   UNL     1       1.450  -7.371   0.342  0.00  0.00    +0.013 S 
ATOM     22  O   UNL     1       0.816  -7.467   1.610  0.00  0.00    -0.168 OA
ATOM     23  O   UNL     1       1.324  -8.416  -0.613  0.00  0.00    -0.168 OA
BRANCH  21  28
ATOM     24  C   UNL     1      -1.094  -2.573  -2.288  0.00  0.00    +0.044 C 
ATOM     25  C   UNL     1      -0.458  -3.771  -1.631  0.00  0.00    -0.050 A 
ATOM     26  C   UNL     1       0.080  -4.780  -2.408  0.00  0.00    +0.005 A 
ATOM     27  C   UNL     1       0.663  -5.880  -1.805  0.00  0.00    +0.027 A 
ATOM     28  C   UNL     1       0.708  -5.969  -0.426  0.00  0.00    +0.090 A 
ATOM     29  C   UNL     1       0.170  -4.960   0.350  0.00  0.00    +0.027 A 
ATOM     30  C   UNL     1      -0.409  -3.858  -0.253  0.00  0.00    +0.005 A 
ENDBRANCH  21  28
ENDBRANCH  20  21
ENDBRANCH  16  20
ENDBRANCH   1  17
BRANCH   1  31
ATOM     31  N   UNL     1       3.433  -5.361   5.120  0.00  0.00    -0.285 N 
ATOM     32  C   UNL     1       4.176  -6.522   5.615  0.00  0.00    +0.133 C 
ATOM     33  C   UNL     1       2.547  -4.736   5.922  0.00  0.00    +0.240 C 
ATOM     34  O   UNL     1       2.288  -5.197   7.017  0.00  0.00    -0.271 OA
BRANCH  33  35
ATOM     35  C   UNL     1       1.896  -3.496   5.473  0.00  0.00    +0.066 C 
ATOM     36  C   UNL     1       0.967  -2.920   6.231  0.00  0.00    -0.071 C 
ATOM     37  C   UNL     1       0.465  -3.620   7.468  0.00  0.00    +0.039 C 
ATOM     38  C   UNL     1       0.417  -1.569   5.854  0.00  0.00    +0.039 C 
ENDBRANCH  33  35
ENDBRANCH   1  31
TORSDOF 7
