REMARK  Name = ZINC63225185
REMARK  5 active torsions:
REMARK  status: ('A' for Active; 'I' for Inactive)
REMARK    1  A    between atoms: C_6  and  C_10
REMARK    2  A    between atoms: C_10  and  S_11
REMARK    3  A    between atoms: S_11  and  C_12
REMARK    4  A    between atoms: C_16  and  C_20
REMARK    5  A    between atoms: N_18  and  N_19
REMARK                            x       y       z     vdW  Elec       q    Type
REMARK                         _______ _______ _______ _____ _____    ______ ____
ROOT
ATOM      1  C   UNL     1       3.546  -2.895  -4.159  0.00  0.00    +0.214 C 
ATOM      2  N   UNL     1       5.024  -2.959  -4.098  0.00  0.00    -0.228 NA
ATOM      3  N   UNL     1       5.352  -4.319  -4.553  0.00  0.00    -0.232 NA
ATOM      4  C   UNL     1       4.266  -5.142  -3.959  0.00  0.00    +0.186 C 
ATOM      5  N   UNL     1       3.060  -4.287  -4.069  0.00  0.00    -0.195 NA
ATOM      6  H   UNL     1       5.354  -2.802  -3.158  0.00  0.00    +0.143 HD
ATOM      7  H   UNL     1       5.340  -4.377  -5.560  0.00  0.00    +0.143 HD
ENDROOT
BRANCH   4   8
ATOM      8  C   UNL     1       4.084  -6.418  -4.740  0.00  0.00    -0.013 A 
ATOM      9  C   UNL     1       2.832  -6.996  -4.838  0.00  0.00    +0.006 A 
ATOM     10  C   UNL     1       2.664  -8.166  -5.554  0.00  0.00    +0.001 A 
ATOM     11  C   UNL     1       3.748  -8.759  -6.173  0.00  0.00    +0.015 A 
ATOM     12  C   UNL     1       5.001  -8.181  -6.076  0.00  0.00    +0.018 A 
ATOM     13  C   UNL     1       5.167  -7.007  -5.363  0.00  0.00    +0.021 A 
ATOM     14 BR   UNL     1       6.485  -8.992  -6.922  0.00  0.00    -0.050 Br
ENDBRANCH   4   8
BRANCH   5  15
ATOM     15  N   UNL     1       2.274  -4.642  -5.240  0.00  0.00    -0.264 NA
ATOM     16  H   UNL     1       1.472  -4.037  -5.334  0.00  0.00    +0.137 HD
ATOM     17  H   UNL     1       2.841  -4.623  -6.075  0.00  0.00    +0.137 HD
ENDBRANCH   5  15
BRANCH   1  18
ATOM     18  S   UNL     1       2.908  -1.923  -2.766  0.00  0.00    -0.120 S 
BRANCH  18  19
ATOM     19  C   UNL     1       3.542  -2.787  -1.302  0.00  0.00    +0.118 C 
BRANCH  19  25
ATOM     20  C   UNL     1      -0.016   1.344   0.009  0.00  0.00    +0.002 A 
ATOM     21  C   UNL     1       1.158   2.118   0.002  0.00  0.00    +0.002 A 
ATOM     22  C   UNL     1       2.389   1.570  -0.013  0.00  0.00    +0.027 A 
ATOM     23  C   UNL     1       2.533   0.108  -0.022  0.00  0.00    +0.060 A 
ATOM     24  N   UNL     1       3.569  -0.680  -0.036  0.00  0.00    -0.363 N 
ATOM     25  C   UNL     1       3.071  -2.062  -0.039  0.00  0.00    +0.184 C 
ATOM     26  N   UNL     1       1.606  -1.974  -0.024  0.00  0.00    -0.363 N 
ATOM     27  C   UNL     1       1.290  -0.712  -0.014  0.00  0.00    +0.060 A 
ATOM     28  C   UNL     1       0.002  -0.004   0.002  0.00  0.00    +0.027 A 
ATOM     29  H   UNL     1       4.499  -0.405  -0.045  0.00  0.00    +0.162 HD
ATOM     30  H   UNL     1       0.987  -2.721  -0.022  0.00  0.00    +0.162 HD
ENDBRANCH  19  25
ENDBRANCH  18  19
ENDBRANCH   1  18
TORSDOF 5
