REMARK  Name = ZINC08881771
REMARK  11 active torsions:
REMARK  status: ('A' for Active; 'I' for Inactive)
REMARK    1  A    between atoms: C_1  and  C_2
REMARK    2  A    between atoms: C_5  and  C_36
REMARK    3  A    between atoms: N_8  and  S_10
REMARK    4  A    between atoms: S_10  and  C_13
REMARK    5  A    between atoms: C_16  and  C_19
REMARK    6  A    between atoms: N_21  and  C_22
REMARK    7  A    between atoms: C_23  and  C_34
REMARK    8  A    between atoms: C_27  and  C_32
REMARK    9  A    between atoms: C_27  and  C_33
REMARK   10  A    between atoms: C_28  and  C_30
REMARK   11  A    between atoms: C_28  and  C_31
REMARK                            x       y       z     vdW  Elec       q    Type
REMARK                         _______ _______ _______ _____ _____    ______ ____
ROOT
ATOM      1  C   UNL     1      -2.778   4.368   7.599  0.00  0.00    +0.249 C 
ATOM      2  O   UNL     1      -3.917   4.776   7.485  0.00  0.00    -0.270 OA
ATOM      3  N   UNL     1      -1.998   4.818   8.602  0.00  0.00    -0.275 N 
ATOM      4  H   UNL     1      -1.089   4.492   8.693  0.00  0.00    +0.156 HD
ENDROOT
BRANCH   3   5
ATOM      5  C   UNL     1      -2.496   5.745   9.505  0.00  0.00    +0.090 A 
ATOM      6  C   UNL     1      -1.851   6.320  10.593  0.00  0.00    +0.084 A 
ATOM      7  C   UNL     1      -2.600   7.273  11.383  0.00  0.00    -0.021 A 
ATOM      8  C   UNL     1      -3.871   7.499  10.973  0.00  0.00    -0.015 A 
ATOM      9  S   UNL     1      -4.071   6.467   9.550  0.00  0.00    -0.078 S 
ATOM     10  C   UNL     1      -4.861   8.418  11.611  0.00  0.00    -0.041 C 
ATOM     11  C   UNL     1      -2.800   9.384  12.637  0.00  0.00    -0.069 C 
ATOM     12  C   UNL     1      -2.086   8.028  12.601  0.00  0.00    +0.024 C 
ATOM     13  C   UNL     1      -2.341  10.228  11.444  0.00  0.00    -0.010 C 
ATOM     14  C   UNL     1      -2.368  10.111  13.924  0.00  0.00    -0.010 C 
ATOM     15  C   UNL     1      -5.498   9.307  10.534  0.00  0.00    -0.005 C 
ATOM     16  C   UNL     1      -5.976   7.564  12.244  0.00  0.00    -0.005 C 
ATOM     17  N   UNL     1      -4.280   9.268  12.690  0.00  0.00    +0.389 N 
ATOM     18  H   UNL     1      -4.539   8.861  13.597  0.00  0.00    -0.084 HD
ATOM     19  H   UNL     1      -4.681  10.209  12.610  0.00  0.00    -0.084 HD
BRANCH   6  20
ATOM     20  C   UNL     1      -0.498   5.972  10.911  0.00  0.00    +0.102 C 
ATOM     21  N   UNL     1       0.574   5.695  11.164  0.00  0.00    -0.191 NA
ENDBRANCH   6  20
ENDBRANCH   3   5
BRANCH   1  25
ATOM     22  C   UNL     1      -1.253   1.526   4.835  0.00  0.00    +0.106 A 
ATOM     23  C   UNL     1      -0.452   1.981   5.867  0.00  0.00    +0.029 A 
ATOM     24  C   UNL     1      -0.939   2.909   6.765  0.00  0.00    +0.015 A 
ATOM     25  C   UNL     1      -2.247   3.380   6.637  0.00  0.00    +0.037 A 
ATOM     26  C   UNL     1      -3.052   2.912   5.596  0.00  0.00    +0.015 A 
ATOM     27  C   UNL     1      -2.551   1.989   4.702  0.00  0.00    +0.029 A 
BRANCH  22  28
ATOM     28  S   UNL     1      -0.621   0.347   3.688  0.00  0.00    +0.061 S 
ATOM     29  O   UNL     1      -1.744  -0.332   3.144  0.00  0.00    -0.153 OA
ATOM     30  O   UNL     1       0.435  -0.336   4.349  0.00  0.00    -0.153 OA
BRANCH  28  36
ATOM     31  C   UNL     1       3.619   1.586   1.189  0.00  0.00    +0.009 C 
ATOM     32  C   UNL     1       2.175   1.082   1.218  0.00  0.00    +0.002 C 
ATOM     33  C   UNL     1       1.423   1.616  -0.003  0.00  0.00    +0.009 C 
ATOM     34  C   UNL     1      -0.013   1.086   0.008  0.00  0.00    +0.002 C 
ATOM     35  C   UNL     1      -0.726   1.581   1.270  0.00  0.00    +0.112 C 
ATOM     36  N   UNL     1       0.069   1.195   2.444  0.00  0.00    -0.176 NA
ATOM     37  C   UNL     1       1.486   1.577   2.494  0.00  0.00    +0.112 C 
ATOM     38  C   UNL     1      -0.754   1.593  -1.230  0.00  0.00    +0.009 C 
ENDBRANCH  28  36
ENDBRANCH  22  28
ENDBRANCH   1  25
TORSDOF 5
