REMARK  Name = ZINC12438549
REMARK  4 active torsions:
REMARK  status: ('A' for Active; 'I' for Inactive)
REMARK    1  A    between atoms: C_4  and  C_7
REMARK    2  A    between atoms: C_7  and  C_8
REMARK    3  A    between atoms: C_7  and  N_14
REMARK    4  A    between atoms: C_16  and  C_19
REMARK                            x       y       z     vdW  Elec       q    Type
REMARK                         _______ _______ _______ _____ _____    ______ ____
ROOT
ATOM      1  N   UNL     1       3.994   0.273  -5.112  0.00  0.00    -0.239 N 
ATOM      2  C   UNL     1       3.192   1.344  -4.949  0.00  0.00    +0.144 A 
ATOM      3  C   UNL     1       2.853   1.387  -3.627  0.00  0.00    +0.167 A 
ATOM      4  N   UNL     1       3.449   0.357  -3.001  0.00  0.00    -0.125 NA
ATOM      5  N   UNL     1       4.129  -0.329  -3.853  0.00  0.00    -0.064 NA
ENDROOT
BRANCH   3   6
ATOM      6  C   UNL     1       1.986   2.396  -2.991  0.00  0.00    +0.269 C 
ATOM      7  O   UNL     1       1.504   3.291  -3.659  0.00  0.00    -0.268 OA
ATOM      8  N   UNL     1       1.727   2.327  -1.670  0.00  0.00    -0.293 N 
ATOM      9  C   UNL     1       2.239   1.305  -0.744  0.00  0.00    +0.112 C 
ATOM     10  C   UNL     1       1.696   1.658   0.661  0.00  0.00    +0.008 C 
ATOM     11  C   UNL     1       0.314   0.992   0.794  0.00  0.00    +0.005 C 
ATOM     12  C   UNL     1      -0.458   1.190  -0.513  0.00  0.00    +0.002 C 
ATOM     13  C   UNL     1      -0.541   2.678  -0.861  0.00  0.00    +0.022 C 
ATOM     14  C   UNL     1       0.881   3.265  -0.903  0.00  0.00    +0.077 C 
ATOM     15  C   UNL     1       1.437   3.186   0.543  0.00  0.00    +0.027 C 
ENDBRANCH   3   6
BRANCH   1  16
ATOM     16  C   UNL     1       4.608  -0.176  -6.365  0.00  0.00    +0.169 C 
BRANCH  16  20
ATOM     17  C   UNL     1       1.815  -2.567  -8.540  0.00  0.00    +0.000 A 
ATOM     18  C   UNL     1       3.073  -3.063  -8.252  0.00  0.00    +0.000 A 
ATOM     19  C   UNL     1       3.977  -2.289  -7.549  0.00  0.00    +0.006 A 
ATOM     20  C   UNL     1       3.623  -1.020  -7.132  0.00  0.00    -0.019 A 
ATOM     21  C   UNL     1       2.363  -0.525  -7.415  0.00  0.00    +0.006 A 
ATOM     22  C   UNL     1       1.461  -1.297  -8.124  0.00  0.00    +0.000 A 
ENDBRANCH  16  20
BRANCH  16  23
ATOM     23  C   UNL     1       4.995   1.022  -7.192  0.00  0.00    -0.019 A 
ATOM     24  C   UNL     1       4.866   0.983  -8.568  0.00  0.00    +0.006 A 
ATOM     25  C   UNL     1       5.216   2.084  -9.326  0.00  0.00    +0.000 A 
ATOM     26  C   UNL     1       5.707   3.220  -8.710  0.00  0.00    +0.000 A 
ATOM     27  C   UNL     1       5.842   3.257  -7.335  0.00  0.00    +0.000 A 
ATOM     28  C   UNL     1       5.486   2.158  -6.576  0.00  0.00    +0.006 A 
ENDBRANCH  16  23
ENDBRANCH   1  16
TORSDOF 4
