REMARK  Name = ZINC07763608
REMARK  5 active torsions:
REMARK  status: ('A' for Active; 'I' for Inactive)
REMARK    1  A    between atoms: C_3  and  C_6
REMARK    2  A    between atoms: C_9  and  S_14
REMARK    3  A    between atoms: N_10  and  C_11
REMARK    4  A    between atoms: S_14  and  C_15
REMARK    5  A    between atoms: C_15  and  C_16
REMARK                            x       y       z     vdW  Elec       q    Type
REMARK                         _______ _______ _______ _____ _____    ______ ____
ROOT
ATOM      1  C   UNL     1       3.744   1.882   0.217  0.00  0.00    +0.172 A 
ATOM      2  N   UNL     1       4.133   3.083  -0.148  0.00  0.00    -0.128 NA
ATOM      3  N   UNL     1       5.402   3.091  -0.350  0.00  0.00    -0.122 NA
ATOM      4  C   UNL     1       5.903   1.897  -0.126  0.00  0.00    +0.192 A 
ATOM      5  N   UNL     1       4.867   1.086   0.248  0.00  0.00    -0.299 N 
ENDROOT
BRANCH   1   8
ATOM      6  C   UNL     1       0.071   1.625   1.075  0.00  0.00    +0.008 A 
ATOM      7  C   UNL     1       1.268   2.245   0.796  0.00  0.00    +0.019 A 
ATOM      8  C   UNL     1       2.369   1.467   0.538  0.00  0.00    +0.056 A 
ATOM      9  S   UNL     1       1.697  -0.180   0.694  0.00  0.00    -0.094 S 
ATOM     10  C   UNL     1       0.015   0.269   1.087  0.00  0.00    +0.046 A 
ENDBRANCH   1   8
BRANCH   5  11
ATOM     11  C   UNL     1       4.938  -0.333   0.603  0.00  0.00    +0.091 C 
ATOM     12  C   UNL     1       6.315  -0.908   0.944  0.00  0.00    +0.027 C 
ATOM     13  C   UNL     1       5.639  -1.274  -0.379  0.00  0.00    +0.027 C 
ENDBRANCH   5  11
BRANCH   4  14
ATOM     14  S   UNL     1       7.595   1.430  -0.274  0.00  0.00    -0.081 S 
BRANCH  14  15
ATOM     15  C   UNL     1       8.428   2.957  -0.790  0.00  0.00    +0.115 C 
BRANCH  15  16
ATOM     16  C   UNL     1       9.903   2.693  -0.955  0.00  0.00    -0.002 A 
ATOM     17  C   UNL     1      10.758   2.857   0.118  0.00  0.00    +0.008 A 
ATOM     18  C   UNL     1      12.111   2.615  -0.032  0.00  0.00    +0.016 A 
ATOM     19  C   UNL     1      12.610   2.209  -1.257  0.00  0.00    +0.021 A 
ATOM     20  C   UNL     1      11.756   2.045  -2.332  0.00  0.00    +0.054 A 
ATOM     21  C   UNL     1      10.400   2.281  -2.180  0.00  0.00    +0.128 A 
ATOM     22  F   UNL     1       9.564   2.117  -3.228  0.00  0.00    -0.205 F 
ATOM     23 BR   UNL     1      14.461   1.879  -1.461  0.00  0.00    -0.050 Br
ENDBRANCH  15  16
ENDBRANCH  14  15
ENDBRANCH   4  14
TORSDOF 5
