REMARK  Name = ZINC39699939
REMARK  1 active torsions:
REMARK  status: ('A' for Active; 'I' for Inactive)
REMARK    1  A    between atoms: N_15  and  N_16
REMARK                            x       y       z     vdW  Elec       q    Type
REMARK                         _______ _______ _______ _____ _____    ______ ____
ROOT
ATOM      1  C   UNL     1      -0.597   1.275  -1.033  0.00  0.00    +0.001 A 
ATOM      2  C   UNL     1       0.487   2.142  -1.228  0.00  0.00    +0.002 A 
ATOM      3  C   UNL     1       1.766   1.706  -1.174  0.00  0.00    +0.026 A 
ATOM      4  C   UNL     1       2.030   0.288  -0.904  0.00  0.00    +0.046 A 
ATOM      5  N   UNL     1       3.148  -0.395  -0.831  0.00  0.00    -0.358 N 
ATOM      6  C   UNL     1       2.841  -1.753  -0.413  0.00  0.00    +0.253 C 
ATOM      7  C   UNL     1       1.331  -1.880  -0.495  0.00  0.00    +0.115 C 
ATOM      8  C   UNL     1       0.860  -0.607  -0.714  0.00  0.00    +0.025 A 
ATOM      9  C   UNL     1      -0.435  -0.045  -0.786  0.00  0.00    +0.012 A 
ATOM     10  N   UNL     1       0.725  -3.069  -0.489  0.00  0.00    -0.171 NA
ATOM     11  N   UNL     1       1.432  -4.059  -0.943  0.00  0.00    -0.247 N 
ATOM     12  C   UNL     1       2.675  -3.882  -1.452  0.00  0.00    +0.227 C 
ATOM     13  N   UNL     1       3.394  -2.800  -1.271  0.00  0.00    -0.220 NA
ATOM     14  N   UNL     1       3.222  -4.907  -2.205  0.00  0.00    -0.205 N 
ATOM     15  H   UNL     1       2.718  -5.722  -2.354  0.00  0.00    +0.177 HD
ATOM     16  H   UNL     1       1.059  -4.954  -0.918  0.00  0.00    +0.192 HD
ATOM     17  H   UNL     1       4.034  -0.051  -1.025  0.00  0.00    +0.162 HD
ENDROOT
BRANCH  14  18
ATOM     18  N   UNL     1       4.403  -4.779  -2.708  0.00  0.00    -0.174 NA
ATOM     19  C   UNL     1       4.880  -5.703  -3.509  0.00  0.00    +0.153 C 
ATOM     20  C   UNL     1       4.153  -6.857  -4.087  0.00  0.00    +0.031 A 
ATOM     21  C   UNL     1       2.840  -7.305  -3.983  0.00  0.00    +0.050 A 
ATOM     22  C   UNL     1       2.450  -8.445  -4.659  0.00  0.00    +0.124 A 
ATOM     23  C   UNL     1       3.365  -9.138  -5.437  0.00  0.00    +0.040 A 
ATOM     24  C   UNL     1       4.669  -8.700  -5.546  0.00  0.00    +0.027 A 
ATOM     25  C   UNL     1       5.079  -7.554  -4.873  0.00  0.00    +0.043 A 
ATOM     26  N   UNL     1       6.310  -6.909  -4.813  0.00  0.00    -0.280 N 
ATOM     27  C   UNL     1       6.253  -5.815  -4.034  0.00  0.00    +0.269 C 
ATOM     28  O   UNL     1       7.173  -5.053  -3.801  0.00  0.00    -0.268 OA
ATOM     29  F   UNL     1       1.176  -8.885  -4.561  0.00  0.00    -0.205 F 
ATOM     30  H   UNL     1       7.107  -7.208  -5.277  0.00  0.00    +0.155 HD
ENDBRANCH  14  18
TORSDOF 1
