REMARK  Name = ZINC12524622
REMARK  12 active torsions:
REMARK  status: ('A' for Active; 'I' for Inactive)
REMARK    1  A    between atoms: C_1  and  C_2
REMARK    2  A    between atoms: C_5  and  P_7
REMARK    3  A    between atoms: P_7  and  C_19
REMARK    4  A    between atoms: P_7  and  N_32
REMARK    5  A    between atoms: N_8  and  C_9
REMARK    6  A    between atoms: C_12  and  S_15
REMARK    7  A    between atoms: S_15  and  N_18
REMARK    8  A    between atoms: C_21  and  C_30
REMARK    9  A    between atoms: C_21  and  C_31
REMARK   10  A    between atoms: N_28  and  C_29
REMARK   11  A    between atoms: N_32  and  C_33
REMARK   12  A    between atoms: N_32  and  C_34
REMARK                            x       y       z     vdW  Elec       q    Type
REMARK                         _______ _______ _______ _____ _____    ______ ____
ROOT
ATOM      1  P   UNL     1      -1.611   3.936  -0.194  0.00  0.00    +0.125 P 
ATOM      2  N   UNL     1      -1.312   5.452  -0.038  0.00  0.00    -0.239 NA
ENDROOT
BRANCH   1   3
ATOM      3  C   UNL     1      -3.405   3.677  -0.265  0.00  0.00    +0.061 C 
ATOM      4  C   UNL     1      -4.227   4.691  -0.064  0.00  0.00    +0.024 C 
ATOM      5  C   UNL     1      -3.842   6.141   0.144  0.00  0.00    +0.030 C 
ATOM      6  C   UNL     1      -5.161   6.856   0.323  0.00  0.00    -0.015 A 
ATOM      7  C   UNL     1      -5.475   8.180   0.546  0.00  0.00    +0.006 A 
ATOM      8  C   UNL     1      -6.798   8.565   0.673  0.00  0.00    +0.000 A 
ATOM      9  C   UNL     1      -7.803   7.619   0.576  0.00  0.00    +0.002 A 
ATOM     10  C   UNL     1      -7.492   6.294   0.352  0.00  0.00    +0.024 A 
ATOM     11  C   UNL     1      -6.161   5.898   0.223  0.00  0.00    +0.038 A 
ATOM     12  N   UNL     1      -5.612   4.638  -0.008  0.00  0.00    -0.305 N 
ATOM     13  C   UNL     1      -6.397   3.412  -0.167  0.00  0.00    +0.135 C 
ATOM     14  C   UNL     1      -2.978   6.290   1.397  0.00  0.00    +0.022 C 
ATOM     15  C   UNL     1      -3.104   6.679  -1.084  0.00  0.00    +0.022 C 
ENDBRANCH   1   3
BRANCH   1  20
ATOM     16  C   UNL     1       1.515   0.845   2.829  0.00  0.00    +0.086 C 
ATOM     17  C   UNL     1       0.383   1.758   2.434  0.00  0.00    +0.103 A 
ATOM     18  C   UNL     1      -0.591   2.201   3.249  0.00  0.00    +0.045 A 
ATOM     19  C   UNL     1      -1.435   3.025   2.469  0.00  0.00    +0.053 A 
ATOM     20  C   UNL     1      -0.926   3.035   1.224  0.00  0.00    +0.162 A 
ATOM     21  O   UNL     1       0.171   2.262   1.207  0.00  0.00    -0.457 OA
ENDBRANCH   1  20
BRANCH   2  22
ATOM     22  C   UNL     1      -0.059   5.880   0.002  0.00  0.00    +0.065 A 
ATOM     23  C   UNL     1       1.015   4.965  -0.140  0.00  0.00    +0.029 A 
ATOM     24  C   UNL     1       2.300   5.420  -0.093  0.00  0.00    +0.030 A 
ATOM     25  C   UNL     1       2.559   6.773   0.083  0.00  0.00    +0.105 A 
ATOM     26  C   UNL     1       1.518   7.683   0.218  0.00  0.00    +0.030 A 
ATOM     27  C   UNL     1       0.222   7.258   0.180  0.00  0.00    +0.029 A 
BRANCH  25  28
ATOM     28  S   UNL     1       4.226   7.342   0.135  0.00  0.00    +0.056 S 
ATOM     29  O   UNL     1       4.214   8.568   0.853  0.00  0.00    -0.153 OA
ATOM     30  O   UNL     1       5.021   6.233   0.532  0.00  0.00    -0.153 OA
BRANCH  28  31
ATOM     31  N   UNL     1       4.667   7.707  -1.419  0.00  0.00    -0.204 NA
ATOM     32  H   UNL     1       4.033   7.588  -2.144  0.00  0.00    +0.144 HD
ATOM     33  H   UNL     1       5.559   8.041  -1.604  0.00  0.00    +0.144 HD
ENDBRANCH  28  31
ENDBRANCH  25  28
ENDBRANCH   2  22
BRANCH   1  34
ATOM     34  N   UNL     1      -0.906   3.368  -1.613  0.00  0.00    -0.266 NA
ATOM     35  C   UNL     1      -1.088   1.917  -1.747  0.00  0.00    +0.111 C 
ATOM     36  C   UNL     1      -1.438   4.077  -2.785  0.00  0.00    +0.111 C 
ENDBRANCH   1  34
TORSDOF 6
