REMARK  Name = ZINC59272846
REMARK  11 active torsions:
REMARK  status: ('A' for Active; 'I' for Inactive)
REMARK    1  A    between atoms: C_1  and  C_2
REMARK    2  A    between atoms: C_5  and  C_9
REMARK    3  A    between atoms: C_6  and  C_8
REMARK    4  A    between atoms: C_9  and  N_10
REMARK    5  A    between atoms: C_17  and  C_20
REMARK    6  A    between atoms: C_17  and  O_32
REMARK    7  A    between atoms: C_20  and  C_21
REMARK    8  A    between atoms: C_21  and  C_23
REMARK    9  A    between atoms: C_26  and  C_29
REMARK   10  A    between atoms: C_29  and  C_30
REMARK   11  A    between atoms: C_29  and  C_31
REMARK                            x       y       z     vdW  Elec       q    Type
REMARK                         _______ _______ _______ _____ _____    ______ ____
ROOT
ATOM      1  N   UNL     1      -1.216  -4.852   0.326  0.00  0.00    -0.264 N 
ATOM      2  C   UNL     1      -1.769  -5.121   1.579  0.00  0.00    +0.043 A 
ATOM      3  C   UNL     1      -1.236  -4.982   2.859  0.00  0.00    +0.025 A 
ATOM      4  C   UNL     1      -1.990  -5.320   3.963  0.00  0.00    +0.017 A 
ATOM      5  C   UNL     1      -3.279  -5.798   3.811  0.00  0.00    +0.018 A 
ATOM      6  C   UNL     1      -3.816  -5.938   2.542  0.00  0.00    +0.024 A 
ATOM      7  C   UNL     1      -3.065  -5.601   1.438  0.00  0.00    +0.016 A 
ATOM      8  C   UNL     1      -3.347  -5.636  -0.046  0.00  0.00    +0.175 C 
ATOM      9  C   UNL     1      -2.071  -5.120  -0.676  0.00  0.00    +0.257 C 
ATOM     10  O   UNL     1      -1.859  -4.977  -1.861  0.00  0.00    -0.272 OA
ATOM     11 BR   UNL     1      -4.305  -6.260   5.331  0.00  0.00    -0.050 Br
ENDROOT
BRANCH   8  12
ATOM     12  O   UNL     1      -3.616  -6.973  -0.473  0.00  0.00    -0.374 OA
ATOM     13  H   UNL     1      -3.804  -7.053  -1.419  0.00  0.00    +0.211 HD
ENDBRANCH   8  12
BRANCH   1  14
ATOM     14  C   UNL     1       0.139  -4.332   0.126  0.00  0.00    +0.149 C 
BRANCH  14  19
ATOM     15  C   UNL     1       3.811  -8.739  -0.571  0.00  0.00    +0.044 C 
ATOM     16  C   UNL     1       2.853  -7.590  -0.389  0.00  0.00    -0.050 A 
ATOM     17  C   UNL     1       1.534  -7.835  -0.058  0.00  0.00    +0.004 A 
ATOM     18  C   UNL     1       0.656  -6.781   0.109  0.00  0.00    +0.006 A 
ATOM     19  C   UNL     1       1.097  -5.481  -0.055  0.00  0.00    -0.027 A 
ATOM     20  C   UNL     1       2.416  -5.236  -0.385  0.00  0.00    -0.046 A 
ATOM     21  C   UNL     1       3.296  -6.290  -0.548  0.00  0.00    +0.007 A 
ATOM     22  C   UNL     1       2.897  -3.819  -0.565  0.00  0.00    +0.044 C 
ENDBRANCH  14  19
ENDBRANCH   1  14
BRANCH   8  23
ATOM     23  C   UNL     1      -4.520  -4.716  -0.391  0.00  0.00    +0.129 C 
BRANCH  23  24
ATOM     24  C   UNL     1      -4.781  -4.768  -1.874  0.00  0.00    +0.167 C 
ATOM     25  O   UNL     1      -4.096  -5.472  -2.585  0.00  0.00    -0.292 OA
BRANCH  24  26
ATOM     26  C   UNL     1      -5.866  -3.965  -2.459  0.00  0.00    +0.018 A 
ATOM     27  C   UNL     1      -6.654  -3.147  -1.642  0.00  0.00    +0.011 A 
ATOM     28  C   UNL     1      -7.669  -2.397  -2.198  0.00  0.00    +0.004 A 
ATOM     29  C   UNL     1      -7.909  -2.452  -3.560  0.00  0.00    -0.045 A 
ATOM     30  C   UNL     1      -7.134  -3.260  -4.375  0.00  0.00    +0.004 A 
ATOM     31  C   UNL     1      -6.112  -4.011  -3.835  0.00  0.00    +0.011 A 
BRANCH  29  32
ATOM     32  C   UNL     1      -9.020  -1.629  -4.159  0.00  0.00    +0.013 C 
ATOM     33  C   UNL     1      -8.439  -0.664  -5.194  0.00  0.00    +0.012 C 
ATOM     34  C   UNL     1     -10.032  -2.555  -4.837  0.00  0.00    +0.012 C 
ENDBRANCH  29  32
ENDBRANCH  24  26
ENDBRANCH  23  24
ENDBRANCH   8  23
TORSDOF 7
