REMARK  Name = ZINC39944206
REMARK  8 active torsions:
REMARK  status: ('A' for Active; 'I' for Inactive)
REMARK    1  A    between atoms: C_1  and  C_2
REMARK    2  A    between atoms: C_4  and  N_9
REMARK    3  A    between atoms: C_5  and  C_8
REMARK    4  A    between atoms: C_10  and  C_11
REMARK    5  A    between atoms: C_12  and  C_31
REMARK    6  A    between atoms: C_14  and  C_25
REMARK    7  A    between atoms: C_16  and  C_18
REMARK    8  A    between atoms: C_18  and  C_19
REMARK                            x       y       z     vdW  Elec       q    Type
REMARK                         _______ _______ _______ _____ _____    ______ ____
ROOT
ATOM      1  C   UNL     1      -3.287   0.603  -2.765  0.00  0.00    +0.005 C 
ATOM      2  C   UNL     1      -3.059   1.378  -3.906  0.00  0.00    +0.024 C 
ATOM      3  S   UNL     1      -4.341   1.496  -5.116  0.00  0.00    -0.111 S 
ATOM      4  C   UNL     1      -5.851   1.330  -4.121  0.00  0.00    +0.107 C 
ATOM      5  C   UNL     1      -5.687   0.195  -3.151  0.00  0.00    -0.047 C 
ATOM      6  C   UNL     1      -4.550  -0.112  -2.567  0.00  0.00    +0.011 C 
ENDROOT
BRANCH   4   7
ATOM      7  C   UNL     1      -6.096   2.608  -3.362  0.00  0.00    -0.030 A 
ATOM      8  C   UNL     1      -5.151   3.073  -2.467  0.00  0.00    +0.005 A 
ATOM      9  C   UNL     1      -5.375   4.246  -1.771  0.00  0.00    +0.000 A 
ATOM     10  C   UNL     1      -6.545   4.955  -1.970  0.00  0.00    +0.000 A 
ATOM     11  C   UNL     1      -7.490   4.491  -2.866  0.00  0.00    +0.000 A 
ATOM     12  C   UNL     1      -7.264   3.320  -3.565  0.00  0.00    +0.005 A 
ENDBRANCH   4   7
BRANCH   2  13
ATOM     13  C   UNL     1      -1.778   2.081  -4.095  0.00  0.00    -0.011 A 
ATOM     14  C   UNL     1      -0.570   1.393  -3.944  0.00  0.00    +0.009 A 
ATOM     15  C   UNL     1       0.624   2.057  -4.123  0.00  0.00    +0.001 A 
ATOM     16  C   UNL     1       0.630   3.402  -4.450  0.00  0.00    +0.000 A 
ATOM     17  C   UNL     1      -0.561   4.090  -4.601  0.00  0.00    +0.001 A 
ATOM     18  C   UNL     1      -1.764   3.438  -4.431  0.00  0.00    +0.009 A 
ENDBRANCH   2  13
BRANCH   1  20
ATOM     19  N   UNL     1      -2.437  -0.308  -0.759  0.00  0.00    -0.361 N 
ATOM     20  C   UNL     1      -2.280   0.502  -1.788  0.00  0.00    +0.091 C 
ATOM     21  H   UNL     1      -3.247  -0.835  -0.676  0.00  0.00    +0.165 HD
BRANCH  19  24
ATOM     22  C   UNL     1      -0.372   1.843   0.303  0.00  0.00    +0.041 C 
ATOM     23  C   UNL     1      -0.150   0.331   0.217  0.00  0.00    +0.173 C 
ATOM     24  C   UNL     1      -1.478  -0.404   0.170  0.00  0.00    +0.065 C 
ATOM     25  C   UNL     1      -1.472  -1.183   1.289  0.00  0.00    +0.081 C 
ATOM     26  N   UNL     1      -0.347  -1.015   1.980  0.00  0.00    -0.157 NA
ATOM     27  N   UNL     1       0.473  -0.174   1.452  0.00  0.00    -0.178 NA
ATOM     28  C   UNL     1      -2.591  -2.110   1.690  0.00  0.00    +0.069 C 
ENDBRANCH  19  24
ENDBRANCH   1  20
BRANCH   5  29
ATOM     29  C   UNL     1      -6.897  -0.646  -2.832  0.00  0.00    +0.067 C 
BRANCH  29  30
ATOM     30  C   UNL     1      -7.689   0.011  -1.731  0.00  0.00    -0.043 A 
ATOM     31  C   UNL     1      -7.414  -0.285  -0.409  0.00  0.00    +0.004 A 
ATOM     32  C   UNL     1      -8.141   0.318   0.600  0.00  0.00    +0.000 A 
ATOM     33  C   UNL     1      -9.143   1.218   0.287  0.00  0.00    +0.000 A 
ATOM     34  C   UNL     1      -9.417   1.516  -1.034  0.00  0.00    +0.000 A 
ATOM     35  C   UNL     1      -8.687   0.916  -2.044  0.00  0.00    +0.004 A 
ENDBRANCH  29  30
ENDBRANCH   5  29
TORSDOF 6
