REMARK  Name = ZINC05182108
REMARK  9 active torsions:
REMARK  status: ('A' for Active; 'I' for Inactive)
REMARK    1  A    between atoms: C_1  and  O_2
REMARK    2  A    between atoms: O_2  and  C_3
REMARK    3  A    between atoms: C_7  and  C_9
REMARK    4  A    between atoms: C_16  and  N_31
REMARK    5  A    between atoms: C_17  and  C_29
REMARK    6  A    between atoms: C_18  and  C_20
REMARK    7  A    between atoms: C_23  and  O_27
REMARK    8  A    between atoms: C_24  and  O_26
REMARK    9  A    between atoms: O_27  and  C_28
REMARK                            x       y       z     vdW  Elec       q    Type
REMARK                         _______ _______ _______ _____ _____    ______ ____
ROOT
ATOM      1  C   UNL     1       1.331  -4.084  -2.299  0.00  0.00    +0.100 A 
ATOM      2  C   UNL     1       1.260  -4.844  -3.470  0.00  0.00    +0.054 A 
ATOM      3  C   UNL     1       1.349  -6.162  -3.125  0.00  0.00    +0.223 A 
ATOM      4  N   UNL     1       1.470  -6.227  -1.783  0.00  0.00    -0.246 N 
ATOM      5  H   UNL     1       1.551  -7.038  -1.256  0.00  0.00    +0.192 HD
ATOM      6  N   UNL     1       1.463  -4.916  -1.283  0.00  0.00    -0.171 NA
ATOM      7  O   UNL     1       1.314  -7.163  -4.040  0.00  0.00    -0.423 OA
ATOM      8  C   UNL     1       1.464  -6.828  -5.338  0.00  0.00    +0.200 C 
ATOM      9  C   UNL     1       1.385  -5.561  -5.802  0.00  0.00    +0.098 C 
ATOM     10  C   UNL     1       1.111  -4.385  -4.898  0.00  0.00    +0.102 C 
ENDROOT
BRANCH   1  15
ATOM     11  C   UNL     1       0.606  -0.607  -1.056  0.00  0.00    +0.121 A 
ATOM     12  C   UNL     1       1.173   0.162  -2.062  0.00  0.00    +0.045 A 
ATOM     13  C   UNL     1       1.788  -0.447  -3.140  0.00  0.00    +0.004 A 
ATOM     14  C   UNL     1       1.842  -1.824  -3.221  0.00  0.00    +0.010 A 
ATOM     15  C   UNL     1       1.275  -2.603  -2.215  0.00  0.00    +0.006 A 
ATOM     16  C   UNL     1       0.660  -1.989  -1.126  0.00  0.00    +0.055 A 
BRANCH  11  18
ATOM     17  C   UNL     1      -0.017   1.425   0.010  0.00  0.00    +0.277 C 
ATOM     18  O   UNL     1       0.002  -0.004   0.002  0.00  0.00    -0.495 OA
ENDBRANCH  11  18
ENDBRANCH   1  15
BRANCH  10  19
ATOM     19  C   UNL     1      -0.291  -3.882  -5.127  0.00  0.00    -0.031 A 
ATOM     20  C   UNL     1      -1.367  -4.728  -4.932  0.00  0.00    +0.008 A 
ATOM     21  C   UNL     1      -2.655  -4.271  -5.141  0.00  0.00    +0.050 A 
ATOM     22  C   UNL     1      -2.870  -2.963  -5.546  0.00  0.00    +0.161 A 
ATOM     23  C   UNL     1      -1.786  -2.112  -5.741  0.00  0.00    +0.159 A 
ATOM     24  C   UNL     1      -0.498  -2.575  -5.525  0.00  0.00    +0.053 A 
BRANCH  23  25
ATOM     25  O   UNL     1      -1.992  -0.828  -6.138  0.00  0.00    -0.503 OA
ATOM     26  H   UNL     1      -2.098  -0.203  -5.408  0.00  0.00    +0.292 HD
ENDBRANCH  23  25
BRANCH  22  27
ATOM     27  O   UNL     1      -4.136  -2.513  -5.752  0.00  0.00    -0.491 OA
ATOM     28  C   UNL     1      -5.199  -3.443  -5.533  0.00  0.00    +0.277 C 
ENDBRANCH  22  27
ENDBRANCH  10  19
BRANCH   8  29
ATOM     29  N   UNL     1       1.713  -7.832  -6.240  0.00  0.00    -0.328 N 
ATOM     30  H   UNL     1       1.776  -8.752  -5.937  0.00  0.00    +0.145 HD
ATOM     31  H   UNL     1       1.826  -7.623  -7.180  0.00  0.00    +0.145 HD
ENDBRANCH   8  29
BRANCH   9  32
ATOM     32  C   UNL     1       1.567  -5.327  -7.203  0.00  0.00    +0.101 C 
ATOM     33  N   UNL     1       1.711  -5.141  -8.314  0.00  0.00    -0.191 NA
ENDBRANCH   9  32
TORSDOF 7
