REMARK  Name = ZINC08933152
REMARK  8 active torsions:
REMARK  status: ('A' for Active; 'I' for Inactive)
REMARK    1  A    between atoms: C_1  and  C_2
REMARK    2  A    between atoms: C_7  and  C_8
REMARK    3  A    between atoms: C_8  and  N_9
REMARK    4  A    between atoms: N_20  and  C_23
REMARK    5  A    between atoms: C_23  and  C_24
REMARK    6  A    between atoms: N_26  and  C_27
REMARK    7  A    between atoms: C_32  and  C_37
REMARK    8  A    between atoms: C_34  and  C_36
REMARK                            x       y       z     vdW  Elec       q    Type
REMARK                         _______ _______ _______ _____ _____    ______ ____
ROOT
ATOM      1  N   UNL     1       0.924  -2.082  -0.016  0.00  0.00    -0.331 N 
ATOM      2  C   UNL     1       1.157  -0.723  -0.014  0.00  0.00    +0.051 A 
ATOM      3  C   UNL     1       2.328   0.032  -0.025  0.00  0.00    +0.026 A 
ATOM      4  C   UNL     1       2.257   1.407  -0.019  0.00  0.00    +0.002 A 
ATOM      5  C   UNL     1       1.028   2.052  -0.003  0.00  0.00    +0.001 A 
ATOM      6  C   UNL     1      -0.132   1.330   0.010  0.00  0.00    +0.010 A 
ATOM      7  C   UNL     1      -0.084  -0.064   0.004  0.00  0.00    +0.009 A 
ATOM      8  C   UNL     1      -1.110  -1.116   0.013  0.00  0.00    +0.033 A 
ATOM      9  C   UNL     1      -0.430  -2.333   0.000  0.00  0.00    +0.119 A 
ATOM     10  C   UNL     1      -1.186  -3.530   0.005  0.00  0.00    +0.292 A 
ATOM     11  O   UNL     1      -0.625  -4.614  -0.005  0.00  0.00    -0.264 OA
ATOM     12  N   UNL     1      -2.533  -3.460   0.021  0.00  0.00    -0.219 N 
ATOM     13  N   UNL     1      -3.187  -2.225   0.034  0.00  0.00    -0.175 NA
ATOM     14  C   UNL     1      -2.521  -1.105   0.030  0.00  0.00    +0.143 A 
ENDROOT
BRANCH   1  15
ATOM     15  C   UNL     1       1.967  -3.111  -0.033  0.00  0.00    +0.158 C 
BRANCH  15  22
ATOM     16  C   UNL     1       3.759  -5.312  -0.574  0.00  0.00    +0.044 C 
ATOM     17  C   UNL     1       3.083  -4.592  -1.713  0.00  0.00    -0.046 A 
ATOM     18  C   UNL     1       3.321  -4.986  -3.017  0.00  0.00    +0.004 A 
ATOM     19  C   UNL     1       2.701  -4.327  -4.062  0.00  0.00    +0.000 A 
ATOM     20  C   UNL     1       1.843  -3.273  -3.803  0.00  0.00    +0.000 A 
ATOM     21  C   UNL     1       1.602  -2.883  -2.499  0.00  0.00    +0.005 A 
ATOM     22  C   UNL     1       2.226  -3.539  -1.454  0.00  0.00    -0.025 A 
ENDBRANCH  15  22
ENDBRANCH   1  15
BRANCH  12  23
ATOM     23  C   UNL     1      -3.320  -4.696   0.026  0.00  0.00    +0.243 C 
BRANCH  23  24
ATOM     24  C   UNL     1      -3.572  -5.125   1.449  0.00  0.00    +0.235 C 
ATOM     25  O   UNL     1      -3.138  -4.464   2.368  0.00  0.00    -0.274 OA
ATOM     26  N   UNL     1      -4.282  -6.243   1.699  0.00  0.00    -0.311 N 
ATOM     27  H   UNL     1      -4.629  -6.772   0.964  0.00  0.00    +0.149 HD
BRANCH  26  28
ATOM     28  C   UNL     1      -4.527  -6.661   3.082  0.00  0.00    +0.076 C 
ATOM     29  C   UNL     1      -3.337  -7.478   3.587  0.00  0.00    +0.022 C 
ATOM     30  C   UNL     1      -3.593  -7.914   5.031  0.00  0.00    +0.002 C 
ATOM     31  C   UNL     1      -4.860  -8.769   5.088  0.00  0.00    +0.003 C 
ATOM     32  C   UNL     1      -6.051  -7.952   4.583  0.00  0.00    -0.009 C 
ATOM     33  C   UNL     1      -5.794  -7.516   3.139  0.00  0.00    +0.009 C 
ATOM     34  C   UNL     1      -5.615  -8.753   2.257  0.00  0.00    +0.009 C 
ATOM     35  C   UNL     1      -7.318  -8.807   4.641  0.00  0.00    +0.008 C 
ENDBRANCH  26  28
ENDBRANCH  23  24
ENDBRANCH  12  23
TORSDOF 5
