REMARK  Name = ZINC32641225
REMARK  6 active torsions:
REMARK  status: ('A' for Active; 'I' for Inactive)
REMARK    1  A    between atoms: C_1  and  C_2
REMARK    2  A    between atoms: C_5  and  N_8
REMARK    3  A    between atoms: C_19  and  S_20
REMARK    4  A    between atoms: S_20  and  C_21
REMARK    5  A    between atoms: C_21  and  C_22
REMARK    6  A    between atoms: C_26  and  C_28
REMARK                            x       y       z     vdW  Elec       q    Type
REMARK                         _______ _______ _______ _____ _____    ______ ____
ROOT
ATOM      1  N   UNL     1      -2.455   3.823   0.045  0.00  0.00    -0.273 N 
ATOM      2  C   UNL     1      -3.792   3.211  -0.050  0.00  0.00    +0.128 C 
ATOM      3  C   UNL     1      -3.888   2.411  -1.366  0.00  0.00    +0.191 C 
ATOM      4  S   UNL     1      -4.606   3.671  -2.507  0.00  0.00    -0.027 S 
ATOM      5  O   UNL     1      -3.571   4.518  -2.986  0.00  0.00    -0.174 OA
ATOM      6  O   UNL     1      -5.475   3.028  -3.430  0.00  0.00    -0.174 OA
ATOM      7  C   UNL     1      -5.610   4.580  -1.253  0.00  0.00    +0.194 C 
ATOM      8  C   UNL     1      -4.741   4.412   0.012  0.00  0.00    +0.151 C 
ATOM      9  N   UNL     1      -3.848   5.572   0.140  0.00  0.00    -0.256 NA
ATOM     10  C   UNL     1      -2.614   5.180   0.156  0.00  0.00    +0.157 C 
ENDROOT
BRANCH   1  15
ATOM     11  C   UNL     1       2.489   1.044  -0.016  0.00  0.00    +0.044 C 
ATOM     12  C   UNL     1       1.176   1.782   0.001  0.00  0.00    -0.050 A 
ATOM     13  C   UNL     1       0.306   1.620   1.063  0.00  0.00    +0.005 A 
ATOM     14  C   UNL     1      -0.901   2.291   1.079  0.00  0.00    +0.024 A 
ATOM     15  C   UNL     1      -1.236   3.138   0.030  0.00  0.00    +0.036 A 
ATOM     16  C   UNL     1      -0.360   3.299  -1.036  0.00  0.00    +0.024 A 
ATOM     17  C   UNL     1       0.843   2.621  -1.047  0.00  0.00    +0.005 A 
ENDBRANCH   1  15
BRANCH  10  18
ATOM     18  S   UNL     1      -1.257   6.294   0.303  0.00  0.00    -0.086 S 
BRANCH  18  19
ATOM     19  C   UNL     1      -2.150   7.866   0.405  0.00  0.00    +0.112 C 
BRANCH  19  20
ATOM     20  C   UNL     1      -1.162   8.996   0.540  0.00  0.00    -0.037 A 
ATOM     21  C   UNL     1      -0.759   9.416   1.794  0.00  0.00    +0.004 A 
ATOM     22  C   UNL     1       0.150  10.450   1.917  0.00  0.00    +0.001 A 
ATOM     23  C   UNL     1       0.648  11.071   0.787  0.00  0.00    +0.003 A 
ATOM     24  C   UNL     1       0.240  10.655  -0.467  0.00  0.00    -0.050 A 
ATOM     25  C   UNL     1      -0.665   9.618  -0.590  0.00  0.00    +0.007 A 
ATOM     26  C   UNL     1       0.782  11.333  -1.699  0.00  0.00    +0.044 C 
ENDBRANCH  19  20
ENDBRANCH  18  19
ENDBRANCH  10  18
TORSDOF 4
