REMARK  Name = ZINC34749496
REMARK  9 active torsions:
REMARK  status: ('A' for Active; 'I' for Inactive)
REMARK    1  A    between atoms: C_1  and  C_2
REMARK    2  A    between atoms: C_2  and  C_3
REMARK    3  A    between atoms: C_4  and  C_33
REMARK    4  A    between atoms: N_10  and  C_29
REMARK    5  A    between atoms: N_16  and  C_19
REMARK    6  A    between atoms: C_19  and  C_20
REMARK    7  A    between atoms: N_22  and  C_23
REMARK    8  A    between atoms: C_29  and  C_30
REMARK    9  A    between atoms: C_30  and  C_32
REMARK                            x       y       z     vdW  Elec       q    Type
REMARK                         _______ _______ _______ _____ _____    ______ ____
ROOT
ATOM      1  C   UNL     1      -1.069  -0.944  -0.397  0.00  0.00    -0.023 A 
ATOM      2  C   UNL     1       0.070  -1.625  -0.590  0.00  0.00    -0.007 A 
ATOM      3  S   UNL     1      -0.165  -2.380  -2.187  0.00  0.00    -0.073 S 
ATOM      4  C   UNL     1      -1.787  -1.759  -2.550  0.00  0.00    +0.117 A 
ATOM      5  C   UNL     1      -2.103  -0.987  -1.417  0.00  0.00    +0.076 A 
ATOM      6  C   UNL     1      -3.386  -0.354  -1.433  0.00  0.00    +0.264 A 
ATOM      7  O   UNL     1      -3.745   0.339  -0.496  0.00  0.00    -0.267 OA
ATOM      8  N   UNL     1      -4.191  -0.534  -2.496  0.00  0.00    -0.276 N 
ATOM      9  C   UNL     1      -3.807  -1.306  -3.553  0.00  0.00    +0.202 A 
ATOM     10  N   UNL     1      -2.628  -1.891  -3.569  0.00  0.00    -0.208 NA
ATOM     11  N   UNL     1      -4.657  -1.465  -4.619  0.00  0.00    -0.304 N 
ATOM     12  C   UNL     1      -4.188  -1.258  -5.997  0.00  0.00    +0.089 C 
ATOM     13  C   UNL     1      -4.593  -2.475  -6.836  0.00  0.00    -0.059 C 
ATOM     14  N   UNL     1      -6.040  -2.693  -6.714  0.00  0.00    +0.387 N 
ATOM     15  C   UNL     1      -6.379  -3.038  -5.328  0.00  0.00    -0.059 C 
ATOM     16  C   UNL     1      -6.061  -1.854  -4.415  0.00  0.00    +0.089 C 
ATOM     17  C   UNL     1       1.263  -1.727   0.325  0.00  0.00    +0.052 C 
ATOM     18  H   UNL     1      -6.529  -1.851  -6.979  0.00  0.00    -0.081 HD
ENDROOT
BRANCH   1  20
ATOM     19  C   UNL     1      -1.926  -1.037   1.928  0.00  0.00    +0.009 C 
ATOM     20  C   UNL     1      -1.277  -0.148   0.866  0.00  0.00    +0.033 C 
ENDBRANCH   1  20
BRANCH  14  21
ATOM     21  C   UNL     1      -6.446  -3.790  -7.603  0.00  0.00    +0.019 C 
BRANCH  21  22
ATOM     22  C   UNL     1      -7.945  -3.934  -7.572  0.00  0.00    +0.197 C 
ATOM     23  O   UNL     1      -8.611  -3.195  -6.878  0.00  0.00    -0.278 OA
ATOM     24  N   UNL     1      -8.547  -4.883  -8.316  0.00  0.00    -0.314 N 
ATOM     25  H   UNL     1      -8.014  -5.474  -8.871  0.00  0.00    +0.149 HD
BRANCH  24  26
ATOM     26  C   UNL     1     -10.005  -5.023  -8.286  0.00  0.00    +0.073 C 
ATOM     27  C   UNL     1     -10.408  -5.903  -7.101  0.00  0.00    +0.022 C 
ATOM     28  C   UNL     1     -11.931  -6.049  -7.069  0.00  0.00    +0.002 C 
ATOM     29  C   UNL     1     -12.408  -6.696  -8.371  0.00  0.00    +0.000 C 
ATOM     30  C   UNL     1     -12.005  -5.816  -9.556  0.00  0.00    +0.002 C 
ATOM     31  C   UNL     1     -10.482  -5.670  -9.587  0.00  0.00    +0.022 C 
ENDBRANCH  24  26
ENDBRANCH  21  22
ENDBRANCH  14  21
BRANCH   8  32
ATOM     32  C   UNL     1      -5.507   0.111  -2.518  0.00  0.00    +0.158 C 
BRANCH  32  33
ATOM     33  C   UNL     1      -5.393   1.461  -3.178  0.00  0.00    -0.060 C 
ATOM     34  C   UNL     1      -5.668   1.593  -4.452  0.00  0.00    +0.009 C 
ATOM     35  C   UNL     1      -4.963   2.660  -2.372  0.00  0.00    +0.040 C 
ENDBRANCH  32  33
ENDBRANCH   8  32
TORSDOF 6
