REMARK  Name = ZINC06750802
REMARK  8 active torsions:
REMARK  status: ('A' for Active; 'I' for Inactive)
REMARK    1  A    between atoms: C_1  and  C_2
REMARK    2  A    between atoms: C_9  and  O_16
REMARK    3  A    between atoms: C_12  and  C_14
REMARK    4  A    between atoms: C_12  and  C_15
REMARK    5  A    between atoms: O_16  and  C_17
REMARK    6  A    between atoms: C_19  and  C_20
REMARK    7  A    between atoms: N_22  and  C_23
REMARK    8  A    between atoms: C_23  and  C_24
REMARK                            x       y       z     vdW  Elec       q    Type
REMARK                         _______ _______ _______ _____ _____    ______ ____
ROOT
ATOM      1  C   UNL     1       4.185  -1.689  -0.282  0.00  0.00    +0.048 C 
ATOM      2  C   UNL     1       3.595  -0.307  -0.396  0.00  0.00    +0.008 A 
ATOM      3  C   UNL     1       2.176   0.046  -0.406  0.00  0.00    +0.033 A 
ATOM      4  C   UNL     1       2.131   1.446  -0.527  0.00  0.00    +0.137 A 
ATOM      5  C   UNL     1       0.897   2.083  -0.564  0.00  0.00    +0.050 A 
ATOM      6  C   UNL     1      -0.261   1.345  -0.484  0.00  0.00    +0.049 A 
ATOM      7  C   UNL     1      -0.221  -0.046  -0.365  0.00  0.00    +0.128 A 
ATOM      8  C   UNL     1       0.992  -0.697  -0.323  0.00  0.00    +0.034 A 
ATOM      9  C   UNL     1       1.077  -2.196  -0.184  0.00  0.00    +0.156 C 
ATOM     10  C   UNL     1      -0.268  -2.827  -0.552  0.00  0.00    +0.084 C 
ATOM     11  C   UNL     1      -1.375  -2.064   0.187  0.00  0.00    +0.108 C 
ATOM     12  O   UNL     1      -1.399  -0.723  -0.301  0.00  0.00    -0.486 OA
ATOM     13  C   UNL     1      -2.726  -2.733  -0.075  0.00  0.00    +0.055 C 
ATOM     14  C   UNL     1      -1.084  -2.062   1.690  0.00  0.00    +0.055 C 
ATOM     15  O   UNL     1       3.402   1.891  -0.585  0.00  0.00    -0.450 OA
ATOM     16  C   UNL     1       4.274   0.864  -0.508  0.00  0.00    +0.193 A 
ENDROOT
BRANCH  16  17
ATOM     17  C   UNL     1       5.738   0.994  -0.539  0.00  0.00    +0.280 C 
ATOM     18  O   UNL     1       6.438   0.002  -0.463  0.00  0.00    -0.267 OA
ATOM     19  N   UNL     1       6.304   2.211  -0.654  0.00  0.00    -0.305 N 
ATOM     20  H   UNL     1       5.671   3.108  -0.724  0.00  0.00    +0.149 HD
BRANCH  19  21
ATOM     21  C   UNL     1       7.763   2.340  -0.685  0.00  0.00    +0.141 C 
BRANCH  21  22
ATOM     22  C   UNL     1       8.136   3.795  -0.818  0.00  0.00    -0.012 A 
ATOM     23  C   UNL     1       8.623   4.486   0.276  0.00  0.00    +0.006 A 
ATOM     24  C   UNL     1       8.965   5.819   0.154  0.00  0.00    +0.000 A 
ATOM     25  C   UNL     1       8.821   6.463  -1.061  0.00  0.00    +0.001 A 
ATOM     26  C   UNL     1       8.334   5.773  -2.155  0.00  0.00    +0.020 A 
ATOM     27  C   UNL     1       7.996   4.436  -2.035  0.00  0.00    +0.046 A 
ATOM     28 CL   UNL     1       7.392   3.567  -3.411  0.00  0.00    -0.083 Cl
ENDBRANCH  21  22
ENDBRANCH  19  21
ENDBRANCH  16  17
BRANCH   9  29
ATOM     29  O   UNL     1       2.092  -2.697  -1.056  0.00  0.00    -0.375 OA
ATOM     30  C   UNL     1       2.590  -3.985  -0.688  0.00  0.00    +0.194 C 
ENDBRANCH   9  29
TORSDOF 4
