REMARK  Name = ZINC39746789
REMARK  4 active torsions:
REMARK  status: ('A' for Active; 'I' for Inactive)
REMARK    1  A    between atoms: C_1  and  C_2
REMARK    2  A    between atoms: C_8  and  C_10
REMARK    3  A    between atoms: C_10  and  N_11
REMARK    4  A    between atoms: C_12  and  C_14
REMARK                            x       y       z     vdW  Elec       q    Type
REMARK                         _______ _______ _______ _____ _____    ______ ____
ROOT
ATOM      1  N   UNL     1       1.439  -1.259   3.235  0.00  0.00    -0.310 N 
ATOM      2  C   UNL     1       2.580  -1.300   3.952  0.00  0.00    +0.251 C 
ATOM      3  O   UNL     1       3.604  -0.832   3.491  0.00  0.00    -0.270 OA
ATOM      4  H   UNL     1       0.622  -1.631   3.602  0.00  0.00    +0.149 HD
ENDROOT
BRANCH   2   5
ATOM      5  C   UNL     1       2.586  -1.909   5.290  0.00  0.00    +0.075 A 
ATOM      6  C   UNL     1       3.625  -2.038   6.157  0.00  0.00    +0.029 A 
ATOM      7  C   UNL     1       3.426  -2.658   7.404  0.00  0.00    -0.010 A 
ATOM      8  C   UNL     1       4.375  -2.884   8.434  0.00  0.00    +0.009 A 
ATOM      9  C   UNL     1       4.014  -3.504   9.587  0.00  0.00    +0.001 A 
ATOM     10  C   UNL     1       2.712  -3.938   9.804  0.00  0.00    +0.001 A 
ATOM     11  C   UNL     1       1.757  -3.737   8.829  0.00  0.00    +0.015 A 
ATOM     12  C   UNL     1       2.108  -3.110   7.652  0.00  0.00    +0.020 A 
ATOM     13  S   UNL     1       1.230  -2.654   6.178  0.00  0.00    -0.084 S 
ENDBRANCH   2   5
BRANCH   1  14
ATOM     14  C   UNL     1       1.433  -0.652   1.902  0.00  0.00    +0.121 C 
BRANCH  14  22
ATOM     15  C   UNL     1      -0.018   1.503   0.010  0.00  0.00    +0.040 C 
ATOM     16  C   UNL     1       0.002  -0.004   0.002  0.00  0.00    -0.058 C 
ATOM     17  C   UNL     1       0.005  -0.637  -1.160  0.00  0.00    +0.022 C 
ATOM     18  C   UNL     1       0.017  -2.113  -1.190  0.00  0.00    +0.026 C 
ATOM     19  N   UNL     1      -0.331  -2.811  -0.026  0.00  0.00    -0.285 N 
ATOM     20  C   UNL     1      -0.360  -2.176   1.156  0.00  0.00    +0.226 C 
ATOM     21  O   UNL     1      -0.705  -2.796   2.140  0.00  0.00    -0.275 OA
ATOM     22  C   UNL     1       0.024  -0.735   1.310  0.00  0.00    +0.118 C 
ATOM     23  C   UNL     1       0.353  -2.770  -2.303  0.00  0.00    +0.033 C 
ATOM     24  H   UNL     1      -0.553  -3.753  -0.075  0.00  0.00    +0.155 HD
ENDBRANCH  14  22
ENDBRANCH   1  14
TORSDOF 3
