REMARK  Name = ZINC12660997
REMARK  5 active torsions:
REMARK  status: ('A' for Active; 'I' for Inactive)
REMARK    1  A    between atoms: C_1  and  C_2
REMARK    2  A    between atoms: C_2  and  N_3
REMARK    3  A    between atoms: N_5  and  N_16
REMARK    4  A    between atoms: C_6  and  C_9
REMARK    5  A    between atoms: C_17  and  C_18
REMARK                            x       y       z     vdW  Elec       q    Type
REMARK                         _______ _______ _______ _____ _____    ______ ____
ROOT
ATOM      1  N   UNL     1      -5.188   0.835   0.271  0.00  0.00    -0.260 NA
ATOM      2  C   UNL     1      -4.894  -0.440   0.234  0.00  0.00    +0.190 A 
ATOM      3  N   UNL     1      -3.656  -1.051   0.234  0.00  0.00    -0.208 N 
ATOM      4  C   UNL     1      -3.602  -2.419   0.186  0.00  0.00    +0.082 A 
ATOM      5  C   UNL     1      -4.747  -3.131   0.150  0.00  0.00    +0.077 A 
ATOM      6  S   UNL     1      -5.990  -1.849   0.171  0.00  0.00    -0.056 S 
ENDROOT
BRANCH   4   7
ATOM      7  C   UNL     1      -2.296  -3.111   0.179  0.00  0.00    +0.001 A 
ATOM      8  C   UNL     1      -1.187  -2.509  -0.417  0.00  0.00    +0.011 A 
ATOM      9  C   UNL     1       0.030  -3.159  -0.416  0.00  0.00    +0.016 A 
ATOM     10  C   UNL     1       0.151  -4.409   0.165  0.00  0.00    +0.018 A 
ATOM     11  C   UNL     1      -0.947  -5.014   0.753  0.00  0.00    +0.016 A 
ATOM     12  C   UNL     1      -2.168  -4.373   0.763  0.00  0.00    +0.011 A 
ATOM     13 BR   UNL     1       1.821  -5.295   0.156  0.00  0.00    -0.050 Br
ENDBRANCH   4   7
BRANCH   1  15
ATOM     14  C   UNL     1      -6.885   2.063   1.533  0.00  0.00    +0.029 C 
ATOM     15  C   UNL     1      -6.588   1.265   0.262  0.00  0.00    +0.141 C 
ENDBRANCH   1  15
BRANCH   3  16
ATOM     16  N   UNL     1      -2.481  -0.289   0.278  0.00  0.00    -0.172 NA
ATOM     17  C   UNL     1      -2.505   0.913   0.768  0.00  0.00    +0.141 C 
BRANCH  17  18
ATOM     18  C   UNL     1      -1.302   1.762   0.696  0.00  0.00    -0.002 A 
ATOM     19  C   UNL     1      -0.135   1.276   0.101  0.00  0.00    +0.013 A 
ATOM     20  C   UNL     1       0.987   2.074   0.029  0.00  0.00    +0.050 A 
ATOM     21  C   UNL     1       0.964   3.359   0.552  0.00  0.00    +0.166 A 
ATOM     22  C   UNL     1      -0.195   3.849   1.153  0.00  0.00    +0.167 A 
ATOM     23  C   UNL     1      -1.323   3.054   1.228  0.00  0.00    +0.059 A 
ATOM     24  O   UNL     1       0.041   5.124   1.581  0.00  0.00    -0.453 OA
ATOM     25  C   UNL     1       1.474   5.262   1.604  0.00  0.00    +0.466 C 
ATOM     26  O   UNL     1       1.924   4.328   0.605  0.00  0.00    -0.453 OA
ENDBRANCH  17  18
ENDBRANCH   3  16
TORSDOF 4
