REMARK  Name = ZINC06166480
REMARK  6 active torsions:
REMARK  status: ('A' for Active; 'I' for Inactive)
REMARK    1  A    between atoms: C_1  and  C_2
REMARK    2  A    between atoms: N_13  and  C_16
REMARK    3  A    between atoms: C_16  and  C_18
REMARK    4  A    between atoms: C_16  and  C_19
REMARK    5  A    between atoms: N_21  and  N_22
REMARK    6  A    between atoms: C_23  and  C_24
REMARK                            x       y       z     vdW  Elec       q    Type
REMARK                         _______ _______ _______ _____ _____    ______ ____
ROOT
ATOM      1  C   UNL     1      -0.776  -5.194  -1.513  0.00  0.00    +0.176 C 
ATOM      2  C   UNL     1       0.097  -6.368  -1.067  0.00  0.00    +0.041 C 
ENDROOT
BRANCH   1  14
ATOM      3  C   UNL     1       1.449   3.558   0.225  0.00  0.00    +0.008 C 
ATOM      4  C   UNL     1       1.460   2.049  -0.028  0.00  0.00    -0.009 C 
ATOM      5  C   UNL     1       0.024   1.516  -0.018  0.00  0.00    +0.008 C 
ATOM      6  C   UNL     1       0.037  -0.012  -0.021  0.00  0.00    +0.037 C 
ATOM      7  C   UNL     1       0.907  -0.498  -1.177  0.00  0.00    -0.023 A 
ATOM      8  C   UNL     1       1.803   0.334  -1.759  0.00  0.00    -0.004 A 
ATOM      9  S   UNL     1       2.575  -0.633  -3.032  0.00  0.00    -0.073 S 
ATOM     10  C   UNL     1       1.700  -2.145  -2.781  0.00  0.00    +0.116 A 
ATOM     11  C   UNL     1       0.829  -1.847  -1.709  0.00  0.00    +0.076 A 
ATOM     12  C   UNL     1      -0.036  -2.900  -1.260  0.00  0.00    +0.263 A 
ATOM     13  O   UNL     1      -0.824  -2.746  -0.343  0.00  0.00    -0.267 OA
ATOM     14  N   UNL     1       0.079  -4.077  -1.921  0.00  0.00    -0.287 N 
ATOM     15  C   UNL     1       0.948  -4.269  -2.943  0.00  0.00    +0.204 A 
ATOM     16  N   UNL     1       1.756  -3.329  -3.382  0.00  0.00    -0.230 NA
ATOM     17  C   UNL     1       2.081   1.761  -1.402  0.00  0.00    +0.046 C 
ENDBRANCH   1  14
BRANCH   1  18
ATOM     18  C   UNL     1      -1.636  -5.620  -2.675  0.00  0.00    +0.255 C 
ATOM     19  O   UNL     1      -1.543  -5.046  -3.740  0.00  0.00    -0.272 OA
ATOM     20  N   UNL     1      -2.508  -6.637  -2.531  0.00  0.00    -0.205 N 
ATOM     21  H   UNL     1      -2.582  -7.096  -1.679  0.00  0.00    +0.177 HD
BRANCH  20  22
ATOM     22  N   UNL     1      -3.307  -7.033  -3.611  0.00  0.00    -0.188 NA
ATOM     23  C   UNL     1      -4.147  -8.014  -3.473  0.00  0.00    +0.139 C 
BRANCH  23  24
ATOM     24  C   UNL     1      -4.986  -8.430  -4.607  0.00  0.00    +0.002 A 
ATOM     25  C   UNL     1      -5.808  -9.546  -4.510  0.00  0.00    +0.010 A 
ATOM     26  C   UNL     1      -6.603  -9.933  -5.580  0.00  0.00    +0.001 A 
ATOM     27  C   UNL     1      -6.602  -9.251  -6.759  0.00  0.00    +0.008 A 
ATOM     28  C   UNL     1      -5.792  -8.117  -6.930  0.00  0.00    -0.017 A 
ATOM     29  C   UNL     1      -4.968  -7.681  -5.862  0.00  0.00    -0.009 A 
ATOM     30  C   UNL     1      -4.160  -6.551  -6.028  0.00  0.00    +0.009 A 
ATOM     31  C   UNL     1      -4.173  -5.882  -7.216  0.00  0.00    +0.001 A 
ATOM     32  C   UNL     1      -4.981  -6.307  -8.268  0.00  0.00    +0.001 A 
ATOM     33  C   UNL     1      -5.780  -7.402  -8.140  0.00  0.00    +0.008 A 
ENDBRANCH  23  24
ENDBRANCH  20  22
ENDBRANCH   1  18
TORSDOF 4
