REMARK  Name = ZINC19370794
REMARK  6 active torsions:
REMARK  status: ('A' for Active; 'I' for Inactive)
REMARK    1  A    between atoms: C_1  and  S_2
REMARK    2  A    between atoms: S_2  and  C_3
REMARK    3  A    between atoms: C_9  and  N_19
REMARK    4  A    between atoms: N_22  and  C_25
REMARK    5  A    between atoms: C_25  and  C_26
REMARK    6  A    between atoms: C_25  and  C_32
REMARK                            x       y       z     vdW  Elec       q    Type
REMARK                         _______ _______ _______ _____ _____    ______ ____
ROOT
ATOM      1  N   UNL     1       5.350   3.204   1.629  0.00  0.00    -0.299 NA
ATOM      2  C   UNL     1       6.215   2.239   0.937  0.00  0.00    +0.066 C 
ATOM      3  C   UNL     1       7.661   2.740   0.967  0.00  0.00    -0.062 C 
ATOM      4  N   UNL     1       8.086   2.919   2.363  0.00  0.00    +0.389 N 
ATOM      5  C   UNL     1       7.221   3.885   3.054  0.00  0.00    -0.062 C 
ATOM      6  C   UNL     1       5.775   3.383   3.024  0.00  0.00    +0.066 C 
ATOM      7  H   UNL     1       7.990   1.949   2.874  0.00  0.00    -0.080 HD
ENDROOT
BRANCH   1  14
ATOM      8  C   UNL     1       3.557   4.465  -1.751  0.00  0.00    +0.008 A 
ATOM      9  C   UNL     1       2.809   3.576  -2.514  0.00  0.00    +0.016 A 
ATOM     10  C   UNL     1       2.433   2.380  -1.959  0.00  0.00    +0.016 A 
ATOM     11  C   UNL     1       2.776   2.030  -0.641  0.00  0.00    +0.017 A 
ATOM     12  C   UNL     1       3.496   2.914   0.125  0.00  0.00    -0.015 A 
ATOM     13  C   UNL     1       3.890   4.128  -0.456  0.00  0.00    +0.021 A 
ATOM     14  C   UNL     1       3.941   2.795   1.556  0.00  0.00    +0.092 C 
ATOM     15  C   UNL     1       3.818   1.446   2.186  0.00  0.00    +0.060 C 
ATOM     16  C   UNL     1       2.403   1.069   2.484  0.00  0.00    -0.032 A 
ATOM     17  C   UNL     1       1.929   1.176   3.786  0.00  0.00    +0.005 A 
ATOM     18  C   UNL     1       0.604   0.889   4.057  0.00  0.00    +0.000 A 
ATOM     19  C   UNL     1      -0.250   0.497   3.042  0.00  0.00    +0.001 A 
ATOM     20  C   UNL     1       0.226   0.378   1.749  0.00  0.00    +0.015 A 
ATOM     21  C   UNL     1       1.565   0.656   1.492  0.00  0.00    +0.016 A 
ATOM     22  S   UNL     1       2.223   0.445  -0.124  0.00  0.00    -0.089 S 
BRANCH   8  24
ATOM     23  C   UNL     1       3.409   5.986  -4.119  0.00  0.00    +0.090 C 
ATOM     24  S   UNL     1       4.076   6.006  -2.432  0.00  0.00    -0.129 S 
ENDBRANCH   8  24
ENDBRANCH   1  14
BRANCH   4  25
ATOM     25  C   UNL     1       9.495   3.328   2.436  0.00  0.00    -0.007 C 
BRANCH  25  26
ATOM     26  C   UNL     1       9.932   3.369   3.877  0.00  0.00    -0.057 A 
ATOM     27  C   UNL     1       9.581   2.344   4.735  0.00  0.00    +0.002 A 
ATOM     28  C   UNL     1       9.986   2.379   6.057  0.00  0.00    +0.000 A 
ATOM     29  C   UNL     1      10.734   3.444   6.522  0.00  0.00    +0.000 A 
ATOM     30  C   UNL     1      11.081   4.472   5.665  0.00  0.00    +0.000 A 
ATOM     31  C   UNL     1      10.680   4.434   4.343  0.00  0.00    +0.002 A 
ENDBRANCH  25  26
BRANCH  25  32
ATOM     32  C   UNL     1      10.345   2.338   1.681  0.00  0.00    -0.057 A 
ATOM     33  C   UNL     1      10.154   0.982   1.864  0.00  0.00    +0.002 A 
ATOM     34  C   UNL     1      10.930   0.074   1.168  0.00  0.00    +0.000 A 
ATOM     35  C   UNL     1      11.905   0.523   0.296  0.00  0.00    +0.000 A 
ATOM     36  C   UNL     1      12.100   1.880   0.117  0.00  0.00    +0.000 A 
ATOM     37  C   UNL     1      11.320   2.788   0.810  0.00  0.00    +0.002 A 
ENDBRANCH  25  32
ENDBRANCH   4  25
TORSDOF 5
