REMARK  Name = ZINC09347525
REMARK  8 active torsions:
REMARK  status: ('A' for Active; 'I' for Inactive)
REMARK    1  A    between atoms: C_1  and  C_2
REMARK    2  A    between atoms: C_2  and  O_3
REMARK    3  A    between atoms: O_3  and  C_4
REMARK    4  A    between atoms: C_12  and  N_17
REMARK    5  A    between atoms: C_13  and  C_14
REMARK    6  A    between atoms: C_18  and  C_20
REMARK    7  A    between atoms: C_25  and  O_26
REMARK    8  A    between atoms: O_26  and  C_27
REMARK                            x       y       z     vdW  Elec       q    Type
REMARK                         _______ _______ _______ _____ _____    ______ ____
ROOT
ATOM      1  C   UNL     1       5.360  13.731  -1.517  0.00  0.00    +0.403 C 
ATOM      2  O   UNL     1       5.384  14.925  -1.740  0.00  0.00    -0.226 OA
ATOM      3  N   UNL     1       4.469  13.227  -0.639  0.00  0.00    -0.262 N 
ATOM      4  C   UNL     1       3.514  14.098   0.063  0.00  0.00    +0.116 C 
ATOM      5  C   UNL     1       2.088  13.742  -0.361  0.00  0.00    +0.056 C 
ATOM      6  C   UNL     1       1.906  12.232  -0.290  0.00  0.00    -0.020 A 
ATOM      7  C   UNL     1       2.967  11.396  -0.291  0.00  0.00    +0.013 A 
ATOM      8  S   UNL     1       2.269   9.772  -0.204  0.00  0.00    -0.076 S 
ATOM      9  C   UNL     1       0.589  10.192  -0.172  0.00  0.00    +0.085 A 
ATOM     10  C   UNL     1       0.609  11.579  -0.223  0.00  0.00    +0.068 A 
ATOM     11  C   UNL     1       4.415  11.781  -0.348  0.00  0.00    +0.153 C 
ENDROOT
BRANCH  10  12
ATOM     12  C   UNL     1      -0.633  12.358  -0.209  0.00  0.00    +0.244 C 
ATOM     13  O   UNL     1      -1.113  12.719   0.850  0.00  0.00    -0.270 OA
ATOM     14  N   UNL     1      -1.243  12.674  -1.369  0.00  0.00    -0.325 N 
ATOM     15  H   UNL     1      -0.861  12.387  -2.212  0.00  0.00    +0.145 HD
ATOM     16  H   UNL     1      -2.065  13.190  -1.359  0.00  0.00    +0.145 HD
ENDBRANCH  10  12
BRANCH   9  17
ATOM     17  N   UNL     1      -0.509   9.349  -0.106  0.00  0.00    -0.275 N 
ATOM     18  C   UNL     1      -0.331   8.014  -0.064  0.00  0.00    +0.252 C 
ATOM     19  O   UNL     1       0.793   7.549  -0.084  0.00  0.00    -0.270 OA
ATOM     20  H   UNL     1      -1.405   9.720  -0.090  0.00  0.00    +0.156 HD
BRANCH  18  21
ATOM     21  C   UNL     1      -1.499   7.116   0.006  0.00  0.00    +0.079 A 
ATOM     22  C   UNL     1      -2.792   7.646   0.029  0.00  0.00    +0.017 A 
ATOM     23  C   UNL     1      -3.879   6.801   0.095  0.00  0.00    +0.001 A 
ATOM     24  C   UNL     1      -3.696   5.429   0.138  0.00  0.00    +0.004 A 
ATOM     25  C   UNL     1      -2.425   4.892   0.111  0.00  0.00    +0.047 A 
ATOM     26  C   UNL     1      -1.319   5.727   0.051  0.00  0.00    +0.141 A 
BRANCH  26  27
ATOM     27  O   UNL     1      -0.069   5.201   0.029  0.00  0.00    -0.455 OA
BRANCH  27  28
ATOM     28  C   UNL     1       0.580   5.048   1.214  0.00  0.00    +0.128 A 
ATOM     29  C   UNL     1       1.816   4.419   1.254  0.00  0.00    +0.046 A 
ATOM     30  C   UNL     1       2.473   4.265   2.459  0.00  0.00    +0.004 A 
ATOM     31  C   UNL     1       1.899   4.737   3.625  0.00  0.00    +0.000 A 
ATOM     32  C   UNL     1       0.665   5.359   3.589  0.00  0.00    +0.004 A 
ATOM     33  C   UNL     1       0.006   5.521   2.386  0.00  0.00    +0.046 A 
ENDBRANCH  27  28
ENDBRANCH  26  27
ENDBRANCH  18  21
ENDBRANCH   9  17
BRANCH   1  34
ATOM     34  O   UNL     1       6.222  12.911  -2.146  0.00  0.00    -0.451 OA
BRANCH  34  36
ATOM     35  C   UNL     1       8.046  12.441  -3.690  0.00  0.00    +0.048 C 
ATOM     36  C   UNL     1       7.153  13.522  -3.078  0.00  0.00    +0.230 C 
ENDBRANCH  34  36
ENDBRANCH   1  34
TORSDOF 7
