REMARK  Name = ZINC43741661
REMARK  10 active torsions:
REMARK  status: ('A' for Active; 'I' for Inactive)
REMARK    1  A    between atoms: C_1  and  C_2
REMARK    2  A    between atoms: C_2  and  C_4
REMARK    3  A    between atoms: C_10  and  C_40
REMARK    4  A    between atoms: N_22  and  O_23
REMARK    5  A    between atoms: O_23  and  C_24
REMARK    6  A    between atoms: C_24  and  C_25
REMARK    7  A    between atoms: N_27  and  C_28
REMARK    8  A    between atoms: C_28  and  C_29
REMARK    9  A    between atoms: C_29  and  C_30
REMARK   10  A    between atoms: C_38  and  C_39
REMARK                            x       y       z     vdW  Elec       q    Type
REMARK                         _______ _______ _______ _____ _____    ______ ____
ROOT
ATOM      1  C   UNL     1      -1.293  -0.775   0.010  0.00  0.00    +0.061 C 
ATOM      2  C   UNL     1      -1.798  -0.992  -1.438  0.00  0.00    +0.012 C 
ATOM      3  C   UNL     1      -1.765  -2.524  -1.689  0.00  0.00    +0.005 C 
ATOM      4  C   UNL     1      -0.717  -3.014  -0.684  0.00  0.00    -0.001 C 
ATOM      5  C   UNL     1      -1.071  -2.174   0.576  0.00  0.00    -0.019 C 
ATOM      6  C   UNL     1       0.073  -2.332   1.559  0.00  0.00    +0.008 C 
ATOM      7  C   UNL     1       0.110  -3.810   1.982  0.00  0.00    +0.005 C 
ATOM      8  C   UNL     1       0.271  -4.734   0.779  0.00  0.00    +0.002 C 
ATOM      9  C   UNL     1      -0.801  -4.480  -0.302  0.00  0.00    -0.003 C 
ATOM     10  C   UNL     1      -0.549  -5.357  -1.529  0.00  0.00    +0.008 C 
ATOM     11  C   UNL     1      -0.660  -6.837  -1.147  0.00  0.00    +0.031 C 
ATOM     12  C   UNL     1       0.304  -7.090  -0.000  0.00  0.00    -0.062 C 
ATOM     13  C   UNL     1       1.193  -8.067  -0.116  0.00  0.00    +0.026 C 
ATOM     14  C   UNL     1       2.159  -8.287   0.978  0.00  0.00    +0.080 C 
ATOM     15  N   UNL     1       2.712  -9.441   1.184  0.00  0.00    -0.089 NA
ATOM     16  C   UNL     1       2.467  -7.081   1.846  0.00  0.00    +0.059 C 
ATOM     17  C   UNL     1       1.135  -6.513   2.334  0.00  0.00    +0.017 C 
ATOM     18  C   UNL     1       0.170  -6.190   1.234  0.00  0.00    -0.007 C 
ATOM     19  C   UNL     1      -1.241  -6.370   1.798  0.00  0.00    +0.016 C 
ATOM     20  C   UNL     1      -2.369  -2.694   1.198  0.00  0.00    +0.012 C 
ENDROOT
BRANCH   1  22
ATOM     21  C   UNL     1       0.386   0.837   1.192  0.00  0.00    +0.086 C 
ATOM     22  C   UNL     1       0.002  -0.004   0.002  0.00  0.00    +0.134 C 
ATOM     23  O   UNL     1       0.732  -0.060  -0.958  0.00  0.00    -0.297 OA
ENDBRANCH   1  22
BRANCH  15  24
ATOM     24  O   UNL     1       2.394 -10.538   0.347  0.00  0.00    -0.384 OA
BRANCH  24  25
ATOM     25  C   UNL     1       3.075 -11.746   0.689  0.00  0.00    +0.358 C 
BRANCH  25  26
ATOM     26  C   UNL     1       2.664 -12.841  -0.261  0.00  0.00    +0.253 C 
ATOM     27  O   UNL     1       1.865 -12.609  -1.144  0.00  0.00    -0.272 OA
ATOM     28  N   UNL     1       3.183 -14.078  -0.130  0.00  0.00    -0.312 N 
ATOM     29  H   UNL     1       3.821 -14.264   0.576  0.00  0.00    +0.149 HD
BRANCH  28  30
ATOM     30  C   UNL     1       2.783 -15.142  -1.054  0.00  0.00    +0.110 C 
BRANCH  30  31
ATOM     31  C   UNL     1       3.512 -16.436  -0.688  0.00  0.00    +0.073 C 
BRANCH  31  32
ATOM     32  C   UNL     1       3.101 -17.531  -1.638  0.00  0.00    +0.035 A 
ATOM     33  C   UNL     1       2.010 -18.312  -1.521  0.00  0.00    +0.105 A 
ATOM     34  N   UNL     1       2.017 -19.166  -2.591  0.00  0.00    -0.352 N 
ATOM     35  H   UNL     1       1.359 -19.851  -2.786  0.00  0.00    +0.166 HD
ATOM     36  C   UNL     1       3.113 -18.876  -3.326  0.00  0.00    +0.171 A 
ATOM     37  N   UNL     1       3.753 -17.894  -2.752  0.00  0.00    -0.350 N 
ATOM     38  H   UNL     1       4.573 -17.491  -3.080  0.00  0.00    +0.166 HD
ENDBRANCH  31  32
ENDBRANCH  30  31
ENDBRANCH  28  30
ENDBRANCH  25  26
ENDBRANCH  24  25
ENDBRANCH  15  24
TORSDOF 7
