REMARK  Name = ZINC18192916
REMARK  7 active torsions:
REMARK  status: ('A' for Active; 'I' for Inactive)
REMARK    1  A    between atoms: C_1  and  C_2
REMARK    2  A    between atoms: C_5  and  C_8
REMARK    3  A    between atoms: N_16  and  C_19
REMARK    4  A    between atoms: C_20  and  C_27
REMARK    5  A    between atoms: C_22  and  C_26
REMARK    6  A    between atoms: C_24  and  C_25
REMARK    7  A    between atoms: N_29  and  C_30
REMARK                            x       y       z     vdW  Elec       q    Type
REMARK                         _______ _______ _______ _____ _____    ______ ____
ROOT
ATOM      1  C   UNL     1       0.059  -4.275  -0.021  0.00  0.00    +0.157 C 
ATOM      2  C   UNL     1       1.462  -4.795   0.268  0.00  0.00    +0.145 C 
ATOM      3  C   UNL     1       1.035  -6.129   0.992  0.00  0.00    +0.249 C 
ATOM      4  C   UNL     1       2.258  -6.903   0.918  0.00  0.00    +0.259 C 
ATOM      5  O   UNL     1       2.671  -7.704   1.729  0.00  0.00    -0.272 OA
ATOM      6  N   UNL     1       2.846  -6.538  -0.265  0.00  0.00    -0.207 N 
ATOM      7  C   UNL     1       2.288  -5.407  -0.820  0.00  0.00    +0.235 C 
ATOM      8  O   UNL     1       2.426  -4.992  -1.950  0.00  0.00    -0.274 OA
ATOM      9  O   UNL     1       0.102  -5.699   1.894  0.00  0.00    -0.257 OA
ATOM     10  N   UNL     1      -0.757  -4.817   1.103  0.00  0.00    -0.244 N 
ENDROOT
BRANCH   6  11
ATOM     11  C   UNL     1       3.915  -7.234  -0.847  0.00  0.00    +0.050 A 
ATOM     12  C   UNL     1       5.223  -6.891  -0.530  0.00  0.00    -0.028 A 
ATOM     13  C   UNL     1       6.274  -7.578  -1.105  0.00  0.00    +0.008 A 
ATOM     14  C   UNL     1       6.025  -8.607  -1.995  0.00  0.00    -0.050 A 
ATOM     15  C   UNL     1       4.724  -8.951  -2.312  0.00  0.00    +0.008 A 
ATOM     16  C   UNL     1       3.669  -8.271  -1.736  0.00  0.00    -0.028 A 
ATOM     17  C   UNL     1       2.251  -8.651  -2.077  0.00  0.00    +0.046 C 
ATOM     18  C   UNL     1       7.175  -9.354  -2.620  0.00  0.00    +0.044 C 
ATOM     19  C   UNL     1       5.495  -5.770   0.439  0.00  0.00    +0.046 C 
ENDBRANCH   6  11
BRANCH   1  24
ATOM     20  C   UNL     1      -0.018   1.503   0.010  0.00  0.00    +0.044 C 
ATOM     21  C   UNL     1       0.002  -0.004   0.002  0.00  0.00    -0.050 A 
ATOM     22  C   UNL     1       0.006  -0.689  -1.199  0.00  0.00    +0.004 A 
ATOM     23  C   UNL     1       0.025  -2.071  -1.206  0.00  0.00    +0.006 A 
ATOM     24  C   UNL     1       0.040  -2.768  -0.013  0.00  0.00    -0.022 A 
ATOM     25  C   UNL     1       0.037  -2.084   1.188  0.00  0.00    +0.006 A 
ATOM     26  C   UNL     1       0.023  -0.702   1.195  0.00  0.00    +0.004 A 
ENDBRANCH   1  24
BRANCH  10  27
ATOM     27  C   UNL     1      -2.098  -4.524   1.360  0.00  0.00    +0.065 A 
ATOM     28  C   UNL     1      -2.794  -3.660   0.524  0.00  0.00    +0.028 A 
ATOM     29  C   UNL     1      -4.120  -3.373   0.780  0.00  0.00    +0.002 A 
ATOM     30  C   UNL     1      -4.756  -3.944   1.867  0.00  0.00    +0.000 A 
ATOM     31  C   UNL     1      -4.066  -4.805   2.701  0.00  0.00    +0.002 A 
ATOM     32  C   UNL     1      -2.741  -5.101   2.448  0.00  0.00    +0.028 A 
ENDBRANCH  10  27
TORSDOF 3
