REMARK  Name = ZINC36159674
REMARK  12 active torsions:
REMARK  status: ('A' for Active; 'I' for Inactive)
REMARK    1  A    between atoms: C_1  and  C_2
REMARK    2  A    between atoms: C_7  and  O_8
REMARK    3  A    between atoms: O_8  and  C_9
REMARK    4  A    between atoms: C_9  and  C_10
REMARK    5  A    between atoms: C_10  and  C_12
REMARK    6  A    between atoms: C_10  and  O_32
REMARK    7  A    between atoms: C_12  and  N_13
REMARK    8  A    between atoms: N_13  and  C_14
REMARK    9  A    between atoms: N_13  and  C_29
REMARK   10  A    between atoms: C_14  and  C_15
REMARK   11  A    between atoms: C_29  and  C_30
REMARK   12  A    between atoms: C_29  and  C_31
REMARK                            x       y       z     vdW  Elec       q    Type
REMARK                         _______ _______ _______ _____ _____    ______ ____
ROOT
ATOM      1  N   UNL     1      -0.091   0.441   7.316  0.00  0.00    +0.388 N 
ATOM      2  H   UNL     1       0.249   1.282   6.875  0.00  0.00    -0.081 HD
ENDROOT
BRANCH   1   3
ATOM      3  C   UNL     1      -1.192   0.778   8.229  0.00  0.00    -0.074 C 
ATOM      4  C   UNL     1      -1.706  -0.497   8.900  0.00  0.00    -0.014 C 
ATOM      5  C   UNL     1      -0.688   1.749   9.299  0.00  0.00    -0.014 C 
ENDBRANCH   1   3
BRANCH   1   6
ATOM      6  C   UNL     1      -0.576  -0.489   6.288  0.00  0.00    -0.043 C 
BRANCH   6   7
ATOM      7  C   UNL     1      -1.592   0.223   5.393  0.00  0.00    +0.135 C 
BRANCH   7   8
ATOM      8  O   UNL     1      -2.781   0.489   6.141  0.00  0.00    -0.390 OA
ATOM      9  H   UNL     1      -3.173  -0.295   6.548  0.00  0.00    +0.210 HD
ENDBRANCH   7   8
BRANCH   7  10
ATOM     10  C   UNL     1      -1.932  -0.668   4.197  0.00  0.00    +0.258 C 
BRANCH  10  11
ATOM     11  O   UNL     1      -2.790   0.043   3.302  0.00  0.00    -0.489 OA
BRANCH  11  18
ATOM     12  C   UNL     1      -4.488   1.429   1.520  0.00  0.00    +0.047 C 
ATOM     13  C   UNL     1      -4.022   0.019   1.267  0.00  0.00    -0.009 A 
ATOM     14  C   UNL     1      -4.420  -0.646   0.123  0.00  0.00    +0.007 A 
ATOM     15  C   UNL     1      -3.994  -1.940  -0.109  0.00  0.00    +0.000 A 
ATOM     16  C   UNL     1      -3.167  -2.573   0.801  0.00  0.00    +0.004 A 
ATOM     17  C   UNL     1      -2.766  -1.912   1.946  0.00  0.00    +0.046 A 
ATOM     18  C   UNL     1      -3.188  -0.611   2.179  0.00  0.00    +0.124 A 
ENDBRANCH  11  18
ENDBRANCH  10  11
ENDBRANCH   7  10
ENDBRANCH   6   7
ENDBRANCH   1   6
BRANCH   1  19
ATOM     19  C   UNL     1       0.998  -0.190   8.074  0.00  0.00    -0.003 C 
BRANCH  19  20
ATOM     20  C   UNL     1       1.840   0.876   8.725  0.00  0.00    +0.094 A 
ATOM     21  N   UNL     1       2.815   0.514   9.598  0.00  0.00    -0.312 N 
ATOM     22  H   UNL     1       2.956  -0.426   9.790  0.00  0.00    +0.170 HD
ATOM     23  C   UNL     1       3.590   1.434  10.203  0.00  0.00    +0.260 A 
ATOM     24  O   UNL     1       4.462   1.095  10.985  0.00  0.00    -0.267 OA
ATOM     25  C   UNL     1       3.372   2.820   9.910  0.00  0.00    +0.075 A 
ATOM     26  C   UNL     1       4.091   3.984  10.448  0.00  0.00    -0.023 A 
ATOM     27  C   UNL     1       3.696   5.194  10.016  0.00  0.00    -0.004 A 
ATOM     28  S   UNL     1       2.365   4.866   8.883  0.00  0.00    -0.073 S 
ATOM     29  C   UNL     1       2.345   3.096   8.998  0.00  0.00    +0.116 A 
ATOM     30  N   UNL     1       1.622   2.131   8.435  0.00  0.00    -0.229 NA
ATOM     31  C   UNL     1       4.497   6.308  10.635  0.00  0.00    +0.043 C 
ATOM     32  C   UNL     1       5.182   5.659  11.858  0.00  0.00    +0.010 C 
ATOM     33  C   UNL     1       5.248   4.179  11.431  0.00  0.00    +0.037 C 
ENDBRANCH  19  20
ENDBRANCH   1  19
TORSDOF 9
