REMARK  Name = ZINC24477848
REMARK  14 active torsions:
REMARK  status: ('A' for Active; 'I' for Inactive)
REMARK    1  A    between atoms: C_1  and  C_2
REMARK    2  A    between atoms: C_7  and  S_8
REMARK    3  A    between atoms: S_8  and  C_9
REMARK    4  A    between atoms: C_9  and  C_10
REMARK    5  A    between atoms: N_12  and  C_13
REMARK    6  A    between atoms: N_12  and  C_17
REMARK    7  A    between atoms: C_13  and  C_14
REMARK    8  A    between atoms: C_14  and  O_15
REMARK    9  A    between atoms: O_15  and  C_16
REMARK   10  A    between atoms: C_18  and  N_30
REMARK   11  A    between atoms: N_19  and  C_26
REMARK   12  A    between atoms: C_26  and  C_27
REMARK   13  A    between atoms: C_27  and  C_28
REMARK   14  A    between atoms: C_27  and  C_29
REMARK                            x       y       z     vdW  Elec       q    Type
REMARK                         _______ _______ _______ _____ _____    ______ ____
ROOT
ATOM      1  C   UNL     1       1.913  -0.770   1.330  0.00  0.00    +0.230 C 
ATOM      2  O   UNL     1       2.372  -1.255   2.343  0.00  0.00    -0.274 OA
ATOM      3  N   UNL     1       0.599  -0.472   1.260  0.00  0.00    -0.261 N 
ENDROOT
BRANCH   3   4
ATOM      4  C   UNL     1      -0.223  -0.634   2.396  0.00  0.00    +0.140 A 
ATOM      5  C   UNL     1      -1.236  -1.571   2.401  0.00  0.00    +0.127 A 
ATOM      6  N   UNL     1      -2.020  -1.706   3.523  0.00  0.00    -0.280 N 
ATOM      7  C   UNL     1      -1.801  -0.934   4.604  0.00  0.00    +0.331 A 
ATOM      8  O   UNL     1      -2.504  -1.069   5.586  0.00  0.00    -0.246 OA
ATOM      9  N   UNL     1      -0.818  -0.017   4.617  0.00  0.00    -0.273 N 
ATOM     10  H   UNL     1      -0.659   0.607   5.509  0.00  0.00    +0.173 HD
ATOM     11  C   UNL     1      -0.018   0.152   3.545  0.00  0.00    +0.277 A 
ATOM     12  O   UNL     1       0.873   0.984   3.570  0.00  0.00    -0.266 OA
BRANCH   5  13
ATOM     13  N   UNL     1      -1.461  -2.358   1.297  0.00  0.00    -0.343 N 
ATOM     14  H   UNL     1      -2.271  -3.103   1.308  0.00  0.00    +0.144 HD
ATOM     15  H   UNL     1      -0.830  -2.245   0.403  0.00  0.00    +0.144 HD
ENDBRANCH   5  13
BRANCH   6  16
ATOM     16  C   UNL     1      -3.100  -2.696   3.542  0.00  0.00    +0.131 C 
BRANCH  16  17
ATOM     17  C   UNL     1      -2.562  -4.027   4.069  0.00  0.00    +0.003 C 
ATOM     18  C   UNL     1      -3.714  -5.025   4.206  0.00  0.00    +0.009 C 
ATOM     19  C   UNL     1      -1.523  -4.580   3.090  0.00  0.00    +0.009 C 
ENDBRANCH  16  17
ENDBRANCH   6  16
ENDBRANCH   3   4
BRANCH   1  20
ATOM     20  C   UNL     1       2.810  -0.500   0.150  0.00  0.00    +0.170 C 
BRANCH  20  21
ATOM     21  S   UNL     1       4.506  -1.005   0.552  0.00  0.00    -0.116 S 
BRANCH  21  28
ATOM     22  C   UNL     1       7.486  -1.483   0.233  0.00  0.00    +0.045 C 
ATOM     23  C   UNL     1       6.784  -0.886  -0.960  0.00  0.00    -0.036 A 
ATOM     24  C   UNL     1       7.496  -0.596  -2.107  0.00  0.00    +0.019 A 
ATOM     25  C   UNL     1       6.854  -0.042  -3.200  0.00  0.00    +0.018 A 
ATOM     26  C   UNL     1       5.496   0.218  -3.150  0.00  0.00    +0.016 A 
ATOM     27  C   UNL     1       4.777  -0.074  -2.008  0.00  0.00    +0.016 A 
ATOM     28  C   UNL     1       5.419  -0.631  -0.908  0.00  0.00    +0.011 A 
ATOM     29 BR   UNL     1       7.834   0.360  -4.766  0.00  0.00    -0.050 Br
ENDBRANCH  21  28
ENDBRANCH  20  21
ENDBRANCH   1  20
BRANCH   3  30
ATOM     30  C   UNL     1       0.025   0.020   0.005  0.00  0.00    +0.142 C 
BRANCH  30  31
ATOM     31  C   UNL     1      -0.031   1.548   0.034  0.00  0.00    +0.178 C 
BRANCH  31  32
ATOM     32  O   UNL     1       1.298   2.072   0.073  0.00  0.00    -0.381 OA
ATOM     33  C   UNL     1       1.359   3.500   0.103  0.00  0.00    +0.194 C 
ENDBRANCH  31  32
ENDBRANCH  30  31
ENDBRANCH   3  30
TORSDOF 10
