REMARK  Name = ZINC63089124
REMARK  12 active torsions:
REMARK  status: ('A' for Active; 'I' for Inactive)
REMARK    1  A    between atoms: C_1  and  C_2
REMARK    2  A    between atoms: C_2  and  C_19
REMARK    3  A    between atoms: C_5  and  C_10
REMARK    4  A    between atoms: C_7  and  C_8
REMARK    5  A    between atoms: C_7  and  C_9
REMARK    6  A    between atoms: N_21  and  N_22
REMARK    7  A    between atoms: C_23  and  C_24
REMARK    8  A    between atoms: C_27  and  O_35
REMARK    9  A    between atoms: C_28  and  O_33
REMARK   10  A    between atoms: C_29  and  C_30
REMARK   11  A    between atoms: O_33  and  C_34
REMARK   12  A    between atoms: O_35  and  C_36
REMARK                            x       y       z     vdW  Elec       q    Type
REMARK                         _______ _______ _______ _____ _____    ______ ____
ROOT
ATOM      1  C   UNL     1      -0.330   2.281  -0.447  0.00  0.00    +0.021 C 
ATOM      2  C   UNL     1       0.477   0.997  -0.651  0.00  0.00    +0.051 C 
ATOM      3  C   UNL     1      -0.469  -0.221  -0.794  0.00  0.00    +0.017 C 
ATOM      4  C   UNL     1      -0.826  -0.551   0.677  0.00  0.00    +0.009 C 
ATOM      5  C   UNL     1       0.487  -0.304   1.449  0.00  0.00    +0.038 C 
ATOM      6  C   UNL     1       1.315   0.680   0.604  0.00  0.00    -0.015 C 
ATOM      7  C   UNL     1       1.575   1.962   1.398  0.00  0.00    +0.012 C 
ATOM      8  C   UNL     1       2.642   0.035   0.199  0.00  0.00    +0.012 C 
ENDROOT
BRANCH   5   9
ATOM      9  C   UNL     1       0.182   0.306   2.818  0.00  0.00    +0.178 C 
ATOM     10  N   UNL     1       1.391   0.302   3.651  0.00  0.00    -0.363 N 
ATOM     11  C   UNL     1       1.139  -0.421   4.704  0.00  0.00    +0.060 A 
ATOM     12  C   UNL     1       1.940  -0.791   5.878  0.00  0.00    +0.027 A 
ATOM     13  C   UNL     1       1.399  -1.574   6.833  0.00  0.00    +0.002 A 
ATOM     14  C   UNL     1       0.083  -2.062   6.758  0.00  0.00    +0.002 A 
ATOM     15  C   UNL     1      -0.737  -1.783   5.724  0.00  0.00    +0.027 A 
ATOM     16  C   UNL     1      -0.255  -0.937   4.624  0.00  0.00    +0.060 A 
ATOM     17  N   UNL     1      -0.810  -0.513   3.526  0.00  0.00    -0.363 N 
ATOM     18  H   UNL     1       2.226   0.755   3.454  0.00  0.00    +0.162 HD
ATOM     19  H   UNL     1      -1.714  -0.702   3.229  0.00  0.00    +0.162 HD
ENDBRANCH   5   9
BRANCH   2  20
ATOM     20  C   UNL     1       1.366   1.122  -1.862  0.00  0.00    +0.239 C 
ATOM     21  O   UNL     1       1.311   0.291  -2.743  0.00  0.00    -0.273 OA
ATOM     22  N   UNL     1       2.223   2.157  -1.964  0.00  0.00    -0.207 N 
ATOM     23  H   UNL     1       2.267   2.822  -1.259  0.00  0.00    +0.177 HD
BRANCH  22  24
ATOM     24  N   UNL     1       3.050   2.273  -3.089  0.00  0.00    -0.188 NA
ATOM     25  C   UNL     1       3.875   3.272  -3.188  0.00  0.00    +0.139 C 
BRANCH  25  26
ATOM     26  C   UNL     1       4.744   3.393  -4.370  0.00  0.00    +0.012 A 
ATOM     27  C   UNL     1       4.585   2.525  -5.448  0.00  0.00    +0.014 A 
ATOM     28  C   UNL     1       5.400   2.639  -6.557  0.00  0.00    +0.050 A 
ATOM     29  C   UNL     1       6.383   3.615  -6.613  0.00  0.00    +0.162 A 
ATOM     30  C   UNL     1       6.562   4.494  -5.549  0.00  0.00    +0.176 A 
ATOM     31  C   UNL     1       5.739   4.396  -4.419  0.00  0.00    +0.117 A 
BRANCH  31  32
ATOM     32  C   UNL     1       5.914   5.322  -3.293  0.00  0.00    +0.391 C 
ATOM     33  O   UNL     1       5.270   5.163  -2.264  0.00  0.00    -0.240 OA
ATOM     34  O   UNL     1       6.704   6.252  -3.383  0.00  0.00    -0.240 OA
ENDBRANCH  31  32
BRANCH  30  35
ATOM     35  O   UNL     1       7.525   5.447  -5.608  0.00  0.00    -0.491 OA
ATOM     36  C   UNL     1       7.155   6.711  -6.164  0.00  0.00    +0.277 C 
ENDBRANCH  30  35
BRANCH  29  37
ATOM     37  O   UNL     1       7.178   3.713  -7.712  0.00  0.00    -0.491 OA
ATOM     38  C   UNL     1       6.942   2.779  -8.768  0.00  0.00    +0.277 C 
ENDBRANCH  29  37
ENDBRANCH  25  26
ENDBRANCH  22  24
ENDBRANCH   2  20
TORSDOF 7
