REMARK  Name = ZINC01322862
REMARK  14 active torsions:
REMARK  status: ('A' for Active; 'I' for Inactive)
REMARK    1  A    between atoms: C_1  and  C_2
REMARK    2  A    between atoms: C_2  and  C_3
REMARK    3  A    between atoms: C_2  and  C_4
REMARK    4  A    between atoms: C_4  and  O_5
REMARK    5  A    between atoms: O_5  and  C_6
REMARK    6  A    between atoms: C_6  and  C_8
REMARK    7  A    between atoms: C_11  and  O_14
REMARK    8  A    between atoms: O_14  and  C_15
REMARK    9  A    between atoms: C_15  and  C_16
REMARK   10  A    between atoms: C_18  and  C_24
REMARK   11  A    between atoms: C_21  and  O_22
REMARK   12  A    between atoms: O_22  and  C_23
REMARK   13  A    between atoms: C_30  and  O_36
REMARK   14  A    between atoms: O_36  and  C_37
REMARK                            x       y       z     vdW  Elec       q    Type
REMARK                         _______ _______ _______ _____ _____    ______ ____
ROOT
ATOM      1  C   UNL     1      -0.747   1.594   3.561  0.00  0.00    +0.031 A 
ATOM      2  C   UNL     1      -0.203   1.222   4.776  0.00  0.00    +0.013 A 
ATOM      3  C   UNL     1       0.936   0.440   4.814  0.00  0.00    -0.055 A 
ATOM      4  C   UNL     1       1.534   0.028   3.637  0.00  0.00    +0.006 A 
ATOM      5  C   UNL     1       0.991   0.392   2.421  0.00  0.00    +0.046 A 
ATOM      6  C   UNL     1      -0.149   1.182   2.380  0.00  0.00    +0.126 A 
ENDROOT
BRANCH   3   7
ATOM      7  C   UNL     1       1.527   0.036   6.140  0.00  0.00    +0.007 C 
ATOM      8  C   UNL     1       2.704   0.925   6.463  0.00  0.00    +0.010 A 
ATOM      9  C   UNL     1       3.870   0.452   6.959  0.00  0.00    -0.022 A 
ATOM     10  C   UNL     1       4.750   1.586   7.138  0.00  0.00    +0.006 A 
ATOM     11  C   UNL     1       6.062   1.705   7.609  0.00  0.00    +0.056 A 
ATOM     12  C   UNL     1       6.599   2.983   7.644  0.00  0.00    +0.121 A 
ATOM     13  C   UNL     1       5.875   4.094   7.232  0.00  0.00    +0.047 A 
ATOM     14  C   UNL     1       4.577   3.995   6.763  0.00  0.00    +0.030 A 
ATOM     15  C   UNL     1       4.013   2.723   6.717  0.00  0.00    +0.047 A 
ATOM     16  N   UNL     1       2.781   2.283   6.316  0.00  0.00    -0.359 N 
ATOM     17  H   UNL     1       2.069   2.849   5.978  0.00  0.00    +0.166 HD
ATOM     18  C   UNL     1       4.121  -1.007   7.246  0.00  0.00    +0.018 C 
ATOM     19  C   UNL     1       2.766  -1.726   7.265  0.00  0.00    -0.076 C 
ATOM     20  N   UNL     1       1.992  -1.366   6.058  0.00  0.00    +0.387 N 
ATOM     21  H   UNL     1       2.588  -1.476   5.230  0.00  0.00    -0.084 HD
ATOM     22  H   UNL     1       1.179  -1.988   5.981  0.00  0.00    -0.084 HD
BRANCH  12  23
ATOM     23  O   UNL     1       7.872   3.153   8.095  0.00  0.00    -0.495 OA
ATOM     24  C   UNL     1       8.381   4.488   8.111  0.00  0.00    +0.277 C 
ENDBRANCH  12  23
ENDBRANCH   3   7
BRANCH   6  25
ATOM     25  O   UNL     1      -0.682   1.547   1.184  0.00  0.00    -0.495 OA
ATOM     26  C   UNL     1      -0.013   1.086   0.008  0.00  0.00    +0.277 C 
ENDBRANCH   6  25
BRANCH   1  27
ATOM     27  C   UNL     1      -1.989   2.447   3.520  0.00  0.00    +0.268 C 
BRANCH  27  28
ATOM     28  O   UNL     1      -2.411   2.738   4.854  0.00  0.00    -0.487 OA
BRANCH  28  32
ATOM     29  C   UNL     1      -5.795   5.062   5.284  0.00  0.00    +0.059 A 
ATOM     30  C   UNL     1      -5.116   4.597   6.414  0.00  0.00    +0.018 A 
ATOM     31  C   UNL     1      -3.987   3.823   6.266  0.00  0.00    +0.046 A 
ATOM     32  C   UNL     1      -3.523   3.502   4.995  0.00  0.00    +0.121 A 
ATOM     33  C   UNL     1      -4.193   3.967   3.869  0.00  0.00    +0.046 A 
ATOM     34  C   UNL     1      -5.325   4.737   4.008  0.00  0.00    +0.018 A 
BRANCH  29  35
ATOM     35  C   UNL     1      -7.004   5.893   5.437  0.00  0.00    +0.339 C 
ATOM     36  O   UNL     1      -7.411   6.174   6.547  0.00  0.00    -0.245 OA
BRANCH  35  37
ATOM     37  O   UNL     1      -7.657   6.339   4.347  0.00  0.00    -0.461 OA
BRANCH  37  38
ATOM     38  C   UNL     1      -8.839   7.152   4.573  0.00  0.00    +0.235 C 
BRANCH  38  40
ATOM     39  C   UNL     1      -9.941   6.318   2.491  0.00  0.00    +0.010 C 
ATOM     40  C   UNL     1      -9.441   7.563   3.228  0.00  0.00    +0.020 C 
ATOM     41  C   UNL     1     -10.612   8.520   3.464  0.00  0.00    +0.010 C 
ENDBRANCH  38  40
ENDBRANCH  37  38
ENDBRANCH  35  37
ENDBRANCH  29  35
ENDBRANCH  28  32
ENDBRANCH  27  28
ENDBRANCH   1  27
TORSDOF 10
