REMARK  Name = ZINC59720333
REMARK  16 active torsions:
REMARK  status: ('A' for Active; 'I' for Inactive)
REMARK    1  A    between atoms: C_1  and  C_2
REMARK    2  A    between atoms: C_2  and  N_3
REMARK    3  A    between atoms: N_3  and  C_4
REMARK    4  A    between atoms: N_3  and  C_6
REMARK    5  A    between atoms: C_4  and  C_5
REMARK    6  A    between atoms: C_9  and  N_12
REMARK    7  A    between atoms: C_13  and  C_28
REMARK    8  A    between atoms: N_15  and  C_21
REMARK    9  A    between atoms: C_17  and  C_18
REMARK   10  A    between atoms: C_18  and  C_20
REMARK   11  A    between atoms: C_24  and  C_27
REMARK   12  A    between atoms: C_31  and  O_36
REMARK   13  A    between atoms: C_32  and  O_34
REMARK   14  A    between atoms: O_34  and  C_35
REMARK   15  A    between atoms: O_36  and  C_37
REMARK   16  A    between atoms: C_37  and  C_38
REMARK                            x       y       z     vdW  Elec       q    Type
REMARK                         _______ _______ _______ _____ _____    ______ ____
ROOT
ATOM      1  N   UNL     1      -0.985  -6.116   0.221  0.00  0.00    -0.256 N 
ATOM      2  C   UNL     1      -1.608  -7.173   1.035  0.00  0.00    +0.221 C 
ATOM      3  N   UNL     1      -1.187  -8.425   0.384  0.00  0.00    -0.197 N 
ATOM      4  N   UNL     1      -0.390  -8.056  -0.707  0.00  0.00    -0.158 NA
ATOM      5  C   UNL     1      -0.282  -6.763  -0.801  0.00  0.00    +0.188 C 
ENDROOT
BRANCH   3   6
ATOM      6  C   UNL     1      -1.516  -9.722   0.776  0.00  0.00    +0.054 A 
ATOM      7  C   UNL     1      -2.427  -9.928   1.806  0.00  0.00    +0.025 A 
ATOM      8  C   UNL     1      -2.752 -11.214   2.191  0.00  0.00    +0.005 A 
ATOM      9  C   UNL     1      -2.171 -12.296   1.554  0.00  0.00    -0.050 A 
ATOM     10  C   UNL     1      -1.264 -12.094   0.530  0.00  0.00    +0.005 A 
ATOM     11  C   UNL     1      -0.939 -10.812   0.135  0.00  0.00    +0.025 A 
ATOM     12  C   UNL     1      -2.527 -13.697   1.978  0.00  0.00    +0.044 C 
ENDBRANCH   3   6
BRANCH   1  16
ATOM     13  C   UNL     1      -1.273  -2.008   0.833  0.00  0.00    +0.014 A 
ATOM     14  C   UNL     1      -2.382  -2.723   0.422  0.00  0.00    +0.023 A 
ATOM     15  C   UNL     1      -2.291  -4.086   0.218  0.00  0.00    +0.025 A 
ATOM     16  C   UNL     1      -1.081  -4.738   0.426  0.00  0.00    +0.038 A 
ATOM     17  C   UNL     1       0.032  -4.016   0.838  0.00  0.00    +0.025 A 
ATOM     18  C   UNL     1      -0.066  -2.652   1.035  0.00  0.00    +0.023 A 
BRANCH  13  19
ATOM     19  N   UNL     1      -1.369  -0.628   1.039  0.00  0.00    -0.394 NA
ATOM     20  H   UNL     1      -0.473  -0.268   1.330  0.00  0.00    +0.126 HD
BRANCH  19  22
ATOM     21  C   UNL     1      -0.673  -0.137  -1.257  0.00  0.00    +0.022 C 
ATOM     22  C   UNL     1      -1.778   0.026  -0.211  0.00  0.00    +0.081 C 
ENDBRANCH  19  22
BRANCH  19  23
ATOM     23  C   UNL     1      -2.368  -0.358   2.082  0.00  0.00    +0.081 C 
ATOM     24  C   UNL     1      -1.880  -0.929   3.415  0.00  0.00    +0.022 C 
ENDBRANCH  19  23
ENDBRANCH  13  19
ENDBRANCH   1  16
BRANCH   2  25
ATOM     25  C   UNL     1      -1.101  -7.116   2.453  0.00  0.00    -0.003 A 
ATOM     26  C   UNL     1       0.254  -7.223   2.705  0.00  0.00    +0.011 A 
ATOM     27  C   UNL     1       0.724  -7.172   4.004  0.00  0.00    +0.050 A 
ATOM     28  C   UNL     1      -0.163  -7.011   5.056  0.00  0.00    +0.163 A 
ATOM     29  C   UNL     1      -1.527  -6.902   4.802  0.00  0.00    +0.162 A 
ATOM     30  C   UNL     1      -1.991  -6.950   3.497  0.00  0.00    +0.056 A 
BRANCH  29  31
ATOM     31  O   UNL     1      -2.402  -6.744   5.831  0.00  0.00    -0.491 OA
ATOM     32  C   UNL     1      -3.787  -6.639   5.495  0.00  0.00    +0.277 C 
ENDBRANCH  29  31
BRANCH  28  33
ATOM     33  O   UNL     1       0.298  -6.960   6.335  0.00  0.00    -0.479 OA
BRANCH  33  34
ATOM     34  C   UNL     1       1.710  -7.079   6.521  0.00  0.00    +0.324 C 
BRANCH  34  35
ATOM     35  C   UNL     1       2.031  -7.001   7.991  0.00  0.00    +0.248 C 
ATOM     36  O   UNL     1       1.139  -6.858   8.800  0.00  0.00    -0.272 OA
ATOM     37  N   UNL     1       3.310  -7.090   8.407  0.00  0.00    -0.327 N 
ATOM     38  H   UNL     1       4.024  -7.205   7.760  0.00  0.00    +0.145 HD
ATOM     39  H   UNL     1       3.517  -7.040   9.353  0.00  0.00    +0.145 HD
ENDBRANCH  34  35
ENDBRANCH  33  34
ENDBRANCH  28  33
ENDBRANCH   2  25
BRANCH   5  40
ATOM     40  C   UNL     1       0.456  -6.096  -1.807  0.00  0.00    +0.194 C 
ATOM     41  O   UNL     1       0.527  -4.883  -1.805  0.00  0.00    -0.289 OA
ATOM     42  C   UNL     1       1.154  -6.889  -2.882  0.00  0.00    +0.095 C 
ENDBRANCH   5  40
TORSDOF 11
