REMARK  Name = ZINC46085271
REMARK  6 active torsions:
REMARK  status: ('A' for Active; 'I' for Inactive)
REMARK    1  A    between atoms: C_4  and  C_7
REMARK    2  A    between atoms: C_7  and  N_8
REMARK    3  A    between atoms: N_8  and  C_9
REMARK    4  A    between atoms: C_9  and  N_11
REMARK    5  A    between atoms: N_11  and  N_12
REMARK    6  A    between atoms: C_21  and  C_23
REMARK                            x       y       z     vdW  Elec       q    Type
REMARK                         _______ _______ _______ _____ _____    ______ ____
ROOT
ATOM      1  N   UNL     1       5.138  -1.063   3.930  0.00  0.00    -0.233 N 
ATOM      2  C   UNL     1       5.449  -1.462   5.219  0.00  0.00    +0.233 A 
ATOM      3  N   UNL     1       6.495  -2.244   5.403  0.00  0.00    -0.213 NA
ATOM      4  C   UNL     1       6.829  -2.651   6.635  0.00  0.00    +0.077 A 
ATOM      5  C   UNL     1       7.934  -3.483   6.867  0.00  0.00    +0.028 A 
ATOM      6  C   UNL     1       8.231  -3.868   8.140  0.00  0.00    +0.002 A 
ATOM      7  C   UNL     1       7.452  -3.449   9.217  0.00  0.00    +0.001 A 
ATOM      8  C   UNL     1       6.370  -2.641   9.027  0.00  0.00    +0.012 A 
ATOM      9  C   UNL     1       6.039  -2.226   7.732  0.00  0.00    +0.026 A 
ATOM     10  C   UNL     1       4.927  -1.386   7.474  0.00  0.00    +0.084 A 
ATOM     11  N   UNL     1       4.683  -1.035   6.218  0.00  0.00    -0.213 NA
ATOM     12  H   UNL     1       4.376  -0.485   3.772  0.00  0.00    +0.173 HD
ENDROOT
BRANCH  10  13
ATOM     13  C   UNL     1       4.063  -0.909   8.577  0.00  0.00    +0.001 A 
ATOM     14  C   UNL     1       4.634  -0.429   9.756  0.00  0.00    +0.010 A 
ATOM     15  C   UNL     1       3.824   0.015  10.781  0.00  0.00    +0.001 A 
ATOM     16  C   UNL     1       2.448  -0.015  10.641  0.00  0.00    +0.000 A 
ATOM     17  C   UNL     1       1.875  -0.490   9.474  0.00  0.00    +0.001 A 
ATOM     18  C   UNL     1       2.675  -0.931   8.440  0.00  0.00    +0.010 A 
ENDBRANCH  10  13
BRANCH   1  19
ATOM     19  N   UNL     1       5.925  -1.496   2.855  0.00  0.00    -0.246 N 
ATOM     20  H   UNL     1       6.688  -2.074   3.014  0.00  0.00    +0.172 HD
BRANCH  19  21
ATOM     21  C   UNL     1       5.623  -1.108   1.600  0.00  0.00    +0.147 C 
ATOM     22  S   UNL     1       6.585  -1.636   0.286  0.00  0.00    -0.017 S 
BRANCH  21  23
ATOM     23  N   UNL     1       4.564  -0.304   1.380  0.00  0.00    -0.321 N 
ATOM     24  H   UNL     1       4.019  -0.005   2.124  0.00  0.00    +0.148 HD
BRANCH  23  25
ATOM     25  C   UNL     1       4.235   0.118   0.016  0.00  0.00    +0.138 C 
BRANCH  25  29
ATOM     26  C   UNL     1       0.783   2.631   0.093  0.00  0.00    +0.000 A 
ATOM     27  C   UNL     1       2.044   3.186   0.209  0.00  0.00    +0.000 A 
ATOM     28  C   UNL     1       3.161   2.372   0.184  0.00  0.00    +0.005 A 
ATOM     29  C   UNL     1       3.017   1.004   0.044  0.00  0.00    -0.030 A 
ATOM     30  C   UNL     1       1.756   0.450  -0.072  0.00  0.00    +0.005 A 
ATOM     31  C   UNL     1       0.639   1.264  -0.048  0.00  0.00    +0.000 A 
ENDBRANCH  25  29
ENDBRANCH  23  25
ENDBRANCH  21  23
ENDBRANCH  19  21
ENDBRANCH   1  19
TORSDOF 6
