REMARK  Name = ZINC59121826
REMARK  11 active torsions:
REMARK  status: ('A' for Active; 'I' for Inactive)
REMARK    1  A    between atoms: C_1  and  C_2
REMARK    2  A    between atoms: C_2  and  C_3
REMARK    3  A    between atoms: C_3  and  N_4
REMARK    4  A    between atoms: N_4  and  C_5
REMARK    5  A    between atoms: N_4  and  C_19
REMARK    6  A    between atoms: C_5  and  C_6
REMARK    7  A    between atoms: N_8  and  C_9
REMARK    8  A    between atoms: C_13  and  S_15
REMARK    9  A    between atoms: S_15  and  N_18
REMARK   10  A    between atoms: C_19  and  C_21
REMARK   11  A    between atoms: C_19  and  C_22
REMARK                            x       y       z     vdW  Elec       q    Type
REMARK                         _______ _______ _______ _____ _____    ______ ____
ROOT
ATOM      1  C   UNL     1       3.108  -1.404  -2.183  0.00  0.00    +0.201 C 
ATOM      2  O   UNL     1       3.171  -0.313  -1.656  0.00  0.00    -0.278 OA
ATOM      3  N   UNL     1       4.191  -1.919  -2.797  0.00  0.00    -0.287 N 
ATOM      4  H   UNL     1       4.164  -2.821  -3.152  0.00  0.00    +0.155 HD
ENDROOT
BRANCH   3   5
ATOM      5  C   UNL     1       5.355  -1.153  -2.923  0.00  0.00    +0.035 A 
ATOM      6  C   UNL     1       5.724  -0.276  -1.910  0.00  0.00    +0.023 A 
ATOM      7  C   UNL     1       6.873   0.479  -2.038  0.00  0.00    +0.004 A 
ATOM      8  C   UNL     1       7.656   0.364  -3.172  0.00  0.00    +0.028 A 
ATOM      9  C   UNL     1       7.291  -0.507  -4.182  0.00  0.00    +0.107 A 
ATOM     10  C   UNL     1       6.146  -1.270  -4.058  0.00  0.00    +0.051 A 
BRANCH   9  11
ATOM     11  S   UNL     1       8.291  -0.650  -5.625  0.00  0.00    +0.056 S 
ATOM     12  O   UNL     1       7.444  -1.129  -6.661  0.00  0.00    -0.153 OA
ATOM     13  O   UNL     1       9.019   0.566  -5.737  0.00  0.00    -0.153 OA
BRANCH  11  14
ATOM     14  N   UNL     1       9.404  -1.842  -5.335  0.00  0.00    -0.204 NA
ATOM     15  H   UNL     1       9.405  -2.307  -4.483  0.00  0.00    +0.144 HD
ATOM     16  H   UNL     1      10.054  -2.075  -6.015  0.00  0.00    +0.144 HD
ENDBRANCH  11  14
ENDBRANCH   9  11
ENDBRANCH   3   5
BRANCH   1  17
ATOM     17  C   UNL     1       1.818  -2.183  -2.150  0.00  0.00    +0.020 C 
BRANCH  17  18
ATOM     18  N   UNL     1       0.798  -1.411  -1.428  0.00  0.00    +0.390 N 
ATOM     19  H   UNL     1       1.145  -1.169  -0.512  0.00  0.00    -0.080 HD
BRANCH  18  20
ATOM     20  C   UNL     1      -0.421  -2.218  -1.292  0.00  0.00    -0.039 C 
ATOM     21  C   UNL     1      -0.052  -3.622  -0.809  0.00  0.00    -0.008 C 
BRANCH  20  22
ATOM     22  C   UNL     1      -1.344  -1.570  -0.292  0.00  0.00    -0.047 A 
ATOM     23  C   UNL     1      -0.821  -0.866   0.776  0.00  0.00    +0.003 A 
ATOM     24  C   UNL     1      -1.667  -0.270   1.693  0.00  0.00    +0.000 A 
ATOM     25  C   UNL     1      -3.037  -0.379   1.542  0.00  0.00    +0.001 A 
ATOM     26  C   UNL     1      -3.561  -1.083   0.474  0.00  0.00    +0.015 A 
ATOM     27  C   UNL     1      -2.715  -1.674  -0.447  0.00  0.00    +0.019 A 
ATOM     28 BR   UNL     1      -3.431  -2.631  -1.912  0.00  0.00    -0.050 Br
ENDBRANCH  20  22
ENDBRANCH  18  20
BRANCH  18  29
ATOM     29  C   UNL     1       0.492  -0.184  -2.175  0.00  0.00    -0.078 C 
BRANCH  29  31
ATOM     30  C   UNL     1      -0.612   2.054  -2.041  0.00  0.00    +0.002 C 
ATOM     31  C   UNL     1      -0.429   0.707  -1.339  0.00  0.00    -0.022 C 
ENDBRANCH  29  31
ENDBRANCH  18  29
ENDBRANCH  17  18
ENDBRANCH   1  17
TORSDOF 9
