REMARK  Name = ZINC63598000
REMARK  4 active torsions:
REMARK  status: ('A' for Active; 'I' for Inactive)
REMARK    1  A    between atoms: C_6  and  C_11
REMARK    2  A    between atoms: C_11  and  C_12
REMARK    3  A    between atoms: C_12  and  N_13
REMARK    4  A    between atoms: C_14  and  C_16
REMARK                            x       y       z     vdW  Elec       q    Type
REMARK                         _______ _______ _______ _____ _____    ______ ____
ROOT
ATOM      1  N   UNL     1       5.000  -3.595  -1.503  0.00  0.00    -0.313 N 
ATOM      2  C   UNL     1       5.312  -4.189  -2.672  0.00  0.00    +0.236 C 
ATOM      3  O   UNL     1       5.184  -3.581  -3.714  0.00  0.00    -0.274 OA
ATOM      4  H   UNL     1       5.102  -4.081  -0.670  0.00  0.00    +0.149 HD
ENDROOT
BRANCH   2   5
ATOM      5  C   UNL     1       5.819  -5.608  -2.685  0.00  0.00    +0.183 C 
ATOM      6  C   UNL     1       4.763  -6.550  -2.152  0.00  0.00    +0.027 C 
ATOM      7  C   UNL     1       4.470  -7.407  -3.151  0.00  0.00    +0.047 C 
ATOM      8  C   UNL     1       3.518  -8.528  -3.188  0.00  0.00    +0.024 C 
ATOM      9  C   UNL     1       3.404  -9.252  -4.325  0.00  0.00    +0.003 C 
ATOM     10  C   UNL     1       4.194  -8.922  -5.447  0.00  0.00    +0.017 C 
ATOM     11  C   UNL     1       5.062  -7.901  -5.412  0.00  0.00    +0.093 C 
ATOM     12  N   UNL     1       5.221  -7.128  -4.283  0.00  0.00    -0.242 N 
ATOM     13  N   UNL     1       6.053  -6.059  -4.068  0.00  0.00    -0.220 NA
ATOM     14  H   UNL     1       7.019  -6.316  -4.206  0.00  0.00    +0.146 HD
ENDBRANCH   2   5
BRANCH   1  15
ATOM     15  C   UNL     1       4.508  -2.215  -1.491  0.00  0.00    +0.108 C 
BRANCH  15  16
ATOM     16  C   UNL     1       4.231  -1.785  -0.049  0.00  0.00    +0.052 C 
BRANCH  16  22
ATOM     17  C   UNL     1      -0.017   1.399   0.010  0.00  0.00    +0.022 A 
ATOM     18  C   UNL     1       1.109   2.143   0.003  0.00  0.00    +0.027 A 
ATOM     19  C   UNL     1       2.385   1.516  -0.013  0.00  0.00    +0.043 A 
ATOM     20  N   UNL     1       3.600   2.009  -0.022  0.00  0.00    -0.380 N 
ATOM     21  C   UNL     1       4.557   0.897  -0.038  0.00  0.00    +0.144 C 
ATOM     22  C   UNL     1       3.724  -0.366  -0.036  0.00  0.00    -0.040 C 
ATOM     23  C   UNL     1       2.433   0.036  -0.021  0.00  0.00    +0.000 A 
ATOM     24  C   UNL     1       1.163  -0.699  -0.013  0.00  0.00    +0.030 A 
ATOM     25  C   UNL     1       0.002  -0.004   0.002  0.00  0.00    +0.042 A 
ATOM     26 CL   UNL     1      -1.502  -0.870   0.012  0.00  0.00    -0.084 Cl
ATOM     27  H   UNL     1       3.828   2.952  -0.020  0.00  0.00    +0.160 HD
ENDBRANCH  16  22
ENDBRANCH  15  16
ENDBRANCH   1  15
TORSDOF 4
