REMARK  Name = ZINC16731883
REMARK  9 active torsions:
REMARK  status: ('A' for Active; 'I' for Inactive)
REMARK    1  A    between atoms: C_1  and  C_2
REMARK    2  A    between atoms: C_2  and  C_4
REMARK    3  A    between atoms: C_2  and  S_17
REMARK    4  A    between atoms: N_6  and  C_7
REMARK    5  A    between atoms: C_12  and  O_13
REMARK    6  A    between atoms: O_13  and  C_14
REMARK    7  A    between atoms: S_17  and  C_18
REMARK    8  A    between atoms: C_21  and  C_24
REMARK    9  A    between atoms: N_22  and  C_23
REMARK                            x       y       z     vdW  Elec       q    Type
REMARK                         _______ _______ _______ _____ _____    ______ ____
ROOT
ATOM      1  C   UNL     1       1.533   2.924  -1.536  0.00  0.00    +0.029 C 
ATOM      2  C   UNL     1       1.238   2.421  -0.121  0.00  0.00    +0.137 C 
ENDROOT
BRANCH   2   3
ATOM      3  C   UNL     1      -0.139   1.811  -0.081  0.00  0.00    +0.230 C 
ATOM      4  O   UNL     1      -0.271   0.607  -0.131  0.00  0.00    -0.274 OA
ATOM      5  N   UNL     1      -1.225   2.605   0.006  0.00  0.00    -0.282 N 
ATOM      6  H   UNL     1      -1.119   3.561   0.132  0.00  0.00    +0.155 HD
BRANCH   5   7
ATOM      7  C   UNL     1      -2.508   2.049  -0.085  0.00  0.00    +0.076 A 
ATOM      8  C   UNL     1      -2.734   0.952  -0.903  0.00  0.00    +0.027 A 
ATOM      9  C   UNL     1      -3.999   0.402  -0.987  0.00  0.00    +0.002 A 
ATOM     10  C   UNL     1      -5.044   0.950  -0.266  0.00  0.00    +0.004 A 
ATOM     11  C   UNL     1      -4.828   2.046   0.548  0.00  0.00    +0.048 A 
ATOM     12  C   UNL     1      -3.561   2.600   0.642  0.00  0.00    +0.148 A 
BRANCH  12  13
ATOM     13  O   UNL     1      -3.347   3.679   1.441  0.00  0.00    -0.432 OA
BRANCH  13  14
ATOM     14  C   UNL     1      -4.473   4.191   2.156  0.00  0.00    +0.541 C 
ATOM     15  F   UNL     1      -5.461   4.586   1.248  0.00  0.00    -0.166 F 
ATOM     16  F   UNL     1      -4.983   3.196   2.997  0.00  0.00    -0.166 F 
ENDBRANCH  13  14
ENDBRANCH  12  13
ENDBRANCH   5   7
ENDBRANCH   2   3
BRANCH   2  17
ATOM     17  S   UNL     1       2.465   1.173   0.343  0.00  0.00    -0.074 S 
BRANCH  17  18
ATOM     18  C   UNL     1       3.920   2.166   0.361  0.00  0.00    +0.192 A 
ATOM     19  N   UNL     1       3.991   3.450   0.090  0.00  0.00    -0.122 NA
ATOM     20  N   UNL     1       5.205   3.858   0.201  0.00  0.00    -0.128 NA
ATOM     21  C   UNL     1       5.984   2.858   0.540  0.00  0.00    +0.165 A 
ATOM     22  N   UNL     1       5.186   1.744   0.654  0.00  0.00    -0.305 N 
ATOM     23  C   UNL     1       5.605   0.387   1.013  0.00  0.00    +0.153 C 
BRANCH  21  24
ATOM     24  C   UNL     1       7.445   2.918   0.760  0.00  0.00    +0.019 A 
ATOM     25  C   UNL     1       8.069   4.145   0.992  0.00  0.00    +0.013 A 
ATOM     26  C   UNL     1       9.432   4.194   1.202  0.00  0.00    +0.021 A 
ATOM     27  C   UNL     1      10.182   3.030   1.171  0.00  0.00    +0.041 A 
ATOM     28  C   UNL     1       9.569   1.811   0.936  0.00  0.00    +0.021 A 
ATOM     29  C   UNL     1       8.207   1.748   0.730  0.00  0.00    +0.013 A 
ATOM     30 CL   UNL     1      11.897   3.100   1.428  0.00  0.00    -0.084 Cl
ENDBRANCH  21  24
ENDBRANCH  17  18
ENDBRANCH   2  17
TORSDOF 7
