REMARK  Name = ZINC09087979
REMARK  6 active torsions:
REMARK  status: ('A' for Active; 'I' for Inactive)
REMARK    1  A    between atoms: C_1  and  C_2
REMARK    2  A    between atoms: C_5  and  C_8
REMARK    3  A    between atoms: N_10  and  C_11
REMARK    4  A    between atoms: C_11  and  N_13
REMARK    5  A    between atoms: C_17  and  C_20
REMARK    6  A    between atoms: C_24  and  N_26
REMARK                            x       y       z     vdW  Elec       q    Type
REMARK                         _______ _______ _______ _____ _____    ______ ____
ROOT
ATOM      1  N   UNL     1       0.106  -6.957   2.295  0.00  0.00    -0.169 NA
ATOM      2  C   UNL     1       0.024  -8.271   2.290  0.00  0.00    +0.162 A 
ATOM      3  N   UNL     1      -0.076  -9.122   3.362  0.00  0.00    -0.335 N 
ATOM      4  H   UNL     1      -0.094  -8.781   4.270  0.00  0.00    +0.168 HD
ATOM      5  C   UNL     1      -0.147 -10.425   3.119  0.00  0.00    +0.055 A 
ATOM      6  C   UNL     1      -0.112 -10.839   1.705  0.00  0.00    +0.074 A 
ATOM      7  S   UNL     1       0.009  -9.373   0.889  0.00  0.00    -0.060 S 
ENDROOT
BRANCH   5   8
ATOM      8  C   UNL     1      -0.255 -11.402   4.201  0.00  0.00    +0.001 A 
ATOM      9  C   UNL     1      -0.292 -10.973   5.543  0.00  0.00    +0.010 A 
ATOM     10  C   UNL     1      -0.393 -11.895   6.545  0.00  0.00    +0.003 A 
ATOM     11  C   UNL     1      -0.459 -13.249   6.247  0.00  0.00    +0.033 A 
ATOM     12  C   UNL     1      -0.423 -13.682   4.929  0.00  0.00    +0.127 A 
ATOM     13  C   UNL     1      -0.329 -12.778   3.910  0.00  0.00    +0.042 A 
BRANCH  12  14
ATOM     14  N   UNL     1      -0.495 -15.129   4.627  0.00  0.00    +0.056 N 
ATOM     15  O   UNL     1      -0.591 -16.003   5.608  0.00  0.00    -0.126 OA
ATOM     16  O   UNL     1      -0.461 -15.543   3.377  0.00  0.00    -0.126 OA
ENDBRANCH  12  14
ENDBRANCH   5   8
BRANCH   1  17
ATOM     17  C   UNL     1       0.087  -6.278   1.135  0.00  0.00    +0.163 C 
ATOM     18  S   UNL     1       0.093  -7.126  -0.353  0.00  0.00    -0.016 S 
BRANCH  17  21
ATOM     19  C   UNL     1       0.043  -4.250  -0.020  0.00  0.00    +0.250 C 
ATOM     20  O   UNL     1       0.047  -4.852  -1.076  0.00  0.00    -0.270 OA
ATOM     21  N   UNL     1       0.062  -4.931   1.143  0.00  0.00    -0.262 N 
ATOM     22  H   UNL     1       0.059  -4.451   1.986  0.00  0.00    +0.157 HD
BRANCH  19  27
ATOM     23  C   UNL     1      -0.063   1.503   0.013  0.00  0.00    +0.044 C 
ATOM     24  C   UNL     1      -0.035  -0.004   0.004  0.00  0.00    -0.050 A 
ATOM     25  C   UNL     1      -0.030  -0.686  -1.200  0.00  0.00    +0.004 A 
ATOM     26  C   UNL     1      -0.004  -2.065  -1.215  0.00  0.00    +0.013 A 
ATOM     27  C   UNL     1       0.016  -2.773  -0.012  0.00  0.00    +0.037 A 
ATOM     28  C   UNL     1       0.011  -2.079   1.200  0.00  0.00    +0.013 A 
ATOM     29  C   UNL     1      -0.009  -0.699   1.200  0.00  0.00    +0.004 A 
ENDBRANCH  19  27
ENDBRANCH  17  21
ENDBRANCH   1  17
TORSDOF 5
