REMARK  Name = ZINC04625107
REMARK  6 active torsions:
REMARK  status: ('A' for Active; 'I' for Inactive)
REMARK    1  A    between atoms: C_1  and  S_2
REMARK    2  A    between atoms: S_2  and  C_3
REMARK    3  A    between atoms: C_6  and  S_9
REMARK    4  A    between atoms: S_9  and  N_12
REMARK    5  A    between atoms: N_12  and  C_13
REMARK    6  A    between atoms: C_13  and  C_14
REMARK                            x       y       z     vdW  Elec       q    Type
REMARK                         _______ _______ _______ _____ _____    ______ ____
ROOT
ATOM      1  C   UNL     1       2.312   4.048   2.442  0.00  0.00    +0.141 C 
ENDROOT
BRANCH   1   2
ATOM      2  C   UNL     1       2.237   4.885   3.693  0.00  0.00    -0.031 A 
ATOM      3  C   UNL     1       2.822   6.144   3.714  0.00  0.00    +0.007 A 
ATOM      4  C   UNL     1       2.761   6.927   4.845  0.00  0.00    +0.026 A 
ATOM      5  C   UNL     1       2.116   6.451   5.982  0.00  0.00    +0.047 A 
ATOM      6  C   UNL     1       1.530   5.171   5.958  0.00  0.00    +0.003 A 
ATOM      7  C   UNL     1       1.600   4.397   4.798  0.00  0.00    +0.015 A 
ATOM      8  C   UNL     1       0.949   4.974   7.283  0.00  0.00    -0.019 A 
ATOM      9  C   UNL     1       1.197   6.086   8.000  0.00  0.00    +0.020 A 
ATOM     10  N   UNL     1       1.895   6.979   7.236  0.00  0.00    -0.358 N 
ATOM     11  H   UNL     1       2.191   7.854   7.532  0.00  0.00    +0.166 HD
ATOM     12  C   UNL     1       0.752   6.276   9.432  0.00  0.00    +0.053 C 
ATOM     13  C   UNL     1      -0.333   5.240   9.747  0.00  0.00    +0.006 C 
ATOM     14  C   UNL     1       0.152   3.849   9.328  0.00  0.00    +0.005 C 
ATOM     15  C   UNL     1       0.204   3.769   7.798  0.00  0.00    +0.037 C 
ENDBRANCH   1   2
BRANCH   1  16
ATOM     16  N   UNL     1       1.149   4.329   1.596  0.00  0.00    -0.186 NA
ATOM     17  H   UNL     1       0.383   4.797   1.964  0.00  0.00    +0.148 HD
BRANCH  16  18
ATOM     18  S   UNL     1       1.142   3.848   0.012  0.00  0.00    +0.059 S 
ATOM     19  O   UNL     1       2.375   4.277  -0.548  0.00  0.00    -0.153 OA
ATOM     20  O   UNL     1      -0.115   4.236  -0.525  0.00  0.00    -0.153 OA
BRANCH  18  24
ATOM     21  C   UNL     1       1.216  -0.681  -0.013  0.00  0.00    +0.008 A 
ATOM     22  C   UNL     1       0.002  -0.004   0.002  0.00  0.00    +0.016 A 
ATOM     23  C   UNL     1      -0.017   1.377   0.010  0.00  0.00    +0.029 A 
ATOM     24  C   UNL     1       1.171   2.086   0.002  0.00  0.00    +0.105 A 
ATOM     25  C   UNL     1       2.380   1.416  -0.013  0.00  0.00    +0.029 A 
ATOM     26  C   UNL     1       2.407   0.035  -0.021  0.00  0.00    +0.016 A 
BRANCH  21  28
ATOM     27  C   UNL     1       3.012  -2.852  -0.042  0.00  0.00    +0.090 C 
ATOM     28  S   UNL     1       1.245  -2.442  -0.022  0.00  0.00    -0.129 S 
ENDBRANCH  21  28
ENDBRANCH  18  24
ENDBRANCH  16  18
ENDBRANCH   1  16
TORSDOF 5
