REMARK  Name = ZINC22219888
REMARK  15 active torsions:
REMARK  status: ('A' for Active; 'I' for Inactive)
REMARK    1  A    between atoms: C_1  and  C_2
REMARK    2  A    between atoms: C_7  and  C_9
REMARK    3  A    between atoms: C_7  and  C_10
REMARK    4  A    between atoms: N_13  and  C_17
REMARK    5  A    between atoms: C_17  and  C_18
REMARK    6  A    between atoms: C_18  and  O_20
REMARK    7  A    between atoms: O_20  and  C_21
REMARK    8  A    between atoms: C_21  and  C_22
REMARK    9  A    between atoms: C_23  and  C_32
REMARK   10  A    between atoms: C_24  and  N_31
REMARK   11  A    between atoms: C_26  and  C_27
REMARK   12  A    between atoms: C_27  and  O_29
REMARK   13  A    between atoms: O_29  and  C_30
REMARK   14  A    between atoms: C_32  and  O_34
REMARK   15  A    between atoms: O_34  and  C_35
REMARK                            x       y       z     vdW  Elec       q    Type
REMARK                         _______ _______ _______ _____ _____    ______ ____
ROOT
ATOM      1  C   UNL     1      -1.431  -5.488  -2.763  0.00  0.00    +0.326 C 
ATOM      2  O   UNL     1      -1.058  -5.764  -1.647  0.00  0.00    -0.249 OA
ENDROOT
BRANCH   1   3
ATOM      3  C   UNL     1      -2.031  -4.134  -3.043  0.00  0.00    +0.238 C 
BRANCH   3  15
ATOM      4  C   UNL     1      -0.019   1.528   0.010  0.00  0.00    +0.007 C 
ATOM      5  C   UNL     1       0.002  -0.004   0.002  0.00  0.00    -0.011 C 
ATOM      6  C   UNL     1      -1.435  -0.529   0.021  0.00  0.00    +0.038 C 
ATOM      7  C   UNL     1      -1.427  -2.050  -0.036  0.00  0.00    +0.113 C 
ATOM      8  C   UNL     1      -0.575  -2.676   1.049  0.00  0.00    +0.041 C 
ATOM      9  C   UNL     1       0.782  -2.031   1.270  0.00  0.00    -0.032 C 
ATOM     10  C   UNL     1       0.719  -0.508   1.253  0.00  0.00    +0.009 C 
ATOM     11  C   UNL     1       1.296  -2.464   2.661  0.00  0.00    +0.011 C 
ATOM     12  C   UNL     1       1.795  -2.526   0.234  0.00  0.00    +0.011 C 
ATOM     13  C   UNL     1      -1.044  -2.534  -1.413  0.00  0.00    +0.247 C 
ATOM     14  O   UNL     1      -0.058  -2.253  -2.060  0.00  0.00    -0.273 OA
ATOM     15  N   UNL     1      -2.050  -3.344  -1.810  0.00  0.00    -0.213 N 
ATOM     16  C   UNL     1      -3.063  -3.331  -0.937  0.00  0.00    +0.310 C 
ATOM     17  O   UNL     1      -4.088  -3.969  -1.082  0.00  0.00    -0.252 OA
ATOM     18  N   UNL     1      -2.817  -2.537   0.119  0.00  0.00    -0.285 N 
ATOM     19  H   UNL     1      -3.418  -2.318   0.845  0.00  0.00    +0.151 HD
ENDBRANCH   3  15
ENDBRANCH   1   3
BRANCH   1  20
ATOM     20  O   UNL     1      -1.312  -6.387  -3.753  0.00  0.00    -0.459 OA
BRANCH  20  21
ATOM     21  C   UNL     1      -0.734  -7.650  -3.416  0.00  0.00    +0.269 C 
BRANCH  21  22
ATOM     22  C   UNL     1      -0.681  -8.522  -4.643  0.00  0.00    +0.027 A 
ATOM     23  C   UNL     1      -1.729  -9.364  -4.989  0.00  0.00    +0.094 A 
ATOM     24  C   UNL     1      -1.586 -10.134  -6.147  0.00  0.00    +0.078 A 
ATOM     25  S   UNL     1      -0.068  -9.708  -6.727  0.00  0.00    -0.066 S 
ATOM     26  C   UNL     1       0.401  -8.523  -5.483  0.00  0.00    +0.105 A 
BRANCH  24  27
ATOM     27  N   UNL     1      -2.478 -11.030  -6.685  0.00  0.00    -0.352 N 
ATOM     28  H   UNL     1      -3.330 -11.188  -6.249  0.00  0.00    +0.143 HD
ATOM     29  H   UNL     1      -2.256 -11.505  -7.502  0.00  0.00    +0.143 HD
ENDBRANCH  24  27
BRANCH  26  30
ATOM     30  C   UNL     1       1.635  -7.747  -5.381  0.00  0.00    +0.346 C 
ATOM     31  O   UNL     1       1.794  -6.975  -4.454  0.00  0.00    -0.244 OA
BRANCH  30  32
ATOM     32  O   UNL     1       2.598  -7.885  -6.316  0.00  0.00    -0.464 OA
ATOM     33  C   UNL     1       3.778  -7.095  -6.154  0.00  0.00    +0.280 C 
ENDBRANCH  30  32
ENDBRANCH  26  30
BRANCH  23  34
ATOM     34  C   UNL     1      -2.942  -9.443  -4.169  0.00  0.00    +0.342 C 
ATOM     35  O   UNL     1      -3.880  -8.703  -4.397  0.00  0.00    -0.245 OA
BRANCH  34  36
ATOM     36  O   UNL     1      -3.018 -10.337  -3.163  0.00  0.00    -0.464 OA
ATOM     37  C   UNL     1      -4.230 -10.360  -2.405  0.00  0.00    +0.280 C 
ENDBRANCH  34  36
ENDBRANCH  23  34
ENDBRANCH  21  22
ENDBRANCH  20  21
ENDBRANCH   1  20
TORSDOF 10
