REMARK  Name = ZINC08687439
REMARK  8 active torsions:
REMARK  status: ('A' for Active; 'I' for Inactive)
REMARK    1  A    between atoms: C_1  and  C_2
REMARK    2  A    between atoms: C_2  and  O_3
REMARK    3  A    between atoms: O_3  and  C_4
REMARK    4  A    between atoms: C_4  and  C_6
REMARK    5  A    between atoms: C_7  and  C_27
REMARK    6  A    between atoms: C_11  and  C_13
REMARK    7  A    between atoms: C_16  and  C_18
REMARK    8  A    between atoms: C_23  and  C_24
REMARK                            x       y       z     vdW  Elec       q    Type
REMARK                         _______ _______ _______ _____ _____    ______ ____
ROOT
ATOM      1  C   UNL     1       1.238  -2.361  -2.590  0.00  0.00    +0.081 C 
ATOM      2  C   UNL     1       1.627  -3.655  -2.615  0.00  0.00    +0.019 C 
ATOM      3  N   UNL     1       2.445  -4.125  -3.601  0.00  0.00    -0.300 N 
ATOM      4  C   UNL     1       2.916  -3.367  -4.599  0.00  0.00    +0.135 C 
ATOM      5  N   UNL     1       2.615  -2.058  -4.710  0.00  0.00    -0.312 N 
ATOM      6  C   UNL     1       1.734  -1.454  -3.697  0.00  0.00    +0.177 C 
ATOM      7  S   UNL     1       3.935  -4.084  -5.774  0.00  0.00    -0.019 S 
ATOM      8  C   UNL     1       1.153  -4.593  -1.536  0.00  0.00    +0.061 C 
ATOM      9  H   UNL     1       2.699  -5.060  -3.578  0.00  0.00    +0.154 HD
ATOM     10  H   UNL     1       2.968  -1.527  -5.441  0.00  0.00    +0.149 HD
ENDROOT
BRANCH   6  11
ATOM     11  C   UNL     1       2.480  -0.310  -3.060  0.00  0.00    +0.131 A 
ATOM     12  C   UNL     1       1.988   0.925  -2.841  0.00  0.00    +0.047 A 
ATOM     13  C   UNL     1       3.012   1.675  -2.230  0.00  0.00    +0.050 A 
ATOM     14  C   UNL     1       4.085   0.849  -2.109  0.00  0.00    +0.136 A 
ATOM     15  O   UNL     1       3.746  -0.354  -2.612  0.00  0.00    -0.457 OA
BRANCH  14  16
ATOM     16  C   UNL     1       5.394   1.206  -1.523  0.00  0.00    +0.022 A 
ATOM     17  C   UNL     1       6.053   2.365  -1.936  0.00  0.00    +0.012 A 
ATOM     18  C   UNL     1       7.275   2.693  -1.385  0.00  0.00    +0.002 A 
ATOM     19  C   UNL     1       7.847   1.877  -0.426  0.00  0.00    +0.020 A 
ATOM     20  C   UNL     1       7.199   0.726  -0.012  0.00  0.00    +0.045 A 
ATOM     21  C   UNL     1       5.972   0.390  -0.551  0.00  0.00    -0.022 A 
ATOM     22  C   UNL     1       5.264  -0.860  -0.095  0.00  0.00    +0.046 C 
ATOM     23 CL   UNL     1       7.925  -0.292   1.192  0.00  0.00    -0.083 Cl
ENDBRANCH  14  16
ENDBRANCH   6  11
BRANCH   1  24
ATOM     24  C   UNL     1       0.390  -1.873  -1.568  0.00  0.00    +0.339 C 
ATOM     25  O   UNL     1      -0.091  -2.642  -0.757  0.00  0.00    -0.245 OA
BRANCH  24  26
ATOM     26  O   UNL     1       0.116  -0.554  -1.492  0.00  0.00    -0.462 OA
BRANCH  26  28
ATOM     27  C   UNL     1      -0.940   1.385  -0.509  0.00  0.00    +0.048 C 
ATOM     28  C   UNL     1      -0.747  -0.131  -0.434  0.00  0.00    +0.229 C 
ENDBRANCH  26  28
ENDBRANCH  24  26
ENDBRANCH   1  24
TORSDOF 5
