REMARK  Name = ZINC65528166
REMARK  5 active torsions:
REMARK  status: ('A' for Active; 'I' for Inactive)
REMARK    1  A    between atoms: C_1  and  C_2
REMARK    2  A    between atoms: C_6  and  C_8
REMARK    3  A    between atoms: C_10  and  C_26
REMARK    4  A    between atoms: N_13  and  C_14
REMARK    5  A    between atoms: C_14  and  C_15
REMARK                            x       y       z     vdW  Elec       q    Type
REMARK                         _______ _______ _______ _____ _____    ______ ____
ROOT
ATOM      1  C   UNL     1       1.434   1.970  -2.586  0.00  0.00    +0.156 C 
ATOM      2  C   UNL     1       2.181   3.249  -2.278  0.00  0.00    +0.068 C 
ATOM      3  N   UNL     1       2.374   3.906  -3.373  0.00  0.00    -0.270 NA
ATOM      4  C   UNL     1       1.804   3.185  -4.516  0.00  0.00    +0.229 C 
ATOM      5  N   UNL     1       1.587   1.791  -4.051  0.00  0.00    -0.268 NA
ENDROOT
BRANCH   1  11
ATOM      6  C   UNL     1      -0.651  -0.356  -2.383  0.00  0.00    +0.065 C 
ATOM      7  C   UNL     1      -0.916   1.107  -2.136  0.00  0.00    +0.035 A 
ATOM      8  N   UNL     1      -2.110   1.671  -1.775  0.00  0.00    -0.350 N 
ATOM      9  C   UNL     1      -1.905   3.000  -1.658  0.00  0.00    +0.171 A 
ATOM     10  N   UNL     1      -0.654   3.256  -1.930  0.00  0.00    -0.348 N 
ATOM     11  C   UNL     1      -0.022   2.110  -2.222  0.00  0.00    +0.060 A 
ATOM     12  H   UNL     1      -2.947   1.202  -1.630  0.00  0.00    +0.166 HD
ATOM     13  H   UNL     1      -0.246   4.136  -1.919  0.00  0.00    +0.166 HD
ENDBRANCH   1  11
BRANCH   2  14
ATOM     14  C   UNL     1       2.619   3.679  -0.936  0.00  0.00    -0.002 A 
ATOM     15  C   UNL     1       2.455   2.831   0.161  0.00  0.00    +0.010 A 
ATOM     16  C   UNL     1       2.866   3.239   1.413  0.00  0.00    +0.001 A 
ATOM     17  C   UNL     1       3.440   4.487   1.583  0.00  0.00    +0.000 A 
ATOM     18  C   UNL     1       3.605   5.333   0.500  0.00  0.00    +0.001 A 
ATOM     19  C   UNL     1       3.204   4.935  -0.758  0.00  0.00    +0.010 A 
ENDBRANCH   2  14
BRANCH   5  20
ATOM     20  C   UNL     1       2.748   0.946  -4.360  0.00  0.00    +0.116 C 
BRANCH  20  21
ATOM     21  C   UNL     1       2.392  -0.521  -4.108  0.00  0.00    +0.117 C 
ATOM     22  C   UNL     1       3.537  -1.415  -4.529  0.00  0.00    +0.008 C 
ATOM     23  C   UNL     1       3.047  -2.217  -5.501  0.00  0.00    -0.001 A 
ATOM     24  C   UNL     1       3.651  -3.287  -6.305  0.00  0.00    +0.048 A 
ATOM     25  C   UNL     1       2.891  -3.926  -7.225  0.00  0.00    +0.124 A 
ATOM     26  C   UNL     1       1.542  -3.592  -7.428  0.00  0.00    +0.040 A 
ATOM     27  C   UNL     1       0.919  -2.621  -6.728  0.00  0.00    +0.029 A 
ATOM     28  C   UNL     1       1.624  -1.884  -5.735  0.00  0.00    +0.043 A 
ATOM     29  N   UNL     1       1.247  -0.913  -4.937  0.00  0.00    -0.377 N 
ATOM     30  F   UNL     1       3.444  -4.911  -7.967  0.00  0.00    -0.205 F 
ATOM     31  H   UNL     1       0.360  -0.521  -4.900  0.00  0.00    +0.160 HD
ENDBRANCH  20  21
ENDBRANCH   5  20
TORSDOF 4
