REMARK  Name = ZINC28056341
REMARK  2 active torsions:
REMARK  status: ('A' for Active; 'I' for Inactive)
REMARK    1  A    between atoms: C_9  and  C_17
REMARK    2  A    between atoms: C_24  and  C_27
REMARK                            x       y       z     vdW  Elec       q    Type
REMARK                         _______ _______ _______ _____ _____    ______ ____
ROOT
ATOM      1  C   UNL     1      -4.914   0.372   0.483  0.00  0.00    +0.001 A 
ATOM      2  C   UNL     1      -4.712   0.590  -0.868  0.00  0.00    +0.004 A 
ATOM      3  C   UNL     1      -4.236   1.807  -1.320  0.00  0.00    +0.046 A 
ATOM      4  C   UNL     1      -3.958   2.814  -0.415  0.00  0.00    +0.131 A 
ATOM      5  C   UNL     1      -4.163   2.596   0.954  0.00  0.00    +0.038 A 
ATOM      6  C   UNL     1      -4.642   1.370   1.399  0.00  0.00    +0.013 A 
ATOM      7  C   UNL     1      -3.858   3.698   1.896  0.00  0.00    +0.050 C 
ATOM      8  C   UNL     1      -3.100   4.709   1.467  0.00  0.00    +0.025 C 
ATOM      9  C   UNL     1      -2.750   5.886   2.344  0.00  0.00    +0.174 C 
ATOM     10  N   UNL     1      -3.575   5.880   3.544  0.00  0.00    -0.201 N 
ATOM     11  C   UNL     1      -4.333   4.824   3.937  0.00  0.00    +0.240 A 
ATOM     12  N   UNL     1      -4.925   5.161   5.046  0.00  0.00    -0.092 NA
ATOM     13  N   UNL     1      -4.597   6.363   5.379  0.00  0.00    -0.021 NA
ATOM     14  N   UNL     1      -3.780   6.864   4.510  0.00  0.00    -0.042 NA
ATOM     15  N   UNL     1      -4.382   3.655   3.194  0.00  0.00    -0.282 N 
ATOM     16  C   UNL     1      -2.564   4.679   0.053  0.00  0.00    +0.234 C 
ATOM     17  O   UNL     1      -3.484   4.020  -0.817  0.00  0.00    -0.479 OA
ATOM     18  H   UNL     1      -4.809   2.720   3.584  0.00  0.00    +0.155 HD
ENDROOT
BRANCH  16  19
ATOM     19  C   UNL     1      -1.249   3.944   0.036  0.00  0.00    -0.002 A 
ATOM     20  C   UNL     1      -0.067   4.647  -0.111  0.00  0.00    +0.010 A 
ATOM     21  C   UNL     1       1.140   3.974  -0.126  0.00  0.00    +0.040 A 
ATOM     22  C   UNL     1       1.166   2.596   0.005  0.00  0.00    +0.137 A 
ATOM     23  C   UNL     1      -0.018   1.893   0.151  0.00  0.00    +0.053 A 
ATOM     24  C   UNL     1      -1.225   2.568   0.161  0.00  0.00    +0.025 A 
ATOM     25 BR   UNL     1       0.015   0.011   0.331  0.00  0.00    -0.047 Br
ATOM     26  F   UNL     1       2.346   1.938  -0.011  0.00  0.00    -0.204 F 
ENDBRANCH  16  19
BRANCH   9  27
ATOM     27  C   UNL     1      -1.297   5.802   2.736  0.00  0.00    -0.016 A 
ATOM     28  C   UNL     1      -0.428   6.820   2.390  0.00  0.00    +0.006 A 
ATOM     29  C   UNL     1       0.905   6.744   2.750  0.00  0.00    +0.003 A 
ATOM     30  C   UNL     1       1.369   5.651   3.456  0.00  0.00    +0.038 A 
ATOM     31  C   UNL     1       0.500   4.631   3.803  0.00  0.00    +0.124 A 
ATOM     32  C   UNL     1      -0.836   4.710   3.447  0.00  0.00    +0.044 A 
ATOM     33  F   UNL     1       0.953   3.562   4.494  0.00  0.00    -0.205 F 
ENDBRANCH   9  27
TORSDOF 2
