REMARK  Name = ZINC16247687
REMARK  7 active torsions:
REMARK  status: ('A' for Active; 'I' for Inactive)
REMARK    1  A    between atoms: C_1  and  O_2
REMARK    2  A    between atoms: O_2  and  C_3
REMARK    3  A    between atoms: C_6  and  C_9
REMARK    4  A    between atoms: C_9  and  N_10
REMARK    5  A    between atoms: C_14  and  C_15
REMARK    6  A    between atoms: C_16  and  N_26
REMARK    7  A    between atoms: N_26  and  C_27
REMARK                            x       y       z     vdW  Elec       q    Type
REMARK                         _______ _______ _______ _____ _____    ______ ____
ROOT
ATOM      1  C   UNL     1      -5.333   3.280   3.728  0.00  0.00    +0.081 A 
ATOM      2  C   UNL     1      -6.085   4.147   4.554  0.00  0.00    +0.134 A 
ATOM      3  N   UNL     1      -6.512   5.304   4.070  0.00  0.00    -0.214 NA
ATOM      4  C   UNL     1      -6.251   5.677   2.817  0.00  0.00    +0.142 A 
ATOM      5  C   UNL     1      -6.730   6.917   2.358  0.00  0.00    +0.047 A 
ATOM      6  C   UNL     1      -6.468   7.307   1.078  0.00  0.00    +0.005 A 
ATOM      7  C   UNL     1      -5.725   6.467   0.238  0.00  0.00    +0.018 A 
ATOM      8  C   UNL     1      -5.272   5.278   0.696  0.00  0.00    +0.096 A 
ATOM      9  N   UNL     1      -5.528   4.880   1.974  0.00  0.00    -0.268 N 
ATOM     10  C   UNL     1      -5.057   3.688   2.401  0.00  0.00    +0.267 A 
ATOM     11  O   UNL     1      -4.408   2.975   1.655  0.00  0.00    -0.267 OA
ENDROOT
BRANCH   1  16
ATOM     12  N   UNL     1      -6.688  -0.573   2.407  0.00  0.00    -0.251 N 
ATOM     13  C   UNL     1      -6.395   0.669   2.753  0.00  0.00    +0.259 C 
ATOM     14  O   UNL     1      -7.001   1.612   2.276  0.00  0.00    -0.269 OA
ATOM     15  C   UNL     1      -5.351   0.873   3.700  0.00  0.00    +0.077 C 
ATOM     16  C   UNL     1      -4.863   2.038   4.217  0.00  0.00    +0.037 C 
ATOM     17  S   UNL     1      -4.855  -0.812   4.030  0.00  0.00    -0.061 S 
ATOM     18  C   UNL     1      -6.019  -1.619   2.941  0.00  0.00    +0.121 C 
ATOM     19  S   UNL     1      -6.233  -3.292   2.648  0.00  0.00    -0.027 S 
BRANCH  12  20
ATOM     20  C   UNL     1      -7.756  -0.819   1.435  0.00  0.00    +0.150 C 
BRANCH  20  24
ATOM     21  C   UNL     1      -6.117  -0.855  -2.511  0.00  0.00    +0.120 A 
ATOM     22  C   UNL     1      -6.194  -2.032  -1.780  0.00  0.00    +0.046 A 
ATOM     23  C   UNL     1      -6.721  -2.017  -0.503  0.00  0.00    +0.009 A 
ATOM     24  C   UNL     1      -7.176  -0.831   0.044  0.00  0.00    -0.029 A 
ATOM     25  C   UNL     1      -7.095   0.344  -0.680  0.00  0.00    +0.009 A 
ATOM     26  C   UNL     1      -6.570   0.334  -1.958  0.00  0.00    +0.046 A 
BRANCH  21  28
ATOM     27  C   UNL     1      -5.551   0.381  -4.462  0.00  0.00    +0.277 C 
ATOM     28  O   UNL     1      -5.599  -0.867  -3.768  0.00  0.00    -0.495 OA
ENDBRANCH  21  28
ENDBRANCH  20  24
ENDBRANCH  12  20
ENDBRANCH   1  16
BRANCH   2  29
ATOM     29  N   UNL     1      -6.372   3.791   5.854  0.00  0.00    -0.326 N 
ATOM     30  H   UNL     1      -6.059   2.943   6.205  0.00  0.00    +0.148 HD
BRANCH  29  31
ATOM     31  C   UNL     1      -7.152   4.693   6.706  0.00  0.00    +0.072 C 
ATOM     32  C   UNL     1      -6.216   5.702   7.402  0.00  0.00    +0.022 C 
ATOM     33  C   UNL     1      -6.830   5.877   8.814  0.00  0.00    +0.002 C 
ATOM     34  C   UNL     1      -7.309   4.445   9.159  0.00  0.00    +0.002 C 
ATOM     35  C   UNL     1      -7.847   3.894   7.822  0.00  0.00    +0.022 C 
ENDBRANCH  29  31
ENDBRANCH   2  29
TORSDOF 6
