REMARK  Name = ZINC39914312
REMARK  16 active torsions:
REMARK  status: ('A' for Active; 'I' for Inactive)
REMARK    1  A    between atoms: C_1  and  C_2
REMARK    2  A    between atoms: C_2  and  C_3
REMARK    3  A    between atoms: C_3  and  C_4
REMARK    4  A    between atoms: C_4  and  C_5
REMARK    5  A    between atoms: C_5  and  O_6
REMARK    6  A    between atoms: O_6  and  C_7
REMARK    7  A    between atoms: C_10  and  C_15
REMARK    8  A    between atoms: C_12  and  O_13
REMARK    9  A    between atoms: O_13  and  C_14
REMARK   10  A    between atoms: C_18  and  C_30
REMARK   11  A    between atoms: N_25  and  C_26
REMARK   12  A    between atoms: C_26  and  C_27
REMARK   13  A    between atoms: C_27  and  C_28
REMARK   14  A    between atoms: C_28  and  C_29
REMARK   15  A    between atoms: C_33  and  C_37
REMARK   16  A    between atoms: C_35  and  O_36
REMARK                            x       y       z     vdW  Elec       q    Type
REMARK                         _______ _______ _______ _____ _____    ______ ____
ROOT
ATOM      1  C   UNL     1       3.319  -6.016  -6.970  0.00  0.00    +0.141 C 
ATOM      2  C   UNL     1       4.788  -6.272  -7.164  0.00  0.00    +0.035 A 
ATOM      3  C   UNL     1       5.954  -6.876  -6.680  0.00  0.00    +0.102 A 
ATOM      4  N   UNL     1       6.925  -6.593  -7.527  0.00  0.00    -0.173 NA
ATOM      5  N   UNL     1       6.488  -5.872  -8.496  0.00  0.00    -0.272 N 
ATOM      6  H   UNL     1       7.026  -5.546  -9.235  0.00  0.00    +0.189 HD
ATOM      7  C   UNL     1       5.153  -5.632  -8.332  0.00  0.00    +0.126 A 
ATOM      8  C   UNL     1       3.967  -4.974  -8.893  0.00  0.00    +0.265 C 
ATOM      9  O   UNL     1       3.955  -4.325  -9.922  0.00  0.00    -0.268 OA
ATOM     10  N   UNL     1       2.895  -5.192  -8.109  0.00  0.00    -0.285 N 
ENDROOT
BRANCH   3  11
ATOM     11  C   UNL     1       6.076  -7.684  -5.442  0.00  0.00    +0.045 A 
ATOM     12  C   UNL     1       4.940  -8.011  -4.705  0.00  0.00    +0.034 A 
ATOM     13  C   UNL     1       5.059  -8.764  -3.553  0.00  0.00    +0.045 A 
ATOM     14  C   UNL     1       6.304  -9.195  -3.128  0.00  0.00    -0.029 A 
ATOM     15  C   UNL     1       7.437  -8.875  -3.852  0.00  0.00    +0.050 A 
ATOM     16  C   UNL     1       7.331  -8.126  -5.013  0.00  0.00    +0.126 A 
ATOM     17  C   UNL     1       6.424 -10.016  -1.870  0.00  0.00    +0.045 C 
ATOM     18 CL   UNL     1       3.642  -9.170  -2.635  0.00  0.00    -0.083 Cl
BRANCH  16  19
ATOM     19  O   UNL     1       8.443  -7.817  -5.728  0.00  0.00    -0.506 OA
ATOM     20  H   UNL     1       8.864  -6.987  -5.462  0.00  0.00    +0.292 HD
ENDBRANCH  16  19
ENDBRANCH   3  11
BRANCH   1  24
ATOM     21  C   UNL     1       2.660  -3.916  -3.303  0.00  0.00    +0.162 A 
ATOM     22  C   UNL     1       2.219  -5.222  -3.446  0.00  0.00    +0.050 A 
ATOM     23  C   UNL     1       2.433  -5.898  -4.633  0.00  0.00    +0.009 A 
ATOM     24  C   UNL     1       3.088  -5.274  -5.679  0.00  0.00    -0.019 A 
ATOM     25  C   UNL     1       3.531  -3.972  -5.543  0.00  0.00    +0.055 A 
ATOM     26  C   UNL     1       3.314  -3.286  -4.358  0.00  0.00    +0.162 A 
BRANCH  26  27
ATOM     27  O   UNL     1       3.744  -2.003  -4.224  0.00  0.00    -0.491 OA
ATOM     28  C   UNL     1       4.330  -1.392  -5.376  0.00  0.00    +0.277 C 
ENDBRANCH  26  27
BRANCH  21  29
ATOM     29  O   UNL     1       2.450  -3.249  -2.136  0.00  0.00    -0.488 OA
BRANCH  29  30
ATOM     30  C   UNL     1       1.773  -3.959  -1.097  0.00  0.00    +0.229 C 
BRANCH  30  31
ATOM     31  C   UNL     1       1.629  -3.054   0.128  0.00  0.00    +0.041 C 
BRANCH  31  32
ATOM     32  C   UNL     1       0.904  -3.813   1.241  0.00  0.00    +0.003 C 
BRANCH  32  34
ATOM     33  C   UNL     1       0.035  -3.667   3.579  0.00  0.00    +0.004 C 
ATOM     34  C   UNL     1       0.761  -2.908   2.466  0.00  0.00    -0.003 C 
ENDBRANCH  32  34
ENDBRANCH  31  32
ENDBRANCH  30  31
ENDBRANCH  29  30
ENDBRANCH  21  29
ENDBRANCH   1  24
BRANCH  10  35
ATOM     35  C   UNL     1       1.538  -4.693  -8.350  0.00  0.00    +0.109 C 
BRANCH  35  36
ATOM     36  C   UNL     1       1.372  -3.326  -7.684  0.00  0.00    +0.019 C 
BRANCH  36  37
ATOM     37  C   UNL     1      -0.045  -2.805  -7.935  0.00  0.00    -0.002 C 
ATOM     38  C   UNL     1      -0.211  -1.438  -7.269  0.00  0.00    +0.004 C 
ENDBRANCH  36  37
ENDBRANCH  35  36
ENDBRANCH  10  35
TORSDOF 12
