REMARK  Name = ZINC20776348
REMARK  6 active torsions:
REMARK  status: ('A' for Active; 'I' for Inactive)
REMARK    1  A    between atoms: C_4  and  C_7
REMARK    2  A    between atoms: C_10  and  C_13
REMARK    3  A    between atoms: C_13  and  N_14
REMARK    4  A    between atoms: C_15  and  C_17
REMARK    5  A    between atoms: C_17  and  N_18
REMARK    6  A    between atoms: C_27  and  C_30
REMARK                            x       y       z     vdW  Elec       q    Type
REMARK                         _______ _______ _______ _____ _____    ______ ____
ROOT
ATOM      1  C   UNL     1      -3.179  -2.111   3.059  0.00  0.00    +0.019 C 
ENDROOT
BRANCH   1   2
ATOM      2  N   UNL     1      -4.351  -2.996   3.066  0.00  0.00    +0.391 N 
ATOM      3  C   UNL     1      -3.994  -4.345   2.611  0.00  0.00    -0.038 C 
ATOM      4  C   UNL     1      -5.206  -4.973   1.950  0.00  0.00    -0.022 A 
ATOM      5  C   UNL     1      -5.208  -5.215   0.592  0.00  0.00    +0.005 A 
ATOM      6  C   UNL     1      -6.312  -5.806   0.003  0.00  0.00    +0.000 A 
ATOM      7  C   UNL     1      -7.406  -6.154   0.773  0.00  0.00    +0.004 A 
ATOM      8  C   UNL     1      -7.407  -5.906   2.133  0.00  0.00    +0.046 A 
ATOM      9  C   UNL     1      -6.303  -5.304   2.722  0.00  0.00    +0.123 A 
ATOM     10  O   UNL     1      -6.313  -5.010   4.051  0.00  0.00    -0.486 OA
ATOM     11  C   UNL     1      -6.380  -3.614   4.369  0.00  0.00    +0.188 C 
ATOM     12  C   UNL     1      -4.997  -2.999   4.376  0.00  0.00    -0.028 C 
ATOM     13  H   UNL     1      -5.093  -2.605   2.354  0.00  0.00    -0.080 HD
BRANCH  11  14
ATOM     14  C   UNL     1      -7.004  -3.445   5.730  0.00  0.00    -0.002 A 
ATOM     15  C   UNL     1      -7.901  -2.421   5.968  0.00  0.00    +0.015 A 
ATOM     16  C   UNL     1      -8.444  -2.297   7.204  0.00  0.00    +0.045 A 
ATOM     17  S   UNL     1      -7.685  -3.655   8.079  0.00  0.00    -0.105 S 
ATOM     18  C   UNL     1      -6.699  -4.299   6.738  0.00  0.00    +0.052 A 
ENDBRANCH  11  14
ENDBRANCH   1   2
BRANCH   1  20
ATOM     19  N   UNL     1      -1.649  -1.117   1.389  0.00  0.00    -0.310 N 
ATOM     20  C   UNL     1      -2.717  -1.900   1.640  0.00  0.00    +0.197 C 
ATOM     21  O   UNL     1      -3.307  -2.434   0.725  0.00  0.00    -0.278 OA
ATOM     22  H   UNL     1      -1.115  -0.633   2.219  0.00  0.00    +0.149 HD
BRANCH  19  23
ATOM     23  C   UNL     1      -1.200  -0.912   0.009  0.00  0.00    +0.182 C 
BRANCH  23  27
ATOM     24  C   UNL     1       2.040   0.761  -0.013  0.00  0.00    +0.156 A 
ATOM     25  N   UNL     1       1.306  -0.394  -0.013  0.00  0.00    -0.210 NA
ATOM     26  H   UNL     1       1.361   2.845   0.004  0.00  0.00    +0.191 HD
ATOM     27  C   UNL     1       0.002  -0.004   0.002  0.00  0.00    +0.168 A 
ATOM     28  N   UNL     1      -0.016   1.302   0.009  0.00  0.00    -0.156 NA
ATOM     29  N   UNL     1       1.186   1.759  -0.000  0.00  0.00    -0.258 N 
BRANCH  24  33
ATOM     30  C   UNL     1       6.278   1.061  -0.051  0.00  0.00    +0.000 A 
ATOM     31  C   UNL     1       5.506   2.209  -0.038  0.00  0.00    +0.001 A 
ATOM     32  C   UNL     1       4.130   2.118  -0.026  0.00  0.00    +0.011 A 
ATOM     33  C   UNL     1       3.516   0.865  -0.026  0.00  0.00    +0.019 A 
ATOM     34  C   UNL     1       4.300  -0.289  -0.034  0.00  0.00    +0.011 A 
ATOM     35  C   UNL     1       5.676  -0.185  -0.051  0.00  0.00    +0.001 A 
ENDBRANCH  24  33
ENDBRANCH  23  27
ENDBRANCH  19  23
ENDBRANCH   1  20
TORSDOF 6
