REMARK  Name = ZINC13756511
REMARK  9 active torsions:
REMARK  status: ('A' for Active; 'I' for Inactive)
REMARK    1  A    between atoms: C_1  and  O_2
REMARK    2  A    between atoms: O_2  and  C_3
REMARK    3  A    between atoms: C_6  and  C_18
REMARK    4  A    between atoms: C_8  and  C_9
REMARK    5  A    between atoms: C_9  and  O_10
REMARK    6  A    between atoms: O_10  and  C_11
REMARK    7  A    between atoms: N_19  and  N_20
REMARK    8  A    between atoms: C_21  and  C_23
REMARK    9  A    between atoms: C_25  and  N_31
REMARK                            x       y       z     vdW  Elec       q    Type
REMARK                         _______ _______ _______ _____ _____    ______ ____
ROOT
ATOM      1  C   UNL     1       0.060  -4.249  -0.022  0.00  0.00    +0.138 C 
ATOM      2  N   UNL     1       1.193  -4.883  -0.036  0.00  0.00    -0.187 NA
ENDROOT
BRANCH   1   6
ATOM      3  C   UNL     1       0.002  -0.004   0.002  0.00  0.00    +0.127 A 
ATOM      4  C   UNL     1       1.216  -0.680  -0.013  0.00  0.00    +0.046 A 
ATOM      5  C   UNL     1       1.239  -2.058  -0.021  0.00  0.00    +0.013 A 
ATOM      6  C   UNL     1       0.040  -2.775  -0.013  0.00  0.00    -0.005 A 
ATOM      7  C   UNL     1      -1.179  -2.091   0.002  0.00  0.00    +0.020 A 
ATOM      8  C   UNL     1      -1.192  -0.713   0.015  0.00  0.00    +0.032 A 
BRANCH   3  10
ATOM      9  C   UNL     1       1.248   2.020   0.001  0.00  0.00    +0.277 C 
ATOM     10  O   UNL     1      -0.016   1.354   0.009  0.00  0.00    -0.495 OA
ENDBRANCH   3  10
BRANCH   8  11
ATOM     11  C   UNL     1      -2.505   0.026   0.038  0.00  0.00    +0.268 C 
BRANCH  11  12
ATOM     12  O   UNL     1      -3.581  -0.914   0.049  0.00  0.00    -0.487 OA
BRANCH  12  13
ATOM     13  C   UNL     1      -4.843  -0.408   0.069  0.00  0.00    +0.121 A 
ATOM     14  C   UNL     1      -5.040   0.965   0.085  0.00  0.00    +0.047 A 
ATOM     15  C   UNL     1      -6.323   1.477   0.101  0.00  0.00    +0.023 A 
ATOM     16  C   UNL     1      -7.411   0.621   0.112  0.00  0.00    +0.041 A 
ATOM     17  C   UNL     1      -7.215  -0.749   0.102  0.00  0.00    +0.023 A 
ATOM     18  C   UNL     1      -5.934  -1.264   0.080  0.00  0.00    +0.047 A 
ATOM     19 CL   UNL     1      -9.022   1.267   0.139  0.00  0.00    -0.084 Cl
ENDBRANCH  12  13
ENDBRANCH  11  12
ENDBRANCH   8  11
ENDBRANCH   1   6
BRANCH   2  20
ATOM     20  N   UNL     1       1.212  -6.283  -0.045  0.00  0.00    -0.202 N 
ATOM     21  C   UNL     1       2.388  -6.941  -0.060  0.00  0.00    +0.283 C 
ATOM     22  O   UNL     1       3.432  -6.319  -0.067  0.00  0.00    -0.267 OA
ATOM     23  H   UNL     1       0.267  -6.846  -0.039  0.00  0.00    +0.178 HD
BRANCH  21  24
ATOM     24  C   UNL     1       2.408  -8.421  -0.069  0.00  0.00    +0.149 A 
ATOM     25  C   UNL     1       3.626  -9.094  -0.090  0.00  0.00    +0.094 A 
ATOM     26  C   UNL     1       3.628 -10.489  -0.092  0.00  0.00    +0.067 A 
ATOM     27  C   UNL     1       2.402 -11.152  -0.084  0.00  0.00    +0.100 A 
ATOM     28  C   UNL     1       1.231 -10.411  -0.068  0.00  0.00    +0.150 A 
ATOM     29  N   UNL     1       1.262  -9.095  -0.061  0.00  0.00    -0.228 NA
ATOM     30 CL   UNL     1      -0.299 -11.231  -0.058  0.00  0.00    -0.060 Cl
ATOM     31 CL   UNL     1       2.343 -12.887  -0.093  0.00  0.00    -0.078 Cl
ATOM     32 CL   UNL     1       5.121  -8.211  -0.106  0.00  0.00    -0.079 Cl
BRANCH  26  33
ATOM     33  N   UNL     1       4.825 -11.202  -0.107  0.00  0.00    -0.356 N 
ATOM     34  H   UNL     1       4.811 -12.302  -0.109  0.00  0.00    +0.142 HD
ATOM     35  H   UNL     1       5.785 -10.664  -0.119  0.00  0.00    +0.142 HD
ENDBRANCH  26  33
ENDBRANCH  21  24
ENDBRANCH   2  20
TORSDOF 8
