REMARK  Name = ZINC66199722
REMARK  11 active torsions:
REMARK  status: ('A' for Active; 'I' for Inactive)
REMARK    1  A    between atoms: C_1  and  C_2
REMARK    2  A    between atoms: C_7  and  N_8
REMARK    3  A    between atoms: N_8  and  C_9
REMARK    4  A    between atoms: C_9  and  N_11
REMARK    5  A    between atoms: C_12  and  C_14
REMARK    6  A    between atoms: C_14  and  C_16
REMARK    7  A    between atoms: C_14  and  C_17
REMARK    8  A    between atoms: C_20  and  C_23
REMARK    9  A    between atoms: C_23  and  C_24
REMARK   10  A    between atoms: C_24  and  C_25
REMARK   11  A    between atoms: C_24  and  C_26
REMARK                            x       y       z     vdW  Elec       q    Type
REMARK                         _______ _______ _______ _____ _____    ______ ____
ROOT
ATOM      1  N   UNL     1      -0.156  -0.025   4.744  0.00  0.00    -0.267 N 
ATOM      2  C   UNL     1      -0.237  -0.705   5.905  0.00  0.00    +0.226 C 
ATOM      3  O   UNL     1      -0.221  -1.917   5.901  0.00  0.00    -0.275 OA
ATOM      4  H   UNL     1      -0.169   0.944   4.748  0.00  0.00    +0.157 HD
ENDROOT
BRANCH   1   5
ATOM      5  C   UNL     1      -0.056  -0.694   3.578  0.00  0.00    +0.141 C 
ATOM      6  S   UNL     1      -0.033  -2.406   3.571  0.00  0.00    -0.018 S 
BRANCH   5   7
ATOM      7  N   UNL     1       0.025  -0.014   2.417  0.00  0.00    -0.296 N 
ATOM      8  H   UNL     1       0.075   0.954   2.424  0.00  0.00    +0.154 HD
BRANCH   7  15
ATOM      9  C   UNL     1      -1.704   0.883   0.343  0.00  0.00    +0.045 C 
ATOM     10  C   UNL     1      -0.790  -0.302   0.162  0.00  0.00    -0.029 A 
ATOM     11  C   UNL     1      -0.772  -0.983  -1.040  0.00  0.00    +0.006 A 
ATOM     12  C   UNL     1       0.065  -2.070  -1.207  0.00  0.00    +0.020 A 
ATOM     13  C   UNL     1       0.888  -2.480  -0.172  0.00  0.00    +0.043 A 
ATOM     14  C   UNL     1       0.874  -1.802   1.033  0.00  0.00    +0.043 A 
ATOM     15  C   UNL     1       0.037  -0.706   1.201  0.00  0.00    +0.037 A 
ATOM     16 CL   UNL     1       1.937  -3.846  -0.386  0.00  0.00    -0.083 Cl
ENDBRANCH   7  15
ENDBRANCH   5   7
ENDBRANCH   1   5
BRANCH   2  17
ATOM     17  C   UNL     1      -0.349   0.042   7.209  0.00  0.00    +0.102 C 
ATOM     18  C   UNL     1       0.879   0.938   7.390  0.00  0.00    +0.022 C 
BRANCH  17  19
ATOM     19  C   UNL     1      -0.424  -0.942   8.348  0.00  0.00    -0.036 A 
ATOM     20  C   UNL     1       0.613  -1.830   8.564  0.00  0.00    +0.004 A 
ATOM     21  C   UNL     1       0.544  -2.733   9.608  0.00  0.00    +0.004 A 
ATOM     22  C   UNL     1      -0.563  -2.748  10.436  0.00  0.00    -0.047 A 
ATOM     23  C   UNL     1      -1.600  -1.861  10.220  0.00  0.00    +0.004 A 
ATOM     24  C   UNL     1      -1.529  -0.954   9.179  0.00  0.00    +0.004 A 
BRANCH  22  25
ATOM     25  C   UNL     1      -0.639  -3.734  11.574  0.00  0.00    +0.038 C 
BRANCH  25  26
ATOM     26  C   UNL     1      -0.027  -3.111  12.830  0.00  0.00    -0.013 C 
ATOM     27  C   UNL     1      -0.874  -1.916  13.272  0.00  0.00    +0.007 C 
ATOM     28  C   UNL     1       0.009  -4.152  13.950  0.00  0.00    +0.007 C 
ENDBRANCH  25  26
ENDBRANCH  22  25
ENDBRANCH  17  19
ENDBRANCH   2  17
TORSDOF 7
