REMARK  Name = ZINC36508957
REMARK  19 active torsions:
REMARK  status: ('A' for Active; 'I' for Inactive)
REMARK    1  A    between atoms: C_1  and  C_2
REMARK    2  A    between atoms: C_2  and  C_3
REMARK    3  A    between atoms: C_3  and  C_4
REMARK    4  A    between atoms: C_4  and  C_5
REMARK    5  A    between atoms: C_5  and  C_6
REMARK    6  A    between atoms: C_6  and  N_7
REMARK    7  A    between atoms: N_7  and  C_8
REMARK    8  A    between atoms: C_8  and  C_10
REMARK    9  A    between atoms: C_8  and  C_22
REMARK   10  A    between atoms: C_19  and  O_20
REMARK   11  A    between atoms: O_20  and  C_21
REMARK   12  A    between atoms: N_24  and  C_25
REMARK   13  A    between atoms: C_25  and  C_26
REMARK   14  A    between atoms: C_25  and  C_27
REMARK   15  A    between atoms: C_25  and  C_28
REMARK   16  A    between atoms: C_29  and  C_31
REMARK   17  A    between atoms: C_31  and  C_33
REMARK   18  A    between atoms: C_31  and  O_39
REMARK   19  A    between atoms: O_39  and  C_40
REMARK                            x       y       z     vdW  Elec       q    Type
REMARK                         _______ _______ _______ _____ _____    ______ ____
ROOT
ATOM      1  C   UNL     1      -5.407  -5.457  -1.735  0.00  0.00    +0.196 C 
ENDROOT
BRANCH   1   2
ATOM      2  C   UNL     1      -5.958  -6.851  -1.576  0.00  0.00    +0.031 A 
ATOM      3  C   UNL     1      -5.257  -7.951  -2.097  0.00  0.00    -0.009 A 
ATOM      4  C   UNL     1      -4.036  -7.784  -2.772  0.00  0.00    +0.009 A 
ATOM      5  C   UNL     1      -3.384  -8.872  -3.263  0.00  0.00    +0.001 A 
ATOM      6  C   UNL     1      -3.909 -10.154  -3.107  0.00  0.00    +0.001 A 
ATOM      7  C   UNL     1      -5.088 -10.354  -2.459  0.00  0.00    +0.008 A 
ATOM      8  C   UNL     1      -5.791  -9.254  -1.938  0.00  0.00    -0.017 A 
ATOM      9  C   UNL     1      -7.012  -9.424  -1.262  0.00  0.00    +0.012 A 
ATOM     10  C   UNL     1      -7.667  -8.338  -0.770  0.00  0.00    +0.046 A 
ATOM     11  C   UNL     1      -7.140  -7.051  -0.921  0.00  0.00    +0.126 A 
BRANCH  11  12
ATOM     12  O   UNL     1      -7.814  -5.987  -0.413  0.00  0.00    -0.495 OA
ATOM     13  C   UNL     1      -9.116  -6.238   0.120  0.00  0.00    +0.277 C 
ENDBRANCH  11  12
ENDBRANCH   1   2
BRANCH   1  14
ATOM     14  C   UNL     1      -5.998  -4.560  -0.678  0.00  0.00    +0.239 C 
ATOM     15  O   UNL     1      -5.354  -4.282   0.311  0.00  0.00    -0.273 OA
ATOM     16  N   UNL     1      -7.243  -4.066  -0.832  0.00  0.00    -0.309 N 
ATOM     17  H   UNL     1      -7.781  -4.337  -1.592  0.00  0.00    +0.149 HD
BRANCH  16  18
ATOM     18  C   UNL     1      -7.782  -3.119   0.147  0.00  0.00    +0.026 C 
ATOM     19  C   UNL     1      -6.903  -1.867   0.183  0.00  0.00    +0.031 C 
ATOM     20  C   UNL     1      -9.207  -2.731  -0.250  0.00  0.00    +0.031 C 
ATOM     21  C   UNL     1      -7.797  -3.771   1.531  0.00  0.00    +0.031 C 
ENDBRANCH  16  18
ENDBRANCH   1  14
BRANCH   1  22
ATOM     22  N   UNL     1      -3.950  -5.489  -1.589  0.00  0.00    -0.283 N 
ATOM     23  C   UNL     1      -3.394  -6.043  -0.494  0.00  0.00    +0.250 C 
ATOM     24  O   UNL     1      -4.094  -6.602   0.324  0.00  0.00    -0.272 OA
BRANCH  22  25
ATOM     25  C   UNL     1      -3.096  -4.918  -2.634  0.00  0.00    +0.109 C 
BRANCH  25  26
ATOM     26  C   UNL     1      -2.898  -3.424  -2.371  0.00  0.00    +0.019 C 
BRANCH  26  27
ATOM     27  C   UNL     1      -2.007  -2.827  -3.462  0.00  0.00    +0.002 C 
BRANCH  27  28
ATOM     28  C   UNL     1      -1.809  -1.333  -3.199  0.00  0.00    -0.000 C 
BRANCH  28  30
ATOM     29  C   UNL     1      -0.720   0.758  -4.027  0.00  0.00    +0.004 C 
ATOM     30  C   UNL     1      -0.918  -0.737  -4.290  0.00  0.00    -0.003 C 
ENDBRANCH  28  30
ENDBRANCH  27  28
ENDBRANCH  26  27
ENDBRANCH  25  26
ENDBRANCH  22  25
BRANCH  23  31
ATOM     31  C   UNL     1      -1.903  -5.970  -0.286  0.00  0.00    +0.233 C 
BRANCH  31  32
ATOM     32  C   UNL     1      -1.235  -7.089  -1.042  0.00  0.00    -0.010 A 
ATOM     33  C   UNL     1      -1.445  -8.402  -0.663  0.00  0.00    +0.006 A 
ATOM     34  C   UNL     1      -0.832  -9.428  -1.357  0.00  0.00    +0.000 A 
ATOM     35  C   UNL     1      -0.008  -9.142  -2.430  0.00  0.00    +0.000 A 
ATOM     36  C   UNL     1       0.201  -7.829  -2.810  0.00  0.00    +0.000 A 
ATOM     37  C   UNL     1      -0.415  -6.803  -2.118  0.00  0.00    +0.006 A 
ENDBRANCH  31  32
BRANCH  31  38
ATOM     38  O   UNL     1      -1.610  -6.095   1.107  0.00  0.00    -0.366 OA
ATOM     39  C   UNL     1      -1.573  -4.850   1.807  0.00  0.00    +0.195 C 
ENDBRANCH  31  38
ENDBRANCH  23  31
ENDBRANCH   1  22
TORSDOF 13
