REMARK  Name = ZINC31865676
REMARK  7 active torsions:
REMARK  status: ('A' for Active; 'I' for Inactive)
REMARK    1  A    between atoms: C_1  and  C_2
REMARK    2  A    between atoms: C_6  and  C_11
REMARK    3  A    between atoms: N_7  and  C_10
REMARK    4  A    between atoms: C_13  and  C_14
REMARK    5  A    between atoms: C_18  and  C_27
REMARK    6  A    between atoms: C_23  and  C_25
REMARK    7  A    between atoms: C_23  and  C_26
REMARK                            x       y       z     vdW  Elec       q    Type
REMARK                         _______ _______ _______ _____ _____    ______ ____
ROOT
ATOM      1  C   UNL     1      -0.018   1.503   0.010  0.00  0.00    +0.046 C 
ATOM      2  C   UNL     1       0.002  -0.004   0.002  0.00  0.00    -0.017 A 
ATOM      3  C   UNL     1       0.005  -0.697  -1.210  0.00  0.00    +0.076 A 
ATOM      4  C   UNL     1       0.025  -2.107  -1.113  0.00  0.00    +0.116 A 
ATOM      5  N   UNL     1       0.029  -2.884  -2.189  0.00  0.00    -0.227 NA
ATOM      6  C   UNL     1       0.015  -2.382  -3.395  0.00  0.00    +0.110 A 
ATOM      7  N   UNL     1      -0.004  -1.044  -3.614  0.00  0.00    -0.299 N 
ATOM      8  C   UNL     1      -0.009  -0.166  -2.592  0.00  0.00    +0.262 A 
ATOM      9  O   UNL     1      -0.027   1.034  -2.800  0.00  0.00    -0.267 OA
ATOM     10  C   UNL     1      -0.018  -0.543  -4.991  0.00  0.00    +0.153 C 
ATOM     11  C   UNL     1       0.022  -3.317  -4.576  0.00  0.00    +0.086 C 
ATOM     12  S   UNL     1       0.038  -2.395   0.638  0.00  0.00    -0.064 S 
ATOM     13  C   UNL     1       0.023  -0.694   1.179  0.00  0.00    +0.080 A 
ENDROOT
BRANCH  13  14
ATOM     14  C   UNL     1       0.030  -0.168   2.547  0.00  0.00    +0.254 C 
ATOM     15  O   UNL     1       0.015   1.034   2.738  0.00  0.00    -0.269 OA
ATOM     16  N   UNL     1       0.051  -1.017   3.595  0.00  0.00    -0.293 N 
ATOM     17  C   UNL     1       0.084  -2.485   3.513  0.00  0.00    +0.115 C 
ATOM     18  C   UNL     1       0.043  -3.004   4.969  0.00  0.00    -0.014 C 
ATOM     19  C   UNL     1       0.708  -1.839   5.750  0.00  0.00    +0.030 C 
ATOM     20  C   UNL     1       0.060  -0.635   5.022  0.00  0.00    +0.077 C 
ATOM     21  C   UNL     1      -1.378  -0.524   5.520  0.00  0.00    +0.029 C 
ATOM     22  C   UNL     1      -2.189  -1.795   5.343  0.00  0.00    -0.033 C 
ATOM     23  C   UNL     1      -1.412  -3.094   5.425  0.00  0.00    +0.014 C 
ATOM     24  C   UNL     1      -2.969  -1.731   4.021  0.00  0.00    +0.011 C 
ATOM     25  C   UNL     1      -3.249  -1.821   6.473  0.00  0.00    +0.011 C 
ATOM     26  C   UNL     1       0.801  -4.330   5.137  0.00  0.00    +0.013 C 
ENDBRANCH  13  14
TORSDOF 1
