REMARK  Name = ZINC39710772
REMARK  13 active torsions:
REMARK  status: ('A' for Active; 'I' for Inactive)
REMARK    1  A    between atoms: C_1  and  C_2
REMARK    2  A    between atoms: C_7  and  C_15
REMARK    3  A    between atoms: C_13  and  C_14
REMARK    4  A    between atoms: C_15  and  C_17
REMARK    5  A    between atoms: C_15  and  N_27
REMARK    6  A    between atoms: N_22  and  C_23
REMARK    7  A    between atoms: C_23  and  C_24
REMARK    8  A    between atoms: C_23  and  C_25
REMARK    9  A    between atoms: C_23  and  C_26
REMARK   10  A    between atoms: N_27  and  C_28
REMARK   11  A    between atoms: N_27  and  C_36
REMARK   12  A    between atoms: C_28  and  C_29
REMARK   13  A    between atoms: C_36  and  C_37
REMARK                            x       y       z     vdW  Elec       q    Type
REMARK                         _______ _______ _______ _____ _____    ______ ____
ROOT
ATOM      1  C   UNL     1       1.299  -5.705   1.584  0.00  0.00    -0.008 C 
ENDROOT
BRANCH   1   8
ATOM      2  C   UNL     1       1.202   1.566  -0.238  0.00  0.00    +0.044 C 
ATOM      3  C   UNL     1       1.026   0.070  -0.182  0.00  0.00    -0.046 A 
ATOM      4  C   UNL     1       1.184  -0.666  -1.356  0.00  0.00    +0.004 A 
ATOM      5  C   UNL     1       1.038  -2.016  -1.369  0.00  0.00    +0.010 A 
ATOM      6  C   UNL     1       0.708  -2.702  -0.119  0.00  0.00    -0.007 A 
ATOM      7  C   UNL     1       0.552  -4.056  -0.085  0.00  0.00    -0.006 C 
ATOM      8  C   UNL     1       0.210  -4.682   1.254  0.00  0.00    +0.088 C 
ATOM      9  C   UNL     1       0.071  -3.755   2.440  0.00  0.00    +0.223 C 
ATOM     10  O   UNL     1      -0.201  -4.204   3.537  0.00  0.00    -0.275 OA
ATOM     11  N   UNL     1       0.247  -2.454   2.279  0.00  0.00    -0.284 N 
ATOM     12  C   UNL     1       0.547  -1.899   1.105  0.00  0.00    +0.043 A 
ATOM     13  C   UNL     1       0.725  -0.507   1.010  0.00  0.00    -0.026 A 
ATOM     14  C   UNL     1       0.574   0.352   2.240  0.00  0.00    +0.046 C 
ATOM     15  H   UNL     1       0.153  -1.876   3.053  0.00  0.00    +0.155 HD
ENDBRANCH   1   8
BRANCH   1  16
ATOM     16  C   UNL     1       1.213  -6.876   0.603  0.00  0.00    +0.205 C 
ATOM     17  N   UNL     1       2.393  -7.742   0.733  0.00  0.00    -0.152 NA
ATOM     18  N   UNL     1       2.999  -7.755  -0.341  0.00  0.00    -0.070 NA
ATOM     19  N   UNL     1       2.390  -6.966  -1.317  0.00  0.00    -0.179 N 
ATOM     20  N   UNL     1       1.262  -6.386  -0.791  0.00  0.00    -0.183 NA
ATOM     21  H   UNL     1       2.713  -6.846  -2.224  0.00  0.00    +0.191 HD
BRANCH  20  22
ATOM     22  C   UNL     1       0.063  -6.793  -1.535  0.00  0.00    +0.035 C 
ATOM     23  C   UNL     1      -1.186  -6.347  -0.772  0.00  0.00    +0.029 C 
ATOM     24  C   UNL     1       0.075  -6.140  -2.918  0.00  0.00    +0.029 C 
ATOM     25  C   UNL     1       0.050  -8.315  -1.689  0.00  0.00    +0.029 C 
ENDBRANCH  20  22
ENDBRANCH   1  16
BRANCH   1  26
ATOM     26  N   UNL     1       1.106  -6.200   2.954  0.00  0.00    +0.392 N 
ATOM     27  H   UNL     1       1.116  -5.422   3.597  0.00  0.00    -0.080 HD
BRANCH  26  28
ATOM     28  C   UNL     1      -0.184  -6.896   3.046  0.00  0.00    -0.042 C 
BRANCH  28  29
ATOM     29  C   UNL     1      -0.446  -7.281   4.480  0.00  0.00    -0.064 A 
ATOM     30  C   UNL     1      -0.009  -8.502   4.958  0.00  0.00    +0.003 A 
ATOM     31  C   UNL     1      -0.248  -8.855   6.273  0.00  0.00    +0.020 A 
ATOM     32  C   UNL     1      -0.926  -7.986   7.110  0.00  0.00    +0.041 A 
ATOM     33  C   UNL     1      -1.363  -6.764   6.630  0.00  0.00    +0.020 A 
ATOM     34  C   UNL     1      -1.118  -6.410   5.317  0.00  0.00    +0.003 A 
ATOM     35 CL   UNL     1      -1.228  -8.429   8.761  0.00  0.00    -0.084 Cl
ENDBRANCH  28  29
ENDBRANCH  26  28
BRANCH  26  36
ATOM     36  C   UNL     1       2.190  -7.131   3.295  0.00  0.00    -0.002 C 
BRANCH  36  37
ATOM     37  C   UNL     1       3.507  -6.398   3.273  0.00  0.00    +0.089 A 
ATOM     38  C   UNL     1       4.119  -5.848   4.337  0.00  0.00    +0.042 A 
ATOM     39  C   UNL     1       5.319  -5.268   3.865  0.00  0.00    +0.041 A 
ATOM     40  C   UNL     1       5.369  -5.499   2.541  0.00  0.00    +0.195 A 
ATOM     41  O   UNL     1       4.271  -6.189   2.189  0.00  0.00    -0.470 OA
ENDBRANCH  36  37
ENDBRANCH  26  36
ENDBRANCH   1  26
TORSDOF 8
