REMARK  Name = ZINC10186587
REMARK  5 active torsions:
REMARK  status: ('A' for Active; 'I' for Inactive)
REMARK    1  A    between atoms: C_1  and  C_2
REMARK    2  A    between atoms: N_12  and  C_13
REMARK    3  A    between atoms: C_17  and  N_19
REMARK    4  A    between atoms: N_19  and  S_20
REMARK    5  A    between atoms: S_20  and  C_23
REMARK                            x       y       z     vdW  Elec       q    Type
REMARK                         _______ _______ _______ _____ _____    ______ ____
ROOT
ATOM      1  C   UNL     1      -0.333   5.378  -1.522  0.00  0.00    +0.053 A 
ATOM      2  C   UNL     1      -1.704   5.489  -1.330  0.00  0.00    +0.029 A 
ATOM      3  C   UNL     1      -2.536   4.435  -1.653  0.00  0.00    +0.042 A 
ATOM      4  C   UNL     1      -2.008   3.267  -2.173  0.00  0.00    +0.146 A 
ATOM      5  C   UNL     1      -0.635   3.148  -2.362  0.00  0.00    +0.085 A 
ATOM      6  C   UNL     1       0.202   4.207  -2.039  0.00  0.00    +0.053 A 
ATOM      7  F   UNL     1      -2.825   2.240  -2.493  0.00  0.00    -0.204 F 
ENDROOT
BRANCH   1  19
ATOM      8  C   UNL     1       0.076   7.321  -3.458  0.00  0.00    +0.086 C 
ATOM      9  C   UNL     1       0.742   7.428  -2.111  0.00  0.00    +0.114 A 
ATOM     10  N   UNL     1       1.506   8.453  -1.881  0.00  0.00    -0.233 NA
ATOM     11  C   UNL     1       2.143   8.613  -0.694  0.00  0.00    +0.078 A 
ATOM     12  C   UNL     1       2.968   9.713  -0.448  0.00  0.00    +0.028 A 
ATOM     13  C   UNL     1       3.596   9.835   0.770  0.00  0.00    +0.002 A 
ATOM     14  C   UNL     1       3.419   8.879   1.762  0.00  0.00    +0.001 A 
ATOM     15  C   UNL     1       2.609   7.785   1.544  0.00  0.00    +0.015 A 
ATOM     16  C   UNL     1       1.965   7.642   0.316  0.00  0.00    +0.065 A 
ATOM     17  C   UNL     1       1.090   6.497   0.027  0.00  0.00    +0.266 A 
ATOM     18  O   UNL     1       0.895   5.625   0.854  0.00  0.00    -0.267 OA
ATOM     19  N   UNL     1       0.510   6.449  -1.195  0.00  0.00    -0.265 N 
ENDBRANCH   1  19
BRANCH   5  20
ATOM     20  N   UNL     1      -0.099   1.966  -2.883  0.00  0.00    -0.213 N 
ATOM     21  H   UNL     1      -0.589   1.467  -3.555  0.00  0.00    +0.174 HD
BRANCH  20  22
ATOM     22  S   UNL     1       1.372   1.420  -2.354  0.00  0.00    +0.079 S 
ATOM     23  O   UNL     1       1.572   0.147  -2.954  0.00  0.00    -0.149 OA
ATOM     24  O   UNL     1       2.288   2.493  -2.521  0.00  0.00    -0.149 OA
BRANCH  22  25
ATOM     25  C   UNL     1       1.231   1.142  -0.620  0.00  0.00    +0.146 A 
ATOM     26  C   UNL     1       0.860   0.016   0.037  0.00  0.00    +0.036 A 
ATOM     27  C   UNL     1       0.821   0.028   1.419  0.00  0.00    +0.010 A 
ATOM     28  C   UNL     1       1.155   1.165   2.076  0.00  0.00    +0.047 A 
ATOM     29  S   UNL     1       1.547   2.269   0.729  0.00  0.00    -0.077 S 
ENDBRANCH  22  25
ENDBRANCH  20  22
ENDBRANCH   5  20
TORSDOF 4
