REMARK  Name = ZINC64109240
REMARK  9 active torsions:
REMARK  status: ('A' for Active; 'I' for Inactive)
REMARK    1  A    between atoms: C_1  and  C_2
REMARK    2  A    between atoms: C_4  and  C_33
REMARK    3  A    between atoms: C_8  and  C_12
REMARK    4  A    between atoms: C_12  and  S_13
REMARK    5  A    between atoms: S_13  and  C_14
REMARK    6  A    between atoms: C_14  and  C_16
REMARK    7  A    between atoms: C_14  and  C_17
REMARK    8  A    between atoms: N_19  and  C_20
REMARK    9  A    between atoms: C_23  and  N_27
REMARK                            x       y       z     vdW  Elec       q    Type
REMARK                         _______ _______ _______ _____ _____    ______ ____
ROOT
ATOM      1  C   UNL     1       7.554  -5.057  -0.578  0.00  0.00    +0.130 C 
ATOM      2  C   UNL     1       7.040  -6.271   0.198  0.00  0.00    +0.029 C 
ENDROOT
BRANCH   1   3
ATOM      3  C   UNL     1       8.437  -5.520  -1.709  0.00  0.00    +0.230 C 
ATOM      4  O   UNL     1       7.995  -5.582  -2.837  0.00  0.00    -0.274 OA
ATOM      5  N   UNL     1       9.717  -5.865  -1.466  0.00  0.00    -0.285 N 
ATOM      6  H   UNL     1      10.089  -5.752  -0.578  0.00  0.00    +0.155 HD
BRANCH   5   7
ATOM      7  C   UNL     1      10.508  -6.387  -2.497  0.00  0.00    +0.036 A 
ATOM      8  C   UNL     1      11.451  -7.369  -2.219  0.00  0.00    +0.025 A 
ATOM      9  C   UNL     1      12.231  -7.884  -3.234  0.00  0.00    +0.032 A 
ATOM     10  C   UNL     1      12.075  -7.422  -4.534  0.00  0.00    +0.102 A 
ATOM     11  C   UNL     1      11.132  -6.439  -4.813  0.00  0.00    +0.150 A 
ATOM     12  C   UNL     1      10.346  -5.927  -3.797  0.00  0.00    +0.063 A 
ATOM     13  F   UNL     1      10.979  -5.989  -6.077  0.00  0.00    -0.203 F 
BRANCH  10  14
ATOM     14  N   UNL     1      12.869  -7.945  -5.565  0.00  0.00    -0.218 N 
ATOM     15  C   UNL     1      12.838  -7.596  -6.865  0.00  0.00    +0.225 A 
ATOM     16  N   UNL     1      13.730  -8.313  -7.500  0.00  0.00    -0.222 NA
ATOM     17  C   UNL     1      14.348  -9.126  -6.644  0.00  0.00    +0.245 A 
ATOM     18  N   UNL     1      13.860  -8.934  -5.446  0.00  0.00    -0.153 NA
ENDBRANCH  10  14
ENDBRANCH   5   7
ENDBRANCH   1   3
BRANCH   1  19
ATOM     19  S   UNL     1       6.148  -4.128  -1.250  0.00  0.00    -0.141 S 
BRANCH  19  20
ATOM     20  C   UNL     1       5.280  -3.519   0.222  0.00  0.00    +0.143 C 
BRANCH  20  27
ATOM     21  C   UNL     1      -0.016   1.536  -0.021  0.00  0.00    +0.024 C 
ATOM     22  C   UNL     1       0.005   0.006  -0.018  0.00  0.00    +0.076 C 
ATOM     23  C   UNL     1       0.770  -0.527  -1.208  0.00  0.00    -0.045 C 
ATOM     24  C   UNL     1       1.869  -1.258  -0.968  0.00  0.00    +0.071 C 
ATOM     25  C   UNL     1       2.247  -1.484   0.443  0.00  0.00    +0.111 C 
ATOM     26  N   UNL     1       3.311  -2.191   0.742  0.00  0.00    -0.227 NA
ATOM     27  C   UNL     1       4.074  -2.720  -0.201  0.00  0.00    +0.133 C 
ATOM     28  N   UNL     1       3.837  -2.585  -1.483  0.00  0.00    -0.161 NA
ATOM     29  C   UNL     1       2.794  -1.895  -1.958  0.00  0.00    +0.271 C 
ATOM     30  O   UNL     1       2.603  -1.790  -3.158  0.00  0.00    -0.268 OA
ATOM     31  S   UNL     1       1.004  -0.636   1.386  0.00  0.00    -0.098 S 
ATOM     32  C   UNL     1       0.312  -0.248  -2.617  0.00  0.00    +0.041 C 
ENDBRANCH  20  27
ENDBRANCH  19  20
ENDBRANCH   1  19
TORSDOF 6
