REMARK  Name = ZINC16008965
REMARK  6 active torsions:
REMARK  status: ('A' for Active; 'I' for Inactive)
REMARK    1  A    between atoms: C_3  and  O_8
REMARK    2  A    between atoms: O_8  and  C_9
REMARK    3  A    between atoms: C_9  and  C_10
REMARK    4  A    between atoms: C_10  and  C_11
REMARK    5  A    between atoms: C_11  and  C_12
REMARK    6  A    between atoms: N_14  and  C_15
REMARK                            x       y       z     vdW  Elec       q    Type
REMARK                         _______ _______ _______ _____ _____    ______ ____
ROOT
ATOM      1  C   UNL     1      -7.278   0.760   0.048  0.00  0.00    +0.217 C 
ATOM      2  O   UNL     1      -7.105  -0.441   0.037  0.00  0.00    -0.275 OA
ATOM      3  N   UNL     1      -8.530   1.260   0.051  0.00  0.00    -0.284 N 
ATOM      4  H   UNL     1      -8.669   2.217   0.125  0.00  0.00    +0.155 HD
ENDROOT
BRANCH   3   5
ATOM      5  C   UNL     1      -9.629   0.398  -0.054  0.00  0.00    +0.051 A 
ATOM      6  C   UNL     1      -9.583  -0.860   0.531  0.00  0.00    +0.073 A 
ATOM      7  C   UNL     1     -10.671  -1.713   0.428  0.00  0.00    +0.164 A 
ATOM      8  C   UNL     1     -11.808  -1.306  -0.261  0.00  0.00    +0.163 A 
ATOM      9  C   UNL     1     -11.851  -0.049  -0.845  0.00  0.00    +0.066 A 
ATOM     10  C   UNL     1     -10.768   0.803  -0.738  0.00  0.00    +0.043 A 
ATOM     11 BR   UNL     1     -10.834   2.519  -1.530  0.00  0.00    -0.048 Br
ATOM     12  O   UNL     1     -12.888  -2.129  -0.369  0.00  0.00    -0.485 OA
ATOM     13  C   UNL     1     -12.670  -3.517  -0.095  0.00  0.00    +0.270 C 
ATOM     14  C   UNL     1     -11.852  -3.629   1.198  0.00  0.00    +0.270 C 
ATOM     15  O   UNL     1     -10.609  -2.946   1.003  0.00  0.00    -0.485 OA
ENDBRANCH   3   5
BRANCH   1  16
ATOM     16  C   UNL     1      -6.094   1.692   0.058  0.00  0.00    +0.099 C 
BRANCH  16  17
ATOM     17  C   UNL     1      -4.801   0.874   0.052  0.00  0.00    +0.050 C 
BRANCH  17  18
ATOM     18  C   UNL     1      -3.599   1.821   0.063  0.00  0.00    +0.229 C 
BRANCH  18  19
ATOM     19  O   UNL     1      -2.391   1.057   0.057  0.00  0.00    -0.492 OA
BRANCH  19  22
ATOM     20  C   UNL     1       1.175   1.779   0.063  0.00  0.00    +0.005 A 
ATOM     21  C   UNL     1      -0.013   1.072   0.060  0.00  0.00    +0.046 A 
ATOM     22  C   UNL     1      -1.223   1.750   0.065  0.00  0.00    +0.122 A 
ATOM     23  C   UNL     1      -1.238   3.138   0.083  0.00  0.00    +0.061 A 
ATOM     24  C   UNL     1      -0.048   3.841   0.086  0.00  0.00    +0.021 A 
ATOM     25  C   UNL     1       1.157   3.162   0.076  0.00  0.00    +0.015 A 
ATOM     26 BR   UNL     1      -0.068   5.731   0.103  0.00  0.00    -0.050 Br
ENDBRANCH  19  22
ENDBRANCH  18  19
ENDBRANCH  17  18
ENDBRANCH  16  17
ENDBRANCH   1  16
TORSDOF 6
