REMARK  Name = ZINC17041330
REMARK  7 active torsions:
REMARK  status: ('A' for Active; 'I' for Inactive)
REMARK    1  A    between atoms: C_1  and  C_2
REMARK    2  A    between atoms: C_5  and  C_8
REMARK    3  A    between atoms: C_8  and  N_9
REMARK    4  A    between atoms: C_10  and  C_12
REMARK    5  A    between atoms: C_12  and  O_13
REMARK    6  A    between atoms: O_13  and  C_14
REMARK    7  A    between atoms: C_27  and  C_30
REMARK                            x       y       z     vdW  Elec       q    Type
REMARK                         _______ _______ _______ _____ _____    ______ ____
ROOT
ATOM      1  C   UNL     1       1.246  -6.527  -4.300  0.00  0.00    +0.147 A 
ATOM      2  C   UNL     1       1.224  -5.777  -5.454  0.00  0.00    +0.048 A 
ATOM      3  C   UNL     1       1.220  -6.390  -6.703  0.00  0.00    +0.004 A 
ATOM      4  C   UNL     1       1.237  -7.747  -6.817  0.00  0.00    +0.010 A 
ATOM      5  C   UNL     1       1.260  -8.545  -5.663  0.00  0.00    +0.004 A 
ATOM      6  C   UNL     1       1.270  -7.934  -4.386  0.00  0.00    +0.115 A 
ATOM      7  N   UNL     1       1.286  -8.690  -3.283  0.00  0.00    -0.228 NA
ATOM      8  C   UNL     1       1.304 -10.005  -3.357  0.00  0.00    +0.122 A 
ATOM      9  C   UNL     1       1.301 -10.671  -4.591  0.00  0.00    +0.044 A 
ATOM     10  C   UNL     1       1.279  -9.953  -5.749  0.00  0.00    +0.013 A 
ATOM     11  N   UNL     1       1.327 -10.749  -2.186  0.00  0.00    -0.315 N 
ATOM     12  C   UNL     1       0.206 -11.698  -2.143  0.00  0.00    +0.107 C 
ATOM     13  C   UNL     1       0.344 -12.598  -0.913  0.00  0.00    +0.031 C 
ATOM     14  C   UNL     1       0.352 -11.731   0.349  0.00  0.00    +0.078 C 
ATOM     15  C   UNL     1       1.498 -10.720   0.258  0.00  0.00    +0.031 C 
ATOM     16  C   UNL     1       1.327  -9.874  -1.006  0.00  0.00    +0.107 C 
ENDROOT
BRANCH  14  17
ATOM     17  C   UNL     1       0.547 -12.605   1.561  0.00  0.00    +0.214 C 
ATOM     18  O   UNL     1       1.508 -12.438   2.281  0.00  0.00    -0.276 OA
ATOM     19  N   UNL     1      -0.347 -13.574   1.843  0.00  0.00    -0.329 N 
ATOM     20  H   UNL     1      -1.115 -13.708   1.267  0.00  0.00    +0.145 HD
ATOM     21  H   UNL     1      -0.221 -14.137   2.623  0.00  0.00    +0.145 HD
ENDBRANCH  14  17
BRANCH   1  22
ATOM     22  O   UNL     1       1.249  -5.916  -3.087  0.00  0.00    -0.481 OA
BRANCH  22  23
ATOM     23  C   UNL     1       1.230  -4.487  -3.080  0.00  0.00    +0.324 C 
BRANCH  23  25
ATOM     24  N   UNL     1       1.222  -2.667  -1.404  0.00  0.00    -0.308 N 
ATOM     25  C   UNL     1       1.237  -3.991  -1.657  0.00  0.00    +0.251 C 
ATOM     26  O   UNL     1       1.257  -4.784  -0.739  0.00  0.00    -0.272 OA
ATOM     27  H   UNL     1       1.206  -2.034  -2.138  0.00  0.00    +0.149 HD
BRANCH  24  28
ATOM     28  C   UNL     1       1.229  -2.186  -0.021  0.00  0.00    +0.139 C 
BRANCH  28  33
ATOM     29  C   UNL     1       1.151   3.592   0.010  0.00  0.00    +0.044 C 
ATOM     30  C   UNL     1       1.171   2.086   0.002  0.00  0.00    -0.050 A 
ATOM     31  C   UNL     1      -0.017   1.378   0.010  0.00  0.00    +0.003 A 
ATOM     32  C   UNL     1       0.002  -0.004   0.002  0.00  0.00    +0.005 A 
ATOM     33  C   UNL     1       1.208  -0.679  -0.013  0.00  0.00    -0.030 A 
ATOM     34  C   UNL     1       2.396   0.029  -0.021  0.00  0.00    +0.005 A 
ATOM     35  C   UNL     1       2.377   1.411  -0.015  0.00  0.00    +0.003 A 
ENDBRANCH  28  33
ENDBRANCH  24  28
ENDBRANCH  23  25
ENDBRANCH  22  23
ENDBRANCH   1  22
TORSDOF 6
