REMARK  Name = ZINC04177278
REMARK  8 active torsions:
REMARK  status: ('A' for Active; 'I' for Inactive)
REMARK    1  A    between atoms: C_1  and  C_2
REMARK    2  A    between atoms: C_5  and  C_8
REMARK    3  A    between atoms: C_8  and  O_9
REMARK    4  A    between atoms: O_9  and  C_10
REMARK    5  A    between atoms: C_13  and  C_16
REMARK    6  A    between atoms: C_21  and  O_30
REMARK    7  A    between atoms: C_25  and  N_29
REMARK    8  A    between atoms: C_26  and  C_27
REMARK                            x       y       z     vdW  Elec       q    Type
REMARK                         _______ _______ _______ _____ _____    ______ ____
ROOT
ATOM      1  C   UNL     1       2.490   1.045  -0.016  0.00  0.00    +0.098 C 
ATOM      2  C   UNL     1       3.284   1.414   1.209  0.00  0.00    +0.008 A 
ATOM      3  C   UNL     1       2.944   0.863   2.432  0.00  0.00    +0.012 A 
ATOM      4  C   UNL     1       3.662   1.189   3.565  0.00  0.00    +0.046 A 
ATOM      5  C   UNL     1       4.728   2.074   3.481  0.00  0.00    +0.120 A 
ATOM      6  C   UNL     1       5.071   2.627   2.258  0.00  0.00    +0.092 A 
ATOM      7  C   UNL     1       4.348   2.298   1.119  0.00  0.00    +0.138 A 
ATOM      8  O   UNL     1       4.696   2.849  -0.070  0.00  0.00    -0.441 OA
ATOM      9  C   UNL     1       4.292   2.277  -1.217  0.00  0.00    +0.199 C 
ATOM     10  C   UNL     1       3.251   1.412  -1.259  0.00  0.00    +0.098 C 
ENDROOT
BRANCH   1  14
ATOM     11  C   UNL     1      -1.237   3.137   0.031  0.00  0.00    +0.121 A 
ATOM     12  C   UNL     1      -1.218   1.750   0.017  0.00  0.00    +0.046 A 
ATOM     13  C   UNL     1      -0.013   1.076   0.008  0.00  0.00    +0.008 A 
ATOM     14  C   UNL     1       1.176   1.783   0.000  0.00  0.00    -0.034 A 
ATOM     15  C   UNL     1       1.160   3.165   0.008  0.00  0.00    +0.008 A 
ATOM     16  C   UNL     1      -0.043   3.844   0.024  0.00  0.00    +0.046 A 
BRANCH  11  17
ATOM     17  O   UNL     1      -2.422   3.802   0.045  0.00  0.00    -0.487 OA
BRANCH  17  18
ATOM     18  C   UNL     1      -3.611   3.009   0.052  0.00  0.00    +0.264 C 
BRANCH  18  23
ATOM     19  C   UNL     1      -8.235   6.473   0.113  0.00  0.00    +0.044 C 
ATOM     20  C   UNL     1      -7.029   5.570   0.097  0.00  0.00    -0.050 A 
ATOM     21  C   UNL     1      -6.487   5.162  -1.107  0.00  0.00    +0.004 A 
ATOM     22  C   UNL     1      -5.381   4.333  -1.122  0.00  0.00    +0.007 A 
ATOM     23  C   UNL     1      -4.817   3.913   0.068  0.00  0.00    -0.010 A 
ATOM     24  C   UNL     1      -5.362   4.316   1.272  0.00  0.00    +0.007 A 
ATOM     25  C   UNL     1      -6.466   5.148   1.287  0.00  0.00    +0.004 A 
ENDBRANCH  18  23
ENDBRANCH  17  18
ENDBRANCH  11  17
ENDBRANCH   1  14
BRANCH   9  26
ATOM     26  N   UNL     1       4.954   2.579  -2.381  0.00  0.00    -0.328 N 
ATOM     27  H   UNL     1       5.701   3.197  -2.368  0.00  0.00    +0.145 HD
ATOM     28  H   UNL     1       4.674   2.175  -3.217  0.00  0.00    +0.145 HD
ENDBRANCH   9  26
BRANCH  10  29
ATOM     29  C   UNL     1       2.868   0.835  -2.512  0.00  0.00    +0.101 C 
ATOM     30  N   UNL     1       2.564   0.377  -3.506  0.00  0.00    -0.191 NA
ENDBRANCH  10  29
BRANCH   5  31
ATOM     31  O   UNL     1       5.436   2.395   4.596  0.00  0.00    -0.507 OA
ATOM     32  H   UNL     1       6.188   1.813   4.766  0.00  0.00    +0.292 HD
ENDBRANCH   5  31
TORSDOF 7
