REMARK  Name = ZINC05891894
REMARK  9 active torsions:
REMARK  status: ('A' for Active; 'I' for Inactive)
REMARK    1  A    between atoms: C_1  and  C_2
REMARK    2  A    between atoms: C_2  and  C_22
REMARK    3  A    between atoms: N_3  and  N_4
REMARK    4  A    between atoms: C_5  and  C_7
REMARK    5  A    between atoms: C_7  and  S_8
REMARK    6  A    between atoms: S_8  and  C_9
REMARK    7  A    between atoms: C_12  and  C_15
REMARK    8  A    between atoms: N_13  and  N_14
REMARK    9  A    between atoms: C_20  and  O_21
REMARK                            x       y       z     vdW  Elec       q    Type
REMARK                         _______ _______ _______ _____ _____    ______ ____
ROOT
ATOM      1  C   UNL     1       0.000  -0.065   7.624  0.00  0.00    +0.209 A 
ATOM      2  N   UNL     1       0.131   1.242   7.654  0.00  0.00    -0.121 NA
ATOM      3  N   UNL     1       0.184   1.653   8.870  0.00  0.00    -0.127 NA
ATOM      4  C   UNL     1       0.090   0.634   9.692  0.00  0.00    +0.185 A 
ATOM      5  N   UNL     1      -0.035  -0.498   8.919  0.00  0.00    -0.224 N 
ENDROOT
BRANCH   4   6
ATOM      6  C   UNL     1       0.112   0.691  11.168  0.00  0.00    +0.062 A 
ATOM      7  C   UNL     1       0.917  -0.188  11.893  0.00  0.00    +0.015 A 
ATOM      8  C   UNL     1       0.933  -0.130  13.271  0.00  0.00    +0.001 A 
ATOM      9  C   UNL     1       0.152   0.797  13.939  0.00  0.00    +0.004 A 
ATOM     10  C   UNL     1      -0.650   1.673  13.232  0.00  0.00    +0.046 A 
ATOM     11  C   UNL     1      -0.672   1.632  11.848  0.00  0.00    +0.128 A 
BRANCH  11  12
ATOM     12  O   UNL     1      -1.455   2.497  11.152  0.00  0.00    -0.506 OA
ATOM     13  H   UNL     1      -2.349   2.168  10.982  0.00  0.00    +0.292 HD
ENDBRANCH  11  12
ENDBRANCH   4   6
BRANCH   5  14
ATOM     14  N   UNL     1      -0.166  -1.785   9.356  0.00  0.00    -0.295 N 
ATOM     15  H   UNL     1       0.736  -2.196   9.546  0.00  0.00    +0.163 HD
ATOM     16  H   UNL     1      -0.763  -1.833  10.168  0.00  0.00    +0.163 HD
ENDBRANCH   5  14
BRANCH   1  17
ATOM     17  S   UNL     1      -0.115  -1.071   6.182  0.00  0.00    -0.075 S 
BRANCH  17  18
ATOM     18  C   UNL     1      -0.002   0.112   4.811  0.00  0.00    +0.174 C 
BRANCH  18  20
ATOM     19  N   UNL     1      -0.026   0.051   2.338  0.00  0.00    -0.206 N 
ATOM     20  C   UNL     1      -0.088  -0.628   3.501  0.00  0.00    +0.242 C 
ATOM     21  O   UNL     1      -0.214  -1.834   3.493  0.00  0.00    -0.273 OA
ATOM     22  H   UNL     1       0.074   1.016   2.345  0.00  0.00    +0.177 HD
BRANCH  19  25
ATOM     23  C   UNL     1       0.109   1.516   0.011  0.00  0.00    +0.068 C 
ATOM     24  C   UNL     1      -0.047   0.017   0.001  0.00  0.00    +0.063 C 
ATOM     25  N   UNL     1      -0.107  -0.637   1.120  0.00  0.00    -0.185 NA
BRANCH  24  26
ATOM     26  C   UNL     1      -0.132  -0.707  -1.281  0.00  0.00    -0.003 A 
ATOM     27  C   UNL     1      -0.062  -0.007  -2.488  0.00  0.00    +0.010 A 
ATOM     28  C   UNL     1      -0.142  -0.691  -3.683  0.00  0.00    +0.001 A 
ATOM     29  C   UNL     1      -0.291  -2.066  -3.689  0.00  0.00    +0.000 A 
ATOM     30  C   UNL     1      -0.361  -2.766  -2.497  0.00  0.00    +0.001 A 
ATOM     31  C   UNL     1      -0.276  -2.096  -1.294  0.00  0.00    +0.010 A 
ENDBRANCH  24  26
ENDBRANCH  19  25
ENDBRANCH  18  20
ENDBRANCH  17  18
ENDBRANCH   1  17
TORSDOF 8
