REMARK  Name = ZINC22456768
REMARK  9 active torsions:
REMARK  status: ('A' for Active; 'I' for Inactive)
REMARK    1  A    between atoms: C_1  and  O_2
REMARK    2  A    between atoms: O_2  and  C_3
REMARK    3  A    between atoms: C_6  and  C_9
REMARK    4  A    between atoms: C_9  and  C_11
REMARK    5  A    between atoms: C_9  and  C_25
REMARK    6  A    between atoms: C_11  and  N_12
REMARK    7  A    between atoms: N_12  and  S_13
REMARK    8  A    between atoms: S_13  and  C_16
REMARK    9  A    between atoms: C_21  and  N_22
REMARK                            x       y       z     vdW  Elec       q    Type
REMARK                         _______ _______ _______ _____ _____    ______ ____
ROOT
ATOM      1  C   UNL     1      -2.546  -0.356  -0.172  0.00  0.00    +0.066 C 
ENDROOT
BRANCH   1   2
ATOM      2  C   UNL     1      -1.084  -0.711  -0.080  0.00  0.00    -0.014 A 
ATOM      3  C   UNL     1      -0.570  -1.938   0.095  0.00  0.00    +0.088 A 
ATOM      4  N   UNL     1       0.797  -1.871   0.130  0.00  0.00    -0.360 N 
ATOM      5  H   UNL     1       1.389  -2.788   0.268  0.00  0.00    +0.165 HD
ATOM      6  C   UNL     1       1.205  -0.565  -0.025  0.00  0.00    +0.047 A 
ATOM      7  C   UNL     1       0.045   0.219  -0.164  0.00  0.00    +0.003 A 
ATOM      8  C   UNL     1       0.154   1.599  -0.338  0.00  0.00    +0.010 A 
ATOM      9  C   UNL     1       1.389   2.183  -0.373  0.00  0.00    +0.001 A 
ATOM     10  C   UNL     1       2.537   1.414  -0.238  0.00  0.00    +0.002 A 
ATOM     11  C   UNL     1       2.452   0.050  -0.064  0.00  0.00    +0.026 A 
ENDBRANCH   1   2
BRANCH   1  15
ATOM     12  C   UNL     1      -4.524  -1.517   3.433  0.00  0.00    +0.120 A 
ATOM     13  C   UNL     1      -4.521  -0.187   3.039  0.00  0.00    +0.046 A 
ATOM     14  C   UNL     1      -3.881   0.186   1.873  0.00  0.00    +0.008 A 
ATOM     15  C   UNL     1      -3.243  -0.765   1.099  0.00  0.00    -0.038 A 
ATOM     16  C   UNL     1      -3.249  -2.093   1.486  0.00  0.00    +0.008 A 
ATOM     17  C   UNL     1      -3.883  -2.470   2.655  0.00  0.00    +0.046 A 
BRANCH  12  19
ATOM     18  C   UNL     1      -5.116  -3.273   4.923  0.00  0.00    +0.277 C 
ATOM     19  O   UNL     1      -5.154  -1.886   4.580  0.00  0.00    -0.495 OA
ENDBRANCH  12  19
ENDBRANCH   1  15
BRANCH   1  20
ATOM     20  C   UNL     1      -3.175  -1.091  -1.358  0.00  0.00    +0.118 C 
BRANCH  20  21
ATOM     21  N   UNL     1      -2.579  -0.605  -2.605  0.00  0.00    -0.189 NA
ATOM     22  H   UNL     1      -2.172   0.416  -2.660  0.00  0.00    +0.148 HD
BRANCH  21  23
ATOM     23  S   UNL     1      -2.735  -1.489  -3.997  0.00  0.00    +0.061 S 
ATOM     24  O   UNL     1      -2.114  -0.735  -5.029  0.00  0.00    -0.153 OA
ATOM     25  O   UNL     1      -2.340  -2.817  -3.681  0.00  0.00    -0.153 OA
BRANCH  23  26
ATOM     26  C   UNL     1      -4.453  -1.553  -4.384  0.00  0.00    +0.135 A 
ATOM     27  C   UNL     1      -5.112  -2.768  -4.406  0.00  0.00    +0.031 A 
ATOM     28  C   UNL     1      -6.460  -2.817  -4.705  0.00  0.00    +0.002 A 
ATOM     29  C   UNL     1      -7.148  -1.653  -4.992  0.00  0.00    +0.002 A 
ATOM     30  C   UNL     1      -6.488  -0.438  -4.975  0.00  0.00    +0.035 A 
ATOM     31  C   UNL     1      -5.140  -0.388  -4.671  0.00  0.00    +0.152 A 
BRANCH  31  32
ATOM     32  N   UNL     1      -4.433   0.912  -4.653  0.00  0.00    +0.058 N 
ATOM     33  O   UNL     1      -5.002   1.920  -5.031  0.00  0.00    -0.126 OA
ATOM     34  O   UNL     1      -3.281   0.974  -4.261  0.00  0.00    -0.126 OA
ENDBRANCH  31  32
ENDBRANCH  23  26
ENDBRANCH  21  23
ENDBRANCH  20  21
ENDBRANCH   1  20
TORSDOF 8
