REMARK  Name = ZINC61607039
REMARK  9 active torsions:
REMARK  status: ('A' for Active; 'I' for Inactive)
REMARK    1  A    between atoms: C_1  and  C_2
REMARK    2  A    between atoms: C_5  and  N_8
REMARK    3  A    between atoms: C_11  and  N_14
REMARK    4  A    between atoms: N_14  and  C_15
REMARK    5  A    between atoms: C_16  and  C_18
REMARK    6  A    between atoms: C_18  and  C_19
REMARK    7  A    between atoms: C_18  and  C_20
REMARK    8  A    between atoms: C_18  and  N_21
REMARK    9  A    between atoms: N_24  and  C_25
REMARK                            x       y       z     vdW  Elec       q    Type
REMARK                         _______ _______ _______ _____ _____    ______ ____
ROOT
ATOM      1  N   UNL     1      -2.045  -0.213   3.750  0.00  0.00    +0.382 N 
ATOM      2  C   UNL     1      -1.331  -0.627   4.964  0.00  0.00    -0.077 C 
ATOM      3  C   UNL     1      -2.024  -0.038   6.194  0.00  0.00    +0.004 C 
ATOM      4  C   UNL     1      -3.467  -0.547   6.252  0.00  0.00    +0.072 C 
ATOM      5  C   UNL     1      -4.182  -0.174   4.949  0.00  0.00    +0.004 C 
ATOM      6  C   UNL     1      -3.408  -0.757   3.765  0.00  0.00    -0.077 C 
ATOM      7  H   UNL     1      -2.087   0.794   3.714  0.00  0.00    -0.081 HD
ENDROOT
BRANCH   1  12
ATOM      8  C   UNL     1       0.034   1.295   0.003  0.00  0.00    +0.007 C 
ATOM      9  C   UNL     1       0.094  -0.233   0.055  0.00  0.00    -0.014 C 
ATOM     10  C   UNL     1      -1.327  -0.800   0.071  0.00  0.00    +0.002 C 
ATOM     11  C   UNL     1      -2.070  -0.277   1.302  0.00  0.00    -0.015 C 
ATOM     12  C   UNL     1      -1.331  -0.715   2.568  0.00  0.00    -0.069 C 
ATOM     13  C   UNL     1       0.090  -0.149   2.552  0.00  0.00    -0.015 C 
ATOM     14  C   UNL     1       0.833  -0.671   1.321  0.00  0.00    +0.002 C 
ENDBRANCH   1  12
BRANCH   4  15
ATOM     15  N   UNL     1      -4.160   0.072   7.385  0.00  0.00    -0.300 N 
ATOM     16  C   UNL     1      -4.296   1.530   7.453  0.00  0.00    +0.132 C 
ATOM     17  C   UNL     1      -4.672  -0.699   8.364  0.00  0.00    +0.239 C 
ATOM     18  O   UNL     1      -4.493  -1.898   8.348  0.00  0.00    -0.273 OA
BRANCH  17  19
ATOM     19  C   UNL     1      -5.468  -0.071   9.480  0.00  0.00    +0.107 C 
ATOM     20  C   UNL     1      -6.725   0.583   8.904  0.00  0.00    +0.041 C 
ATOM     21  C   UNL     1      -5.869  -1.148  10.489  0.00  0.00    +0.041 C 
BRANCH  19  22
ATOM     22  N   UNL     1      -4.652   0.946  10.149  0.00  0.00    -0.286 N 
ATOM     23  C   UNL     1      -5.182   1.691  11.138  0.00  0.00    +0.300 C 
ATOM     24  O   UNL     1      -6.337   1.520  11.476  0.00  0.00    -0.253 OA
ATOM     25  N   UNL     1      -4.431   2.626  11.754  0.00  0.00    -0.302 N 
ATOM     26  C   UNL     1      -5.008   3.437  12.830  0.00  0.00    +0.129 C 
ATOM     27  H   UNL     1      -3.730   1.082   9.880  0.00  0.00    +0.151 HD
ATOM     28  H   UNL     1      -3.510   2.763  11.485  0.00  0.00    +0.150 HD
ENDBRANCH  19  22
ENDBRANCH  17  19
ENDBRANCH   4  15
TORSDOF 4
