REMARK  Name = ZINC39864622
REMARK  7 active torsions:
REMARK  status: ('A' for Active; 'I' for Inactive)
REMARK    1  A    between atoms: C_1  and  C_2
REMARK    2  A    between atoms: C_2  and  O_3
REMARK    3  A    between atoms: O_3  and  C_4
REMARK    4  A    between atoms: C_6  and  C_11
REMARK    5  A    between atoms: C_9  and  O_10
REMARK    6  A    between atoms: N_15  and  C_26
REMARK    7  A    between atoms: N_17  and  C_18
REMARK                            x       y       z     vdW  Elec       q    Type
REMARK                         _______ _______ _______ _____ _____    ______ ____
ROOT
ATOM      1  C   UNL     1       0.035  -4.928   0.559  0.00  0.00    +0.028 C 
ATOM      2  C   UNL     1      -0.006  -6.267   0.342  0.00  0.00    +0.078 C 
ATOM      3  C   UNL     1      -0.650  -7.326   1.141  0.00  0.00    +0.259 C 
ATOM      4  O   UNL     1      -1.260  -7.070   2.163  0.00  0.00    -0.269 OA
ATOM      5  N   UNL     1      -0.536  -8.566   0.697  0.00  0.00    -0.243 N 
ATOM      6  C   UNL     1       0.158  -8.836  -0.461  0.00  0.00    +0.169 C 
ATOM      7  N   UNL     1       0.365 -10.001  -1.038  0.00  0.00    -0.224 NA
ATOM      8  S   UNL     1       0.700  -7.221  -0.994  0.00  0.00    -0.049 S 
ENDROOT
BRANCH   7   9
ATOM      9  C   UNL     1      -0.004 -11.152  -0.404  0.00  0.00    +0.088 A 
ATOM     10  C   UNL     1      -1.205 -11.800  -0.728  0.00  0.00    +0.049 A 
ATOM     11  C   UNL     1      -1.537 -12.959  -0.063  0.00  0.00    +0.113 A 
ATOM     12  N   UNL     1      -0.744 -13.461   0.866  0.00  0.00    -0.262 NA
ATOM     13  C   UNL     1       0.396 -12.884   1.202  0.00  0.00    +0.132 A 
ATOM     14  C   UNL     1       0.810 -11.723   0.585  0.00  0.00    +0.084 A 
ATOM     15 CL   UNL     1       2.313 -10.977   1.030  0.00  0.00    -0.080 Cl
ENDBRANCH   7   9
BRANCH   1  18
ATOM     16  C   UNL     1       1.487  -1.886  -1.085  0.00  0.00    +0.162 A 
ATOM     17  C   UNL     1       0.690  -2.685  -0.289  0.00  0.00    +0.057 A 
ATOM     18  C   UNL     1       0.879  -4.072  -0.284  0.00  0.00    -0.020 A 
ATOM     19  C   UNL     1       1.876  -4.641  -1.086  0.00  0.00    +0.012 A 
ATOM     20  C   UNL     1       2.667  -3.836  -1.877  0.00  0.00    +0.050 A 
ATOM     21  C   UNL     1       2.474  -2.461  -1.885  0.00  0.00    +0.158 A 
BRANCH  21  22
ATOM     22  O   UNL     1       3.253  -1.673  -2.671  0.00  0.00    -0.503 OA
ATOM     23  H   UNL     1       4.061  -1.363  -2.239  0.00  0.00    +0.292 HD
ENDBRANCH  21  22
BRANCH  16  24
ATOM     24  O   UNL     1       1.306  -0.538  -1.092  0.00  0.00    -0.489 OA
BRANCH  24  26
ATOM     25  C   UNL     1       0.224   1.506  -0.390  0.00  0.00    +0.048 C 
ATOM     26  C   UNL     1       0.277  -0.017  -0.249  0.00  0.00    +0.226 C 
ENDBRANCH  24  26
ENDBRANCH  16  24
ENDBRANCH   1  18
BRANCH   5  27
ATOM     27  C   UNL     1      -1.153  -9.665   1.445  0.00  0.00    +0.084 C 
ATOM     28  C   UNL     1      -2.671  -9.476   1.468  0.00  0.00    +0.023 C 
ATOM     29  C   UNL     1      -3.315 -10.623   2.250  0.00  0.00    +0.002 C 
ATOM     30  C   UNL     1      -2.780 -10.627   3.683  0.00  0.00    +0.000 C 
ATOM     31  C   UNL     1      -1.262 -10.816   3.660  0.00  0.00    +0.002 C 
ATOM     32  C   UNL     1      -0.617  -9.669   2.879  0.00  0.00    +0.023 C 
ENDBRANCH   5  27
TORSDOF 6
