REMARK  Name = ZINC62892002
REMARK  6 active torsions:
REMARK  status: ('A' for Active; 'I' for Inactive)
REMARK    1  A    between atoms: C_1  and  C_2
REMARK    2  A    between atoms: C_2  and  C_3
REMARK    3  A    between atoms: C_3  and  C_8
REMARK    4  A    between atoms: N_10  and  C_11
REMARK    5  A    between atoms: C_11  and  C_13
REMARK    6  A    between atoms: C_11  and  C_14
REMARK                            x       y       z     vdW  Elec       q    Type
REMARK                         _______ _______ _______ _____ _____    ______ ____
ROOT
ATOM      1  C   UNL     1      -0.064   0.109   2.490  0.00  0.00    +0.218 C 
ATOM      2  O   UNL     1      -0.408  -0.655   3.367  0.00  0.00    -0.275 OA
ATOM      3  N   UNL     1      -0.365   1.420   2.582  0.00  0.00    -0.308 N 
ATOM      4  H   UNL     1      -0.026   2.042   1.920  0.00  0.00    +0.149 HD
ENDROOT
BRANCH   1   5
ATOM      5  C   UNL     1       0.701  -0.407   1.299  0.00  0.00    +0.030 C 
ATOM      6  C   UNL     1       2.145   0.147   1.305  0.00  0.00    -0.005 C 
ATOM      7  C   UNL     1       2.955  -1.004   1.952  0.00  0.00    -0.082 C 
ATOM      8  N   UNL     1       2.308  -2.225   1.407  0.00  0.00    +0.380 N 
ATOM      9  C   UNL     1       0.857  -1.937   1.386  0.00  0.00    -0.067 C 
ATOM     10  H   UNL     1       2.640  -2.406   0.471  0.00  0.00    -0.086 HD
ATOM     11  H   UNL     1       2.497  -3.015   2.004  0.00  0.00    -0.086 HD
BRANCH   5  13
ATOM     12  C   UNL     1      -1.440  -0.565   0.022  0.00  0.00    +0.005 C 
ATOM     13  C   UNL     1      -0.012  -0.018   0.002  0.00  0.00    +0.011 C 
ENDBRANCH   5  13
ENDBRANCH   1   5
BRANCH   3  14
ATOM     14  C   UNL     1      -1.204   1.904   3.681  0.00  0.00    +0.101 C 
ATOM     15  C   UNL     1      -2.678   1.741   3.307  0.00  0.00    +0.033 C 
BRANCH  14  16
ATOM     16  C   UNL     1      -0.908   3.359   3.936  0.00  0.00    -0.014 A 
ATOM     17  C   UNL     1      -0.402   4.149   2.921  0.00  0.00    +0.006 A 
ATOM     18  C   UNL     1      -0.131   5.485   3.154  0.00  0.00    +0.000 A 
ATOM     19  C   UNL     1      -0.365   6.030   4.403  0.00  0.00    +0.001 A 
ATOM     20  C   UNL     1      -0.871   5.241   5.418  0.00  0.00    +0.015 A 
ATOM     21  C   UNL     1      -1.148   3.906   5.183  0.00  0.00    +0.023 A 
ATOM     22 BR   UNL     1      -1.847   2.827   6.570  0.00  0.00    -0.050 Br
ENDBRANCH  14  16
ENDBRANCH   3  14
TORSDOF 4
