REMARK  Name = ZINC23875420
REMARK  10 active torsions:
REMARK  status: ('A' for Active; 'I' for Inactive)
REMARK    1  A    between atoms: C_1  and  C_2
REMARK    2  A    between atoms: C_11  and  N_30
REMARK    3  A    between atoms: C_13  and  S_15
REMARK    4  A    between atoms: S_15  and  C_16
REMARK    5  A    between atoms: C_16  and  C_18
REMARK    6  A    between atoms: C_16  and  C_19
REMARK    7  A    between atoms: N_21  and  C_22
REMARK    8  A    between atoms: N_26  and  C_27
REMARK    9  A    between atoms: C_27  and  C_28
REMARK   10  A    between atoms: C_27  and  C_29
REMARK                            x       y       z     vdW  Elec       q    Type
REMARK                         _______ _______ _______ _____ _____    ______ ____
ROOT
ATOM      1  C   UNL     1      -3.580  -4.715  -0.686  0.00  0.00    +0.008 C 
ATOM      2  C   UNL     1      -3.209  -3.238  -0.839  0.00  0.00    -0.009 C 
ATOM      3  C   UNL     1      -2.024  -2.906   0.074  0.00  0.00    +0.008 C 
ATOM      4  C   UNL     1      -1.492  -1.510  -0.253  0.00  0.00    +0.037 C 
ATOM      5  C   UNL     1      -2.652  -0.519  -0.215  0.00  0.00    -0.025 A 
ATOM      6  C   UNL     1      -3.927  -0.948  -0.298  0.00  0.00    -0.004 A 
ATOM      7  S   UNL     1      -4.916   0.522  -0.214  0.00  0.00    -0.073 S 
ATOM      8  C   UNL     1      -3.611   1.714  -0.068  0.00  0.00    +0.115 A 
ATOM      9  C   UNL     1      -2.443   0.925  -0.088  0.00  0.00    +0.051 A 
ATOM     10  C   UNL     1      -1.218   1.641   0.017  0.00  0.00    +0.129 A 
ATOM     11  N   UNL     1      -1.246   2.958   0.129  0.00  0.00    -0.207 NA
ATOM     12  C   UNL     1      -2.385   3.642   0.135  0.00  0.00    +0.192 A 
ATOM     13  N   UNL     1      -3.557   3.027   0.041  0.00  0.00    -0.214 NA
ATOM     14  C   UNL     1      -4.403  -2.362  -0.433  0.00  0.00    +0.046 C 
ENDROOT
BRANCH  10  15
ATOM     15  N   UNL     1      -0.011   0.966   0.007  0.00  0.00    -0.343 N 
ATOM     16  H   UNL     1       0.933   1.525   0.089  0.00  0.00    +0.144 HD
ATOM     17  H   UNL     1       0.005  -0.131  -0.082  0.00  0.00    +0.144 HD
ENDBRANCH  10  15
BRANCH  12  18
ATOM     18  S   UNL     1      -2.338   5.397   0.279  0.00  0.00    -0.073 S 
BRANCH  18  19
ATOM     19  C   UNL     1      -0.549   5.658   0.368  0.00  0.00    +0.137 C 
ATOM     20  C   UNL     1       0.094   5.236  -0.954  0.00  0.00    +0.029 C 
BRANCH  19  21
ATOM     21  C   UNL     1      -0.266   7.117   0.622  0.00  0.00    +0.231 C 
ATOM     22  O   UNL     1      -1.113   7.950   0.377  0.00  0.00    -0.274 OA
ATOM     23  N   UNL     1       0.927   7.495   1.120  0.00  0.00    -0.270 N 
ATOM     24  H   UNL     1       1.695   6.739   1.342  0.00  0.00    +0.156 HD
BRANCH  23  25
ATOM     25  C   UNL     1       1.189   8.844   1.355  0.00  0.00    +0.123 A 
ATOM     26  C   UNL     1       0.339   9.881   1.121  0.00  0.00    +0.065 A 
ATOM     27  C   UNL     1       0.989  11.060   1.495  0.00  0.00    +0.136 A 
ATOM     28  N   UNL     1       2.184  10.752   1.927  0.00  0.00    -0.178 NA
ATOM     29  N   UNL     1       2.337   9.361   1.849  0.00  0.00    -0.248 N 
BRANCH  29  30
ATOM     30  C   UNL     1       3.529   8.602   2.236  0.00  0.00    +0.103 C 
ATOM     31  C   UNL     1       4.722   9.064   1.398  0.00  0.00    +0.032 C 
ATOM     32  C   UNL     1       3.825   8.837   3.718  0.00  0.00    +0.032 C 
ENDBRANCH  29  30
ENDBRANCH  23  25
ENDBRANCH  19  21
ENDBRANCH  18  19
ENDBRANCH  12  18
TORSDOF 6
