REMARK  Name = ZINC40374249
REMARK  4 active torsions:
REMARK  status: ('A' for Active; 'I' for Inactive)
REMARK    1  A    between atoms: C_1  and  C_2
REMARK    2  A    between atoms: C_8  and  O_13
REMARK    3  A    between atoms: O_13  and  C_14
REMARK    4  A    between atoms: N_18  and  C_19
REMARK                            x       y       z     vdW  Elec       q    Type
REMARK                         _______ _______ _______ _____ _____    ______ ____
ROOT
ATOM      1  C   UNL     1      -0.494   1.649  -0.661  0.00  0.00    +0.079 C 
ATOM      2  C   UNL     1      -0.285   0.186  -0.265  0.00  0.00    +0.183 C 
ATOM      3  C   UNL     1      -1.645  -0.522  -0.191  0.00  0.00    +0.096 C 
ATOM      4  C   UNL     1      -1.360  -2.008   0.078  0.00  0.00    +0.111 C 
ATOM      5  C   UNL     1      -0.502  -2.110   1.319  0.00  0.00    +0.018 A 
ATOM      6  C   UNL     1      -0.515  -3.286   2.046  0.00  0.00    +0.054 A 
ATOM      7  C   UNL     1       0.268  -3.409   3.184  0.00  0.00    +0.121 A 
ATOM      8  C   UNL     1       1.064  -2.349   3.591  0.00  0.00    +0.049 A 
ATOM      9  C   UNL     1       1.075  -1.175   2.866  0.00  0.00    +0.049 A 
ATOM     10  C   UNL     1       0.287  -1.049   1.725  0.00  0.00    +0.129 A 
ATOM     11  O   UNL     1       0.331   0.127   1.019  0.00  0.00    -0.468 OA
ATOM     12  N   UNL     1      -0.580  -2.523  -1.060  0.00  0.00    -0.319 N 
ATOM     13  C   UNL     1       0.344  -1.742  -1.643  0.00  0.00    +0.141 C 
ATOM     14  S   UNL     1       1.300  -2.394  -2.904  0.00  0.00    -0.018 S 
ATOM     15  N   UNL     1       0.543  -0.474  -1.270  0.00  0.00    -0.244 N 
ATOM     16  H   UNL     1      -0.733  -3.424  -1.387  0.00  0.00    +0.148 HD
ENDROOT
BRANCH  15  17
ATOM     17  C   UNL     1       1.581   0.245  -1.873  0.00  0.00    +0.039 A 
ATOM     18  C   UNL     1       2.822   0.323  -1.257  0.00  0.00    +0.025 A 
ATOM     19  C   UNL     1       3.845   1.034  -1.854  0.00  0.00    +0.017 A 
ATOM     20  C   UNL     1       3.633   1.667  -3.066  0.00  0.00    +0.018 A 
ATOM     21  C   UNL     1       2.397   1.590  -3.683  0.00  0.00    +0.017 A 
ATOM     22  C   UNL     1       1.372   0.876  -3.092  0.00  0.00    +0.025 A 
ATOM     23 BR   UNL     1       5.035   2.639  -3.881  0.00  0.00    -0.050 Br
ENDBRANCH  15  17
BRANCH   7  24
ATOM     24  O   UNL     1       0.254  -4.565   3.900  0.00  0.00    -0.495 OA
ATOM     25  C   UNL     1       1.085  -4.620   5.061  0.00  0.00    +0.277 C 
ENDBRANCH   7  24
TORSDOF 2
