REMARK  Name = ZINC12624143
REMARK  5 active torsions:
REMARK  status: ('A' for Active; 'I' for Inactive)
REMARK    1  A    between atoms: C_1  and  C_2
REMARK    2  A    between atoms: C_7  and  C_10
REMARK    3  A    between atoms: C_11  and  C_13
REMARK    4  A    between atoms: C_13  and  S_14
REMARK    5  A    between atoms: S_14  and  C_15
REMARK                            x       y       z     vdW  Elec       q    Type
REMARK                         _______ _______ _______ _____ _____    ______ ____
ROOT
ATOM      1  S   UNL     1       4.000  -3.427  -0.054  0.00  0.00    -0.078 S 
ENDROOT
BRANCH   1   2
ATOM      2  C   UNL     1       2.997  -1.978  -0.037  0.00  0.00    +0.169 A 
ATOM      3  N   UNL     1       1.631  -1.969  -0.024  0.00  0.00    -0.332 N 
ATOM      4  H   UNL     1       1.075  -2.918  -0.024  0.00  0.00    +0.168 HD
ATOM      5  C   UNL     1       1.233  -0.643  -0.013  0.00  0.00    +0.087 A 
ATOM      6  C   UNL     1       0.002  -0.004   0.002  0.00  0.00    +0.051 A 
ATOM      7  C   UNL     1      -0.017   1.383   0.010  0.00  0.00    +0.061 A 
ATOM      8  C   UNL     1       1.181   2.080   0.002  0.00  0.00    +0.133 A 
ATOM      9  N   UNL     1       2.338   1.454  -0.013  0.00  0.00    -0.233 NA
ATOM     10  C   UNL     1       2.411   0.124  -0.020  0.00  0.00    +0.179 A 
ATOM     11  N   UNL     1       3.450  -0.747  -0.035  0.00  0.00    -0.202 NA
ATOM     12 CL   UNL     1      -1.528   2.238   0.021  0.00  0.00    -0.082 Cl
ENDBRANCH   1   2
BRANCH   1  13
ATOM     13  C   UNL     1       5.644  -2.670  -0.067  0.00  0.00    +0.173 C 
BRANCH  13  22
ATOM     14  C   UNL     1      11.246  -5.098   0.891  0.00  0.00    +0.039 C 
ATOM     15  C   UNL     1      10.050  -4.150   1.005  0.00  0.00    +0.133 C 
ATOM     16  C   UNL     1       9.044  -4.459  -0.110  0.00  0.00    +0.139 C 
ATOM     17  N   UNL     1       8.001  -3.421  -0.094  0.00  0.00    -0.296 N 
ATOM     18  C   UNL     1       8.427  -2.013  -0.097  0.00  0.00    +0.139 C 
ATOM     19  C   UNL     1       9.463  -1.823   1.022  0.00  0.00    +0.133 C 
ATOM     20  O   UNL     1      10.498  -2.798   0.874  0.00  0.00    -0.371 OA
ATOM     21  C   UNL     1      10.066  -0.420   0.926  0.00  0.00    +0.039 C 
ATOM     22  C   UNL     1       6.694  -3.751  -0.083  0.00  0.00    +0.226 C 
ATOM     23  O   UNL     1       6.363  -4.918  -0.086  0.00  0.00    -0.275 OA
ENDBRANCH  13  22
ENDBRANCH   1  13
TORSDOF 3
