REMARK  Name = ZINC06516648
REMARK  5 active torsions:
REMARK  status: ('A' for Active; 'I' for Inactive)
REMARK    1  A    between atoms: C_1  and  C_2
REMARK    2  A    between atoms: C_5  and  C_26
REMARK    3  A    between atoms: C_10  and  C_12
REMARK    4  A    between atoms: C_12  and  S_13
REMARK    5  A    between atoms: S_13  and  C_14
REMARK                            x       y       z     vdW  Elec       q    Type
REMARK                         _______ _______ _______ _____ _____    ______ ____
ROOT
ATOM      1  S   UNL     1       2.675   0.753  -0.019  0.00  0.00    -0.078 S 
ENDROOT
BRANCH   1   2
ATOM      2  C   UNL     1       1.165   1.660  -0.000  0.00  0.00    +0.170 A 
ATOM      3  N   UNL     1      -0.011   0.966   0.007  0.00  0.00    -0.301 N 
ATOM      4  H   UNL     1       0.003  -0.034   0.006  0.00  0.00    +0.171 HD
ATOM      5  C   UNL     1      -1.195   1.622   0.017  0.00  0.00    +0.260 A 
ATOM      6  O   UNL     1      -2.252   1.018   0.018  0.00  0.00    -0.267 OA
ATOM      7  C   UNL     1      -1.156   3.091   0.030  0.00  0.00    +0.065 A 
ATOM      8  C   UNL     1      -2.320   3.858   0.045  0.00  0.00    +0.015 A 
ATOM      9  C   UNL     1      -2.228   5.222   0.052  0.00  0.00    +0.001 A 
ATOM     10  C   UNL     1      -0.989   5.850   0.044  0.00  0.00    +0.002 A 
ATOM     11  C   UNL     1       0.168   5.122   0.028  0.00  0.00    +0.028 A 
ATOM     12  C   UNL     1       0.107   3.725   0.021  0.00  0.00    +0.079 A 
ATOM     13  N   UNL     1       1.222   2.969   0.006  0.00  0.00    -0.223 NA
ENDBRANCH   1   2
BRANCH   1  14
ATOM     14  C   UNL     1       3.863   2.119  -0.023  0.00  0.00    +0.173 C 
BRANCH  14  22
ATOM     15  C   UNL     1       6.827   5.988   1.071  0.00  0.00    +0.009 C 
ATOM     16  C   UNL     1       6.915   4.462   1.127  0.00  0.00    +0.004 C 
ATOM     17  C   UNL     1       8.379   4.030   1.015  0.00  0.00    +0.009 C 
ATOM     18  C   UNL     1       8.471   2.505   1.103  0.00  0.00    +0.004 C 
ATOM     19  C   UNL     1       7.692   1.882  -0.060  0.00  0.00    +0.111 C 
ATOM     20  N   UNL     1       6.319   2.406  -0.045  0.00  0.00    -0.300 N 
ATOM     21  C   UNL     1       6.119   3.861  -0.042  0.00  0.00    +0.111 C 
ATOM     22  C   UNL     1       5.264   1.567  -0.039  0.00  0.00    +0.226 C 
ATOM     23  O   UNL     1       5.444   0.367  -0.047  0.00  0.00    -0.275 OA
ATOM     24  C   UNL     1       7.871   2.033   2.429  0.00  0.00    +0.009 C 
ENDBRANCH  14  22
ENDBRANCH   1  14
TORSDOF 3
