REMARK  Name = ZINC40513188
REMARK  6 active torsions:
REMARK  status: ('A' for Active; 'I' for Inactive)
REMARK    1  A    between atoms: C_1  and  C_2
REMARK    2  A    between atoms: C_2  and  C_3
REMARK    3  A    between atoms: C_3  and  N_4
REMARK    4  A    between atoms: C_5  and  C_22
REMARK    5  A    between atoms: C_11  and  C_21
REMARK    6  A    between atoms: C_13  and  C_20
REMARK                            x       y       z     vdW  Elec       q    Type
REMARK                         _______ _______ _______ _____ _____    ______ ____
ROOT
ATOM      1  N   UNL     1      -1.413  -1.998   0.005  0.00  0.00    -0.284 N 
ATOM      2  C   UNL     1      -1.407  -2.857  -1.191  0.00  0.00    +0.145 C 
ATOM      3  C   UNL     1      -1.388  -4.261  -0.684  0.00  0.00    +0.072 A 
ATOM      4  C   UNL     1      -1.384  -5.545  -1.394  0.00  0.00    +0.199 A 
ATOM      5  O   UNL     1      -1.221  -5.641  -2.598  0.00  0.00    -0.287 OA
ATOM      6  C   UNL     1      -1.598  -6.716  -0.506  0.00  0.00    +0.067 A 
ATOM      7  C   UNL     1      -1.819  -7.982  -1.048  0.00  0.00    -0.036 A 
ATOM      8  C   UNL     1      -2.019  -9.049  -0.217  0.00  0.00    +0.007 A 
ATOM      9  C   UNL     1      -2.003  -8.875   1.160  0.00  0.00    -0.047 A 
ATOM     10  C   UNL     1      -1.785  -7.633   1.712  0.00  0.00    +0.050 A 
ATOM     11  C   UNL     1      -1.576  -6.528   0.885  0.00  0.00    +0.140 A 
ATOM     12  O   UNL     1      -1.354  -5.319   1.449  0.00  0.00    -0.450 OA
ATOM     13  C   UNL     1      -1.378  -4.212   0.681  0.00  0.00    +0.199 A 
ATOM     14  C   UNL     1      -1.392  -2.797   1.092  0.00  0.00    +0.283 C 
ATOM     15  O   UNL     1      -1.386  -2.406   2.242  0.00  0.00    -0.267 OA
ATOM     16  C   UNL     1      -2.228 -10.061   2.063  0.00  0.00    +0.044 C 
ATOM     17  C   UNL     1      -1.837  -8.173  -2.542  0.00  0.00    +0.044 C 
ENDROOT
BRANCH   2  18
ATOM     18  C   UNL     1      -0.178  -2.585  -2.020  0.00  0.00    -0.021 A 
ATOM     19  C   UNL     1       1.040  -2.376  -1.401  0.00  0.00    +0.006 A 
ATOM     20  C   UNL     1       2.168  -2.127  -2.160  0.00  0.00    +0.001 A 
ATOM     21  C   UNL     1       2.078  -2.086  -3.539  0.00  0.00    +0.015 A 
ATOM     22  C   UNL     1       0.859  -2.295  -4.159  0.00  0.00    +0.018 A 
ATOM     23  C   UNL     1      -0.268  -2.549  -3.398  0.00  0.00    +0.021 A 
ATOM     24 BR   UNL     1       0.734  -2.237  -6.045  0.00  0.00    -0.050 Br
ENDBRANCH   2  18
BRANCH   1  25
ATOM     25  C   UNL     1      -1.433  -0.534   0.013  0.00  0.00    +0.109 C 
BRANCH  25  27
ATOM     26  C   UNL     1      -0.019   1.526   0.010  0.00  0.00    +0.005 C 
ATOM     27  C   UNL     1       0.002  -0.004   0.002  0.00  0.00    +0.016 C 
ENDBRANCH  25  27
ENDBRANCH   1  25
TORSDOF 3
