REMARK  Name = ZINC36517506
REMARK  17 active torsions:
REMARK  status: ('A' for Active; 'I' for Inactive)
REMARK    1  A    between atoms: C_1  and  C_2
REMARK    2  A    between atoms: C_2  and  C_3
REMARK    3  A    between atoms: C_3  and  C_4
REMARK    4  A    between atoms: C_4  and  C_5
REMARK    5  A    between atoms: C_5  and  C_6
REMARK    6  A    between atoms: C_6  and  N_7
REMARK    7  A    between atoms: N_7  and  C_8
REMARK    8  A    between atoms: C_8  and  C_10
REMARK    9  A    between atoms: C_8  and  C_19
REMARK   10  A    between atoms: C_13  and  N_16
REMARK   11  A    between atoms: N_16  and  C_17
REMARK   12  A    between atoms: N_16  and  C_18
REMARK   13  A    between atoms: N_21  and  C_22
REMARK   14  A    between atoms: C_22  and  S_23
REMARK   15  A    between atoms: S_23  and  C_26
REMARK   16  A    between atoms: C_29  and  C_32
REMARK   17  A    between atoms: C_33  and  C_35
REMARK                            x       y       z     vdW  Elec       q    Type
REMARK                         _______ _______ _______ _____ _____    ______ ____
ROOT
ATOM      1  C   UNL     1      -4.953  -4.881  -1.169  0.00  0.00    +0.192 C 
ENDROOT
BRANCH   1   2
ATOM      2  C   UNL     1      -6.255  -4.128  -1.078  0.00  0.00    -0.018 A 
ATOM      3  C   UNL     1      -7.330  -4.686  -0.411  0.00  0.00    +0.008 A 
ATOM      4  C   UNL     1      -8.524  -3.998  -0.327  0.00  0.00    +0.023 A 
ATOM      5  C   UNL     1      -8.646  -2.745  -0.912  0.00  0.00    +0.029 A 
ATOM      6  C   UNL     1      -7.564  -2.187  -1.582  0.00  0.00    +0.023 A 
ATOM      7  C   UNL     1      -6.370  -2.877  -1.658  0.00  0.00    +0.008 A 
BRANCH   5   8
ATOM      8  N   UNL     1      -9.853  -2.047  -0.829  0.00  0.00    -0.336 N 
ATOM      9  C   UNL     1     -10.993  -2.637  -0.123  0.00  0.00    +0.129 C 
ATOM     10  C   UNL     1      -9.979  -0.725  -1.447  0.00  0.00    +0.129 C 
ENDBRANCH   5   8
ENDBRANCH   1   2
BRANCH   1  11
ATOM     11  C   UNL     1      -5.233  -6.356  -1.295  0.00  0.00    +0.239 C 
ATOM     12  O   UNL     1      -4.814  -7.127  -0.457  0.00  0.00    -0.273 OA
ATOM     13  N   UNL     1      -5.951  -6.819  -2.337  0.00  0.00    -0.294 N 
ATOM     14  H   UNL     1      -6.286  -6.203  -3.007  0.00  0.00    +0.150 HD
BRANCH  13  15
ATOM     15  C   UNL     1      -6.223  -8.253  -2.460  0.00  0.00    +0.278 C 
BRANCH  15  16
ATOM     16  S   UNL     1      -7.846  -8.624  -1.737  0.00  0.00    +0.013 S 
ATOM     17  O   UNL     1      -8.153 -10.001  -1.904  0.00  0.00    -0.168 OA
ATOM     18  O   UNL     1      -7.968  -8.004  -0.465  0.00  0.00    -0.168 OA
BRANCH  16  19
ATOM     19  C   UNL     1      -9.002  -7.778  -2.763  0.00  0.00    +0.090 A 
ATOM     20  C   UNL     1      -9.362  -6.475  -2.470  0.00  0.00    +0.027 A 
ATOM     21  C   UNL     1     -10.269  -5.811  -3.274  0.00  0.00    +0.005 A 
ATOM     22  C   UNL     1     -10.816  -6.450  -4.372  0.00  0.00    -0.050 A 
ATOM     23  C   UNL     1     -10.456  -7.752  -4.665  0.00  0.00    +0.005 A 
ATOM     24  C   UNL     1      -9.545  -8.414  -3.863  0.00  0.00    +0.027 A 
ATOM     25  C   UNL     1     -11.806  -5.726  -5.248  0.00  0.00    +0.044 C 
ENDBRANCH  16  19
ENDBRANCH  15  16
ENDBRANCH  13  15
ENDBRANCH   1  11
BRANCH   1  26
ATOM     26  N   UNL     1      -4.162  -4.636   0.039  0.00  0.00    -0.285 N 
ATOM     27  C   UNL     1      -4.634  -5.016   1.243  0.00  0.00    +0.231 C 
ATOM     28  O   UNL     1      -5.669  -5.644   1.317  0.00  0.00    -0.274 OA
BRANCH  27  29
ATOM     29  C   UNL     1      -3.877  -4.660   2.497  0.00  0.00    +0.204 C 
ATOM     30 CL   UNL     1      -4.756  -5.303   3.933  0.00  0.00    -0.116 Cl
ENDBRANCH  27  29
BRANCH  26  31
ATOM     31  C   UNL     1      -2.857  -3.977  -0.060  0.00  0.00    +0.109 C 
BRANCH  31  32
ATOM     32  C   UNL     1      -3.039  -2.463   0.060  0.00  0.00    +0.019 C 
BRANCH  32  33
ATOM     33  C   UNL     1      -1.676  -1.775  -0.044  0.00  0.00    +0.002 C 
BRANCH  33  34
ATOM     34  C   UNL     1      -1.858  -0.261   0.077  0.00  0.00    -0.000 C 
BRANCH  34  36
ATOM     35  C   UNL     1      -0.677   1.941   0.094  0.00  0.00    +0.004 C 
ATOM     36  C   UNL     1      -0.495   0.426  -0.027  0.00  0.00    -0.003 C 
ENDBRANCH  34  36
ENDBRANCH  33  34
ENDBRANCH  32  33
ENDBRANCH  31  32
ENDBRANCH  26  31
ENDBRANCH   1  26
TORSDOF 13
