REMARK  Name = ZINC20579769
REMARK  8 active torsions:
REMARK  status: ('A' for Active; 'I' for Inactive)
REMARK    1  A    between atoms: C_1  and  C_2
REMARK    2  A    between atoms: C_2  and  C_3
REMARK    3  A    between atoms: C_6  and  N_9
REMARK    4  A    between atoms: C_11  and  C_16
REMARK    5  A    between atoms: C_22  and  C_24
REMARK    6  A    between atoms: C_24  and  C_26
REMARK    7  A    between atoms: C_24  and  S_32
REMARK    8  A    between atoms: S_32  and  C_33
REMARK                            x       y       z     vdW  Elec       q    Type
REMARK                         _______ _______ _______ _____ _____    ______ ____
ROOT
ATOM      1  C   UNL     1      -5.333   2.873  -7.170  0.00  0.00    +0.109 A 
ATOM      2  N   UNL     1      -6.432   3.278  -6.566  0.00  0.00    -0.144 NA
ATOM      3  N   UNL     1      -7.553   3.183  -7.138  0.00  0.00    -0.126 NA
ATOM      4  C   UNL     1      -7.678   2.668  -8.349  0.00  0.00    +0.188 A 
ATOM      5  S   UNL     1      -6.021   2.286  -8.714  0.00  0.00    -0.035 S 
ATOM      6  N   UNL     1      -8.820   2.481  -9.120  0.00  0.00    -0.262 N 
ATOM      7  C   UNL     1     -10.024   2.853  -8.641  0.00  0.00    +0.236 C 
ATOM      8  O   UNL     1     -10.111   3.349  -7.538  0.00  0.00    -0.274 OA
ATOM      9  H   UNL     1      -8.742   2.030 -10.120  0.00  0.00    +0.157 HD
ENDROOT
BRANCH   1  12
ATOM     10  N   UNL     1      -2.755   2.964  -4.589  0.00  0.00    -0.271 N 
ATOM     11  C   UNL     1      -3.764   2.193  -5.324  0.00  0.00    +0.124 C 
ATOM     12  C   UNL     1      -3.904   2.891  -6.693  0.00  0.00    +0.073 C 
ATOM     13  C   UNL     1      -3.450   4.332  -6.362  0.00  0.00    +0.108 C 
ATOM     14  C   UNL     1      -2.560   4.171  -5.149  0.00  0.00    +0.220 C 
ATOM     15  O   UNL     1      -1.783   5.008  -4.741  0.00  0.00    -0.275 OA
BRANCH  10  19
ATOM     16  C   UNL     1      -0.742   1.585  -1.213  0.00  0.00    -0.048 A 
ATOM     17  C   UNL     1      -1.761   0.831  -1.764  0.00  0.00    +0.005 A 
ATOM     18  C   UNL     1      -2.434   1.288  -2.880  0.00  0.00    +0.024 A 
ATOM     19  C   UNL     1      -2.079   2.501  -3.455  0.00  0.00    +0.036 A 
ATOM     20  C   UNL     1      -1.051   3.254  -2.902  0.00  0.00    +0.024 A 
ATOM     21  C   UNL     1      -0.386   2.794  -1.783  0.00  0.00    +0.005 A 
BRANCH  16  23
ATOM     22  C   UNL     1      -0.717   1.596   1.267  0.00  0.00    +0.009 C 
ATOM     23  C   UNL     1      -0.013   1.086   0.008  0.00  0.00    +0.032 C 
ENDBRANCH  16  23
ENDBRANCH  10  19
ENDBRANCH   1  12
BRANCH   7  24
ATOM     24  C   UNL     1     -11.262   2.651  -9.476  0.00  0.00    +0.167 C 
BRANCH  24  25
ATOM     25  C   UNL     1     -11.368   3.757 -10.494  0.00  0.00    -0.025 A 
ATOM     26  C   UNL     1     -11.462   5.072 -10.078  0.00  0.00    +0.005 A 
ATOM     27  C   UNL     1     -11.554   6.087 -11.012  0.00  0.00    +0.000 A 
ATOM     28  C   UNL     1     -11.563   5.787 -12.361  0.00  0.00    +0.000 A 
ATOM     29  C   UNL     1     -11.474   4.471 -12.777  0.00  0.00    +0.000 A 
ATOM     30  C   UNL     1     -11.376   3.456 -11.843  0.00  0.00    +0.005 A 
ENDBRANCH  24  25
BRANCH  24  31
ATOM     31  S   UNL     1     -12.725   2.674  -8.403  0.00  0.00    -0.108 S 
BRANCH  31  32
ATOM     32  C   UNL     1     -14.056   2.282  -9.490  0.00  0.00    +0.009 A 
ATOM     33  C   UNL     1     -13.810   2.050 -10.838  0.00  0.00    +0.015 A 
ATOM     34  C   UNL     1     -14.855   1.737 -11.684  0.00  0.00    +0.001 A 
ATOM     35  C   UNL     1     -16.146   1.666 -11.195  0.00  0.00    +0.000 A 
ATOM     36  C   UNL     1     -16.396   1.902  -9.855  0.00  0.00    +0.001 A 
ATOM     37  C   UNL     1     -15.355   2.210  -9.002  0.00  0.00    +0.015 A 
ENDBRANCH  31  32
ENDBRANCH  24  31
ENDBRANCH   7  24
TORSDOF 7
