REMARK  Name = ZINC15087853
REMARK  9 active torsions:
REMARK  status: ('A' for Active; 'I' for Inactive)
REMARK    1  A    between atoms: C_1  and  C_2
REMARK    2  A    between atoms: C_3  and  N_15
REMARK    3  A    between atoms: N_6  and  C_9
REMARK    4  A    between atoms: N_7  and  C_8
REMARK    5  A    between atoms: C_19  and  C_20
REMARK    6  A    between atoms: C_23  and  C_26
REMARK    7  A    between atoms: C_26  and  C_27
REMARK    8  A    between atoms: C_26  and  C_28
REMARK    9  A    between atoms: C_26  and  C_29
REMARK                            x       y       z     vdW  Elec       q    Type
REMARK                         _______ _______ _______ _____ _____    ______ ____
ROOT
ATOM      1  N   UNL     1      -2.784  -1.778  -0.658  0.00  0.00    -0.208 N 
ATOM      2  C   UNL     1      -3.428  -2.546   0.205  0.00  0.00    +0.264 C 
ATOM      3  O   UNL     1      -2.869  -3.457   0.787  0.00  0.00    -0.269 OA
ATOM      4  C   UNL     1      -4.857  -2.247   0.430  0.00  0.00    +0.078 C 
ATOM      5  C   UNL     1      -5.745  -2.864   1.247  0.00  0.00    +0.028 C 
ATOM      6  S   UNL     1      -5.100  -0.855  -0.663  0.00  0.00    -0.049 S 
ATOM      7  C   UNL     1      -3.437  -0.746  -1.303  0.00  0.00    +0.165 C 
ATOM      8  N   UNL     1      -2.955   0.102  -2.170  0.00  0.00    -0.279 NA
ATOM      9  H   UNL     1      -3.529   0.785  -2.550  0.00  0.00    +0.189 HD
ENDROOT
BRANCH   1  12
ATOM     10  C   UNL     1      -0.532   0.190   0.005  0.00  0.00    +0.067 C 
ATOM     11  C   UNL     1      -0.401  -1.167  -0.638  0.00  0.00    +0.060 A 
ATOM     12  C   UNL     1      -1.418  -2.012  -0.917  0.00  0.00    +0.130 A 
ATOM     13  C   UNL     1      -0.870  -3.175  -1.517  0.00  0.00    +0.294 A 
ATOM     14  O   UNL     1      -1.494  -4.148  -1.900  0.00  0.00    -0.264 OA
ATOM     15  N   UNL     1       0.467  -3.008  -1.587  0.00  0.00    -0.216 N 
ATOM     16  N   UNL     1       0.770  -1.752  -1.044  0.00  0.00    -0.282 N 
ATOM     17  C   UNL     1       2.108  -1.167  -0.929  0.00  0.00    +0.171 C 
BRANCH  15  18
ATOM     18  C   UNL     1       1.385  -3.922  -2.112  0.00  0.00    +0.067 A 
ATOM     19  C   UNL     1       2.525  -4.255  -1.393  0.00  0.00    +0.028 A 
ATOM     20  C   UNL     1       3.430  -5.159  -1.914  0.00  0.00    +0.002 A 
ATOM     21  C   UNL     1       3.202  -5.731  -3.152  0.00  0.00    +0.000 A 
ATOM     22  C   UNL     1       2.068  -5.402  -3.872  0.00  0.00    +0.002 A 
ATOM     23  C   UNL     1       1.156  -4.504  -3.353  0.00  0.00    +0.028 A 
ENDBRANCH  15  18
ENDBRANCH   1  12
BRANCH   5  24
ATOM     24  C   UNL     1      -7.174  -2.525   1.169  0.00  0.00    -0.024 A 
ATOM     25  C   UNL     1      -7.648  -1.710   0.136  0.00  0.00    +0.008 A 
ATOM     26  C   UNL     1      -8.989  -1.397   0.069  0.00  0.00    +0.005 A 
ATOM     27  C   UNL     1      -9.866  -1.887   1.021  0.00  0.00    -0.042 A 
ATOM     28  C   UNL     1      -9.405  -2.695   2.047  0.00  0.00    +0.005 A 
ATOM     29  C   UNL     1      -8.068  -3.021   2.124  0.00  0.00    +0.008 A 
BRANCH  27  30
ATOM     30  C   UNL     1     -11.330  -1.540   0.941  0.00  0.00    -0.013 C 
ATOM     31  C   UNL     1     -11.902  -2.043  -0.386  0.00  0.00    +0.015 C 
ATOM     32  C   UNL     1     -12.075  -2.202   2.102  0.00  0.00    +0.015 C 
ATOM     33  C   UNL     1     -11.499  -0.021   1.026  0.00  0.00    +0.015 C 
ENDBRANCH  27  30
ENDBRANCH   5  24
TORSDOF 4
