REMARK  Name = ZINC02177980
REMARK  10 active torsions:
REMARK  status: ('A' for Active; 'I' for Inactive)
REMARK    1  A    between atoms: C_1  and  C_2
REMARK    2  A    between atoms: C_2  and  C_4
REMARK    3  A    between atoms: C_2  and  N_50
REMARK    4  A    between atoms: C_10  and  C_11
REMARK    5  A    between atoms: C_10  and  N_50
REMARK    6  A    between atoms: C_13  and  O_28
REMARK    7  A    between atoms: C_14  and  O_18
REMARK    8  A    between atoms: O_18  and  C_19
REMARK    9  A    between atoms: C_19  and  C_20
REMARK   10  A    between atoms: O_28  and  C_29
REMARK                            x       y       z     vdW  Elec       q    Type
REMARK                         _______ _______ _______ _____ _____    ______ ____
ROOT
ATOM      1  C   UNL     1      -3.904  -0.029   0.567  0.00  0.00    -0.060 A 
ATOM      2  C   UNL     1      -2.590   0.365   0.396  0.00  0.00    +0.051 A 
ATOM      3  C   UNL     1      -1.976   1.163   1.348  0.00  0.00    +0.163 A 
ATOM      4  C   UNL     1      -2.688   1.575   2.470  0.00  0.00    +0.176 A 
ATOM      5  C   UNL     1      -4.007   1.181   2.634  0.00  0.00    +0.063 A 
ATOM      6  C   UNL     1      -4.612   0.381   1.681  0.00  0.00    +0.021 A 
ATOM      7 BR   UNL     1      -4.979   1.739   4.157  0.00  0.00    -0.046 Br
ENDROOT
BRANCH   3   8
ATOM      8  O   UNL     1      -0.682   1.547   1.184  0.00  0.00    -0.491 OA
ATOM      9  C   UNL     1      -0.013   1.086   0.008  0.00  0.00    +0.277 C 
ENDBRANCH   3   8
BRANCH   1  10
ATOM     10  C   UNL     1      -4.568  -0.902  -0.466  0.00  0.00    -0.046 C 
BRANCH  10  11
ATOM     11  N   UNL     1      -5.205  -0.046  -1.485  0.00  0.00    +0.386 N 
ATOM     12  H   UNL     1      -5.905   0.554  -1.033  0.00  0.00    -0.085 HD
ATOM     13  H   UNL     1      -4.489   0.540  -1.931  0.00  0.00    -0.085 HD
BRANCH  11  15
ATOM     14  C   UNL     1      -7.269  -1.251  -2.039  0.00  0.00    -0.009 C 
ATOM     15  C   UNL     1      -5.864  -0.875  -2.512  0.00  0.00    -0.044 C 
BRANCH  15  16
ATOM     16  C   UNL     1      -5.958  -0.091  -3.795  0.00  0.00    -0.062 A 
ATOM     17  C   UNL     1      -6.275   1.254  -3.761  0.00  0.00    +0.002 A 
ATOM     18  C   UNL     1      -6.357   1.975  -4.938  0.00  0.00    +0.000 A 
ATOM     19  C   UNL     1      -6.132   1.348  -6.150  0.00  0.00    +0.000 A 
ATOM     20  C   UNL     1      -5.820   0.002  -6.184  0.00  0.00    +0.000 A 
ATOM     21  C   UNL     1      -5.733  -0.718  -5.006  0.00  0.00    +0.002 A 
ENDBRANCH  15  16
ENDBRANCH  11  15
ENDBRANCH  10  11
ENDBRANCH   1  10
BRANCH   4  22
ATOM     22  O   UNL     1      -2.091   2.362   3.405  0.00  0.00    -0.483 OA
BRANCH  22  23
ATOM     23  C   UNL     1      -2.193   3.776   3.224  0.00  0.00    +0.266 C 
BRANCH  23  24
ATOM     24  C   UNL     1      -1.477   4.479   4.349  0.00  0.00    +0.008 A 
ATOM     25  C   UNL     1      -0.857   3.743   5.341  0.00  0.00    +0.010 A 
ATOM     26  C   UNL     1      -0.201   4.388   6.372  0.00  0.00    +0.020 A 
ATOM     27  C   UNL     1      -0.163   5.770   6.412  0.00  0.00    +0.042 A 
ATOM     28  C   UNL     1      -0.783   6.507   5.419  0.00  0.00    +0.040 A 
ATOM     29  C   UNL     1      -1.436   5.862   4.384  0.00  0.00    +0.049 A 
ATOM     30 CL   UNL     1      -2.209   6.786   3.135  0.00  0.00    -0.083 Cl
ATOM     31 CL   UNL     1       0.662   6.580   7.707  0.00  0.00    -0.083 Cl
ENDBRANCH  23  24
ENDBRANCH  22  23
ENDBRANCH   4  22
TORSDOF 8
