REMARK  Name = ZINC10431328
REMARK  8 active torsions:
REMARK  status: ('A' for Active; 'I' for Inactive)
REMARK    1  A    between atoms: C_1  and  C_2
REMARK    2  A    between atoms: C_2  and  N_3
REMARK    3  A    between atoms: N_3  and  C_4
REMARK    4  A    between atoms: N_3  and  C_16
REMARK    5  A    between atoms: C_4  and  C_5
REMARK    6  A    between atoms: C_17  and  N_32
REMARK    7  A    between atoms: N_18  and  C_25
REMARK    8  A    between atoms: C_25  and  C_26
REMARK                            x       y       z     vdW  Elec       q    Type
REMARK                         _______ _______ _______ _____ _____    ______ ____
ROOT
ATOM      1  C   UNL     1      -2.928   5.454  -2.995  0.00  0.00    +0.134 A 
ATOM      2  C   UNL     1      -2.563   5.436  -1.676  0.00  0.00    +0.127 A 
ATOM      3  N   UNL     1      -2.774   4.297  -0.933  0.00  0.00    -0.276 N 
ATOM      4  C   UNL     1      -3.342   3.214  -1.494  0.00  0.00    +0.331 A 
ATOM      5  O   UNL     1      -3.524   2.217  -0.822  0.00  0.00    -0.246 OA
ATOM      6  N   UNL     1      -3.711   3.216  -2.788  0.00  0.00    -0.273 N 
ATOM      7  H   UNL     1      -4.131   2.400  -3.184  0.00  0.00    +0.173 HD
ATOM      8  C   UNL     1      -3.519   4.307  -3.555  0.00  0.00    +0.277 A 
ATOM      9  O   UNL     1      -3.856   4.300  -4.727  0.00  0.00    -0.266 OA
ENDROOT
BRANCH   2  10
ATOM     10  N   UNL     1      -1.987   6.545  -1.100  0.00  0.00    -0.343 N 
ATOM     11  H   UNL     1      -1.728   6.526  -0.165  0.00  0.00    +0.144 HD
ATOM     12  H   UNL     1      -1.841   7.346  -1.627  0.00  0.00    +0.144 HD
ENDBRANCH   2  10
BRANCH   1  13
ATOM     13  N   UNL     1      -2.717   6.610  -3.782  0.00  0.00    -0.319 N 
BRANCH  13  15
ATOM     14  C   UNL     1      -3.767   8.606  -4.737  0.00  0.00    +0.024 C 
ATOM     15  C   UNL     1      -3.994   7.179  -4.233  0.00  0.00    +0.102 C 
ENDBRANCH  13  15
BRANCH  13  16
ATOM     16  C   UNL     1      -1.839   6.317  -4.923  0.00  0.00    +0.141 C 
BRANCH  16  17
ATOM     17  C   UNL     1      -0.452   6.009  -4.424  0.00  0.00    -0.013 A 
ATOM     18  C   UNL     1      -0.019   4.699  -4.351  0.00  0.00    +0.055 A 
ATOM     19  C   UNL     1       1.260   4.413  -3.897  0.00  0.00    +0.162 A 
ATOM     20  C   UNL     1       2.102   5.447  -3.506  0.00  0.00    +0.163 A 
ATOM     21  C   UNL     1       1.660   6.760  -3.575  0.00  0.00    +0.065 A 
ATOM     22  C   UNL     1       0.385   7.039  -4.033  0.00  0.00    +0.026 A 
ATOM     23 BR   UNL     1      -0.214   8.830  -4.124  0.00  0.00    -0.050 Br
ATOM     24  O   UNL     1       3.361   5.189  -3.057  0.00  0.00    -0.485 OA
ATOM     25  C   UNL     1       3.636   3.844  -2.651  0.00  0.00    +0.270 C 
ATOM     26  C   UNL     1       3.082   2.895  -3.723  0.00  0.00    +0.270 C 
ATOM     27  O   UNL     1       1.672   3.117  -3.833  0.00  0.00    -0.485 OA
ENDBRANCH  16  17
ENDBRANCH  13  16
ENDBRANCH   1  13
BRANCH   3  28
ATOM     28  C   UNL     1      -2.383   4.265   0.478  0.00  0.00    +0.163 C 
BRANCH  28  29
ATOM     29  C   UNL     1      -0.964   3.771   0.596  0.00  0.00    -0.028 A 
ATOM     30  C   UNL     1      -0.712   2.418   0.729  0.00  0.00    +0.005 A 
ATOM     31  C   UNL     1       0.589   1.965   0.842  0.00  0.00    +0.000 A 
ATOM     32  C   UNL     1       1.639   2.864   0.810  0.00  0.00    +0.000 A 
ATOM     33  C   UNL     1       1.387   4.216   0.671  0.00  0.00    +0.000 A 
ATOM     34  C   UNL     1       0.086   4.670   0.564  0.00  0.00    +0.005 A 
ENDBRANCH  28  29
ENDBRANCH   3  28
TORSDOF 7
