REMARK  Name = ZINC02326709
REMARK  8 active torsions:
REMARK  status: ('A' for Active; 'I' for Inactive)
REMARK    1  A    between atoms: C_1  and  C_2
REMARK    2  A    between atoms: C_2  and  C_3
REMARK    3  A    between atoms: C_3  and  C_4
REMARK    4  A    between atoms: C_4  and  C_5
REMARK    5  A    between atoms: C_11  and  S_15
REMARK    6  A    between atoms: S_15  and  C_16
REMARK    7  A    between atoms: C_16  and  C_17
REMARK    8  A    between atoms: N_19  and  C_20
REMARK                            x       y       z     vdW  Elec       q    Type
REMARK                         _______ _______ _______ _____ _____    ______ ____
ROOT
ATOM      1  C   UNL     1      -0.648   1.622   8.933  0.00  0.00    +0.046 A 
ATOM      2  C   UNL     1       0.499   0.842   8.868  0.00  0.00    -0.022 A 
ATOM      3  C   UNL     1       1.014   0.481   7.644  0.00  0.00    -0.031 A 
ATOM      4  C   UNL     1       0.366   0.912   6.465  0.00  0.00    +0.037 A 
ATOM      5  C   UNL     1       0.753   0.635   5.069  0.00  0.00    +0.092 A 
ATOM      6  C   UNL     1      -0.074   1.189   4.084  0.00  0.00    +0.072 A 
ATOM      7  C   UNL     1       0.194   0.993   2.735  0.00  0.00    +0.115 A 
ATOM      8  N   UNL     1       1.256   0.260   2.402  0.00  0.00    -0.228 NA
ATOM      9  C   UNL     1       2.029  -0.250   3.344  0.00  0.00    +0.223 A 
ATOM     10  N   UNL     1       1.806  -0.086   4.624  0.00  0.00    -0.234 NA
ATOM     11  S   UNL     1      -1.330   2.052   4.986  0.00  0.00    -0.064 S 
ATOM     12  C   UNL     1      -0.788   1.698   6.639  0.00  0.00    +0.111 A 
ATOM     13  N   UNL     1      -1.248   2.022   7.829  0.00  0.00    -0.244 NA
ATOM     14  C   UNL     1       2.254  -0.361   7.828  0.00  0.00    +0.036 C 
ATOM     15  C   UNL     1       2.199  -0.839   9.295  0.00  0.00    +0.009 C 
ATOM     16  C   UNL     1       1.360   0.266   9.972  0.00  0.00    +0.037 C 
ENDROOT
BRANCH   1  17
ATOM     17  C   UNL     1      -1.210   2.015  10.274  0.00  0.00    +0.056 C 
BRANCH  17  18
ATOM     18  C   UNL     1      -0.590   3.341  10.719  0.00  0.00    +0.006 C 
BRANCH  18  20
ATOM     19  C   UNL     1      -0.540   5.066  12.526  0.00  0.00    +0.004 C 
ATOM     20  C   UNL     1      -1.161   3.740  12.081  0.00  0.00    -0.003 C 
ENDBRANCH  18  20
ENDBRANCH  17  18
ENDBRANCH   1  17
BRANCH   7  21
ATOM     21  S   UNL     1      -0.847   1.691   1.497  0.00  0.00    -0.095 S 
BRANCH  21  22
ATOM     22  C   UNL     1      -0.003   1.101   0.008  0.00  0.00    +0.172 C 
BRANCH  22  23
ATOM     23  C   UNL     1      -0.738   1.591  -1.213  0.00  0.00    +0.227 C 
ATOM     24  O   UNL     1      -1.735   2.271  -1.089  0.00  0.00    -0.275 OA
ATOM     25  N   UNL     1      -0.288   1.272  -2.443  0.00  0.00    -0.284 N 
ATOM     26  H   UNL     1       0.543   0.784  -2.544  0.00  0.00    +0.155 HD
BRANCH  25  27
ATOM     27  C   UNL     1      -1.022   1.647  -3.575  0.00  0.00    +0.052 A 
ATOM     28  C   UNL     1      -1.723   2.845  -3.585  0.00  0.00    +0.026 A 
ATOM     29  C   UNL     1      -2.445   3.213  -4.704  0.00  0.00    +0.022 A 
ATOM     30  C   UNL     1      -2.471   2.388  -5.814  0.00  0.00    +0.042 A 
ATOM     31  C   UNL     1      -1.774   1.192  -5.808  0.00  0.00    +0.041 A 
ATOM     32  C   UNL     1      -1.046   0.822  -4.694  0.00  0.00    +0.064 A 
ATOM     33 CL   UNL     1      -0.166  -0.674  -4.688  0.00  0.00    -0.082 Cl
ATOM     34 CL   UNL     1      -3.381   2.853  -7.218  0.00  0.00    -0.083 Cl
ENDBRANCH  25  27
ENDBRANCH  22  23
ENDBRANCH  21  22
ENDBRANCH   7  21
TORSDOF 7
