REMARK  Name = ZINC62508290
REMARK  4 active torsions:
REMARK  status: ('A' for Active; 'I' for Inactive)
REMARK    1  A    between atoms: C_5  and  N_7
REMARK    2  A    between atoms: C_8  and  C_10
REMARK    3  A    between atoms: C_10  and  C_12
REMARK    4  A    between atoms: C_10  and  C_19
REMARK                            x       y       z     vdW  Elec       q    Type
REMARK                         _______ _______ _______ _____ _____    ______ ____
ROOT
ATOM      1  N   UNL     1       1.052  -2.146  -0.624  0.00  0.00    -0.282 N 
ATOM      2  C   UNL     1       0.092  -2.777   0.080  0.00  0.00    +0.225 C 
ATOM      3  O   UNL     1      -0.783  -2.135   0.623  0.00  0.00    -0.275 OA
ATOM      4  H   UNL     1       1.715  -2.661  -1.110  0.00  0.00    +0.155 HD
ENDROOT
BRANCH   1   9
ATOM      5  C   UNL     1      -0.038   1.370  -0.536  0.00  0.00    +0.004 A 
ATOM      6  C   UNL     1       1.164   2.030  -0.716  0.00  0.00    +0.027 A 
ATOM      7  C   UNL     1       2.336   1.305  -0.866  0.00  0.00    +0.078 A 
ATOM      8  C   UNL     1       2.302  -0.086  -0.837  0.00  0.00    +0.163 A 
ATOM      9  C   UNL     1       1.093  -0.745  -0.655  0.00  0.00    +0.077 A 
ATOM     10  C   UNL     1      -0.077  -0.011  -0.505  0.00  0.00    +0.027 A 
ATOM     11  O   UNL     1       3.458  -0.788  -0.988  0.00  0.00    -0.479 OA
ATOM     12  C   UNL     1       4.453  -0.211  -1.838  0.00  0.00    +0.325 C 
ATOM     13  C   UNL     1       4.620   1.250  -1.502  0.00  0.00    +0.255 C 
ATOM     14  O   UNL     1       5.699   1.786  -1.639  0.00  0.00    -0.272 OA
ATOM     15  N   UNL     1       3.563   1.958  -1.049  0.00  0.00    -0.280 N 
ATOM     16  H   UNL     1       3.652   2.904  -0.852  0.00  0.00    +0.155 HD
ENDBRANCH   1   9
BRANCH   2  17
ATOM     17  C   UNL     1       0.104  -4.279   0.193  0.00  0.00    +0.108 C 
BRANCH  17  18
ATOM     18  C   UNL     1      -1.311  -4.795   0.188  0.00  0.00    -0.035 A 
ATOM     19  C   UNL     1      -2.198  -4.390   1.168  0.00  0.00    +0.006 A 
ATOM     20  C   UNL     1      -3.497  -4.863   1.164  0.00  0.00    +0.020 A 
ATOM     21  C   UNL     1      -3.909  -5.742   0.179  0.00  0.00    +0.041 A 
ATOM     22  C   UNL     1      -3.021  -6.148  -0.801  0.00  0.00    +0.020 A 
ATOM     23  C   UNL     1      -1.724  -5.670  -0.800  0.00  0.00    +0.006 A 
ATOM     24 CL   UNL     1      -5.540  -6.337   0.173  0.00  0.00    -0.084 Cl
ENDBRANCH  17  18
BRANCH  17  25
ATOM     25  C   UNL     1       0.791  -4.687   1.498  0.00  0.00    +0.005 C 
ATOM     26  C   UNL     1       2.289  -4.323   1.443  0.00  0.00    +0.004 C 
ATOM     27  C   UNL     1       2.991  -5.490   2.180  0.00  0.00    +0.000 C 
ATOM     28  C   UNL     1       2.171  -6.723   1.727  0.00  0.00    +0.000 C 
ATOM     29  C   UNL     1       0.716  -6.213   1.679  0.00  0.00    +0.004 C 
ENDBRANCH  17  25
ENDBRANCH   2  17
TORSDOF 4
