REMARK  Name = ZINC61698613
REMARK  6 active torsions:
REMARK  status: ('A' for Active; 'I' for Inactive)
REMARK    1  A    between atoms: C_1  and  C_2
REMARK    2  A    between atoms: C_2  and  C_4
REMARK    3  A    between atoms: C_2  and  N_22
REMARK    4  A    between atoms: C_7  and  O_11
REMARK    5  A    between atoms: O_11  and  C_12
REMARK    6  A    between atoms: C_17  and  N_18
REMARK                            x       y       z     vdW  Elec       q    Type
REMARK                         _______ _______ _______ _____ _____    ______ ____
ROOT
ATOM      1  C   UNL     1       0.663  -0.507  -1.257  0.00  0.00    -0.061 A 
ATOM      2  C   UNL     1       2.045  -0.482  -1.302  0.00  0.00    +0.005 A 
ATOM      3  C   UNL     1       2.709  -0.921  -2.430  0.00  0.00    +0.047 A 
ATOM      4  C   UNL     1       1.989  -1.388  -3.520  0.00  0.00    +0.142 A 
ATOM      5  C   UNL     1       0.602  -1.413  -3.473  0.00  0.00    +0.060 A 
ATOM      6  C   UNL     1      -0.058  -0.977  -2.339  0.00  0.00    +0.021 A 
ATOM      7 BR   UNL     1      -0.384  -2.048  -4.956  0.00  0.00    -0.046 Br
ENDROOT
BRANCH   1   9
ATOM      8  C   UNL     1      -0.131   1.501  -0.037  0.00  0.00    -0.009 C 
ATOM      9  C   UNL     1      -0.059  -0.027  -0.024  0.00  0.00    -0.047 C 
BRANCH   9  10
ATOM     10  N   UNL     1       0.667  -0.473   1.173  0.00  0.00    +0.382 N 
ATOM     11  H   UNL     1       0.184  -0.151   1.998  0.00  0.00    -0.089 HD
ATOM     12  H   UNL     1       0.715  -1.481   1.182  0.00  0.00    -0.089 HD
ATOM     13  H   UNL     1       1.602  -0.092   1.161  0.00  0.00    -0.089 HD
ENDBRANCH   9  10
ENDBRANCH   1   9
BRANCH   4  14
ATOM     14  O   UNL     1       2.640  -1.820  -4.632  0.00  0.00    -0.453 OA
BRANCH  14  15
ATOM     15  C   UNL     1       2.757  -0.960  -5.678  0.00  0.00    +0.159 A 
ATOM     16  C   UNL     1       2.327   0.353  -5.549  0.00  0.00    +0.050 A 
ATOM     17  C   UNL     1       2.446   1.226  -6.613  0.00  0.00    +0.024 A 
ATOM     18  C   UNL     1       2.994   0.791  -7.807  0.00  0.00    +0.043 A 
ATOM     19  C   UNL     1       3.423  -0.518  -7.938  0.00  0.00    +0.056 A 
ATOM     20  C   UNL     1       3.311  -1.392  -6.874  0.00  0.00    +0.170 A 
ATOM     21 CL   UNL     1       3.142   1.889  -9.144  0.00  0.00    -0.083 Cl
BRANCH  20  22
ATOM     22  N   UNL     1       3.776  -2.791  -7.012  0.00  0.00    +0.060 N 
ATOM     23  O   UNL     1       4.258  -3.167  -8.055  0.00  0.00    -0.126 OA
ATOM     24  O   UNL     1       3.673  -3.557  -6.082  0.00  0.00    -0.126 OA
ENDBRANCH  20  22
ENDBRANCH  14  15
ENDBRANCH   4  14
TORSDOF 5
