REMARK  Name = ZINC09667805
REMARK  6 active torsions:
REMARK  status: ('A' for Active; 'I' for Inactive)
REMARK    1  A    between atoms: C_4  and  C_7
REMARK    2  A    between atoms: C_12  and  S_16
REMARK    3  A    between atoms: C_14  and  O_15
REMARK    4  A    between atoms: S_16  and  C_17
REMARK    5  A    between atoms: C_17  and  C_18
REMARK    6  A    between atoms: C_18  and  C_20
REMARK                            x       y       z     vdW  Elec       q    Type
REMARK                         _______ _______ _______ _____ _____    ______ ____
ROOT
ATOM      1  C   UNL     1       1.248  -2.163  -0.021  0.00  0.00    +0.108 A 
ATOM      2  C   UNL     1       1.790  -2.880   1.067  0.00  0.00    +0.263 A 
ATOM      3  O   UNL     1       2.246  -2.293   2.034  0.00  0.00    -0.267 OA
ATOM      4  N   UNL     1       1.789  -4.229   1.018  0.00  0.00    -0.301 N 
ATOM      5  H   UNL     1       2.154  -4.740   1.758  0.00  0.00    +0.171 HD
ATOM      6  C   UNL     1       1.282  -4.874  -0.068  0.00  0.00    +0.173 A 
ATOM      7  N   UNL     1       0.779  -4.214  -1.092  0.00  0.00    -0.188 NA
ATOM      8  C   UNL     1       0.743  -2.881  -1.108  0.00  0.00    +0.228 A 
ENDROOT
BRANCH   1  12
ATOM      9  C   UNL     1       1.170   2.086   0.002  0.00  0.00    +0.000 A 
ATOM     10  C   UNL     1      -0.017   1.375   0.010  0.00  0.00    +0.001 A 
ATOM     11  C   UNL     1       0.002  -0.004   0.002  0.00  0.00    +0.009 A 
ATOM     12  C   UNL     1       1.221  -0.682  -0.013  0.00  0.00    -0.008 A 
ATOM     13  C   UNL     1       2.414   0.040  -0.021  0.00  0.00    +0.009 A 
ATOM     14  C   UNL     1       2.382   1.420  -0.013  0.00  0.00    +0.001 A 
ENDBRANCH   1  12
BRANCH   8  15
ATOM     15  O   UNL     1       0.221  -2.227  -2.171  0.00  0.00    -0.492 OA
ATOM     16  H   UNL     1      -0.102  -2.811  -2.872  0.00  0.00    +0.294 HD
ENDBRANCH   8  15
BRANCH   6  17
ATOM     17  S   UNL     1       1.300  -6.636  -0.108  0.00  0.00    -0.080 S 
BRANCH  17  18
ATOM     18  C   UNL     1       0.534  -6.922  -1.722  0.00  0.00    +0.156 C 
BRANCH  18  19
ATOM     19  C   UNL     1       0.442  -8.404  -1.979  0.00  0.00    +0.173 C 
ATOM     20  O   UNL     1       0.854  -9.190  -1.152  0.00  0.00    -0.291 OA
BRANCH  19  21
ATOM     21  C   UNL     1      -0.147  -8.898  -3.233  0.00  0.00    +0.018 A 
ATOM     22  C   UNL     1      -0.629  -7.995  -4.187  0.00  0.00    +0.013 A 
ATOM     23  C   UNL     1      -1.174  -8.466  -5.362  0.00  0.00    +0.020 A 
ATOM     24  C   UNL     1      -1.258  -9.829  -5.594  0.00  0.00    +0.041 A 
ATOM     25  C   UNL     1      -0.788 -10.729  -4.651  0.00  0.00    +0.020 A 
ATOM     26  C   UNL     1      -0.234 -10.274  -3.474  0.00  0.00    +0.013 A 
ATOM     27 CL   UNL     1      -1.953 -10.412  -7.074  0.00  0.00    -0.084 Cl
ENDBRANCH  19  21
ENDBRANCH  18  19
ENDBRANCH  17  18
ENDBRANCH   6  17
TORSDOF 6
