REMARK  Name = ZINC43095968
REMARK  6 active torsions:
REMARK  status: ('A' for Active; 'I' for Inactive)
REMARK    1  A    between atoms: C_1  and  C_2
REMARK    2  A    between atoms: C_2  and  C_4
REMARK    3  A    between atoms: C_2  and  N_23
REMARK    4  A    between atoms: C_4  and  C_6
REMARK    5  A    between atoms: C_4  and  S_13
REMARK    6  A    between atoms: S_13  and  C_14
REMARK                            x       y       z     vdW  Elec       q    Type
REMARK                         _______ _______ _______ _____ _____    ______ ____
ROOT
ATOM      1  C   UNL     1       0.627  -0.515   1.172  0.00  0.00    +0.072 C 
ENDROOT
BRANCH   1   2
ATOM      2  C   UNL     1      -0.057   0.025   2.402  0.00  0.00    -0.022 A 
ATOM      3  C   UNL     1      -1.006  -0.738   3.057  0.00  0.00    +0.006 A 
ATOM      4  C   UNL     1      -1.632  -0.242   4.185  0.00  0.00    +0.000 A 
ATOM      5  C   UNL     1      -1.310   1.016   4.659  0.00  0.00    +0.001 A 
ATOM      6  C   UNL     1      -0.361   1.779   4.005  0.00  0.00    +0.015 A 
ATOM      7  C   UNL     1       0.270   1.282   2.879  0.00  0.00    +0.022 A 
ATOM      8 BR   UNL     1       1.573   2.322   1.988  0.00  0.00    -0.050 Br
ENDBRANCH   1   2
BRANCH   1  10
ATOM      9  C   UNL     1      -1.538  -0.536  -0.076  0.00  0.00    -0.013 C 
ATOM     10  C   UNL     1      -0.100  -0.013  -0.077  0.00  0.00    -0.060 C 
BRANCH  10  11
ATOM     11  N   UNL     1      -0.113   1.456  -0.079  0.00  0.00    +0.381 N 
ATOM     12  H   UNL     1      -0.515   1.789   0.785  0.00  0.00    -0.090 HD
ATOM     13  H   UNL     1       0.831   1.801  -0.166  0.00  0.00    -0.090 HD
ATOM     14  H   UNL     1      -0.665   1.786  -0.856  0.00  0.00    -0.090 HD
ENDBRANCH  10  11
ENDBRANCH   1  10
BRANCH   1  15
ATOM     15  S   UNL     1       0.589  -2.329   1.206  0.00  0.00    -0.061 S 
BRANCH  15  16
ATOM     16  C   UNL     1       1.626  -2.802  -0.136  0.00  0.00    +0.258 A 
ATOM     17  N   UNL     1       2.187  -1.973  -0.981  0.00  0.00    -0.203 NA
ATOM     18  C   UNL     1       2.915  -2.691  -1.879  0.00  0.00    +0.110 A 
ATOM     19  C   UNL     1       3.704  -2.343  -2.977  0.00  0.00    +0.031 A 
ATOM     20  C   UNL     1       4.330  -3.329  -3.708  0.00  0.00    +0.002 A 
ATOM     21  C   UNL     1       4.180  -4.663  -3.359  0.00  0.00    +0.004 A 
ATOM     22  C   UNL     1       3.402  -5.020  -2.276  0.00  0.00    +0.048 A 
ATOM     23  C   UNL     1       2.766  -4.041  -1.530  0.00  0.00    +0.156 A 
ATOM     24  O   UNL     1       1.964  -4.068  -0.441  0.00  0.00    -0.431 OA
ENDBRANCH  15  16
ENDBRANCH   1  15
TORSDOF 5
