REMARK  Name = ZINC39960845
REMARK  11 active torsions:
REMARK  status: ('A' for Active; 'I' for Inactive)
REMARK    1  A    between atoms: C_1  and  C_2
REMARK    2  A    between atoms: C_2  and  C_3
REMARK    3  A    between atoms: C_3  and  C_4
REMARK    4  A    between atoms: C_7  and  O_10
REMARK    5  A    between atoms: O_10  and  C_11
REMARK    6  A    between atoms: C_15  and  C_17
REMARK    7  A    between atoms: C_20  and  O_24
REMARK    8  A    between atoms: C_22  and  O_23
REMARK    9  A    between atoms: O_24  and  C_25
REMARK   10  A    between atoms: C_25  and  C_26
REMARK   11  A    between atoms: N_29  and  C_31
REMARK                            x       y       z     vdW  Elec       q    Type
REMARK                         _______ _______ _______ _____ _____    ______ ____
ROOT
ATOM      1  C   UNL     1      -2.528  -9.040   0.611  0.00  0.00    +0.025 A 
ATOM      2  C   UNL     1      -3.659  -9.336   1.348  0.00  0.00    +0.013 A 
ATOM      3  C   UNL     1      -4.749  -9.925   0.737  0.00  0.00    +0.046 A 
ATOM      4  C   UNL     1      -4.711 -10.221  -0.618  0.00  0.00    +0.124 A 
ATOM      5  C   UNL     1      -3.578  -9.925  -1.359  0.00  0.00    +0.091 A 
ATOM      6  C   UNL     1      -2.487  -9.328  -0.746  0.00  0.00    +0.126 A 
ENDROOT
BRANCH   1  11
ATOM      7  C   UNL     1      -1.387  -6.887   1.123  0.00  0.00    +0.153 C 
ATOM      8  C   UNL     1      -1.470  -6.437   2.391  0.00  0.00    +0.176 C 
ATOM      9  N   UNL     1      -1.474  -7.457   3.256  0.00  0.00    -0.182 NA
ATOM     10  N   UNL     1      -1.402  -8.575   2.741  0.00  0.00    -0.294 N 
ATOM     11  C   UNL     1      -1.341  -8.397   1.280  0.00  0.00    +0.199 C 
ATOM     12  H   UNL     1      -1.392  -9.422   3.214  0.00  0.00    +0.184 HD
BRANCH   7  13
ATOM     13  O   UNL     1      -1.357  -6.165  -0.018  0.00  0.00    -0.456 OA
BRANCH  13  17
ATOM     14  C   UNL     1       2.113  -6.212  -2.249  0.00  0.00    -0.047 A 
ATOM     15  C   UNL     1       2.075  -6.842  -1.018  0.00  0.00    +0.007 A 
ATOM     16  C   UNL     1       0.914  -6.828  -0.269  0.00  0.00    +0.046 A 
ATOM     17  C   UNL     1      -0.214  -6.180  -0.753  0.00  0.00    +0.128 A 
ATOM     18  C   UNL     1      -0.173  -5.549  -1.988  0.00  0.00    +0.046 A 
ATOM     19  C   UNL     1       0.992  -5.562  -2.730  0.00  0.00    +0.007 A 
BRANCH  14  20
ATOM     20  C   UNL     1       3.380  -6.229  -3.064  0.00  0.00    +0.035 C 
BRANCH  20  22
ATOM     21  C   UNL     1       5.526  -5.035  -3.524  0.00  0.00    +0.004 C 
ATOM     22  C   UNL     1       4.239  -5.017  -2.696  0.00  0.00    +0.001 C 
ENDBRANCH  20  22
ENDBRANCH  14  20
ENDBRANCH  13  17
ENDBRANCH   7  13
ENDBRANCH   1  11
BRANCH   6  23
ATOM     23  O   UNL     1      -1.377  -9.031  -1.471  0.00  0.00    -0.506 OA
ATOM     24  H   UNL     1      -0.724  -9.744  -1.501  0.00  0.00    +0.292 HD
ENDBRANCH   6  23
BRANCH   4  25
ATOM     25  O   UNL     1      -5.784 -10.801  -1.218  0.00  0.00    -0.487 OA
BRANCH  25  26
ATOM     26  C   UNL     1      -6.917 -11.079  -0.393  0.00  0.00    +0.267 C 
BRANCH  26  27
ATOM     27  C   UNL     1      -8.000 -11.716  -1.225  0.00  0.00    +0.027 A 
ATOM     28  C   UNL     1      -9.009 -11.041  -1.920  0.00  0.00    +0.141 A 
ATOM     29  N   UNL     1      -9.757 -11.930  -2.523  0.00  0.00    -0.174 NA
ATOM     30  N   UNL     1      -9.247 -13.201  -2.232  0.00  0.00    -0.239 N 
ATOM     31  C   UNL     1      -8.164 -13.043  -1.437  0.00  0.00    +0.121 A 
BRANCH  30  32
ATOM     32  C   UNL     1      -9.764 -14.422  -2.687  0.00  0.00    +0.065 A 
ATOM     33  C   UNL     1      -9.160 -15.616  -2.314  0.00  0.00    +0.028 A 
ATOM     34  C   UNL     1      -9.673 -16.817  -2.764  0.00  0.00    +0.002 A 
ATOM     35  C   UNL     1     -10.786 -16.832  -3.584  0.00  0.00    +0.000 A 
ATOM     36  C   UNL     1     -11.389 -15.645  -3.957  0.00  0.00    +0.002 A 
ATOM     37  C   UNL     1     -10.885 -14.441  -3.506  0.00  0.00    +0.028 A 
ENDBRANCH  30  32
ENDBRANCH  26  27
ENDBRANCH  25  26
ENDBRANCH   4  25
TORSDOF 10
