REMARK  Name = ZINC38732128
REMARK  3 active torsions:
REMARK  status: ('A' for Active; 'I' for Inactive)
REMARK    1  A    between atoms: C_1  and  C_2
REMARK    2  A    between atoms: C_10  and  C_12
REMARK    3  A    between atoms: N_16  and  C_20
REMARK                            x       y       z     vdW  Elec       q    Type
REMARK                         _______ _______ _______ _____ _____    ______ ____
ROOT
ATOM      1  C   UNL     1       0.966   1.046  -0.218  0.00  0.00    +0.046 C 
ATOM      2  C   UNL     1       0.961  -0.457  -0.099  0.00  0.00    -0.024 A 
ATOM      3  C   UNL     1       1.183  -1.228  -1.199  0.00  0.00    +0.005 A 
ATOM      4  C   UNL     1       1.182  -2.618  -1.112  0.00  0.00    +0.001 A 
ATOM      5  C   UNL     1       0.959  -3.243   0.077  0.00  0.00    +0.010 A 
ATOM      6  C   UNL     1       0.727  -2.477   1.234  0.00  0.00    +0.001 A 
ATOM      7  C   UNL     1       0.733  -1.062   1.149  0.00  0.00    +0.076 A 
ATOM      8  N   UNL     1       0.518  -0.309   2.235  0.00  0.00    -0.231 NA
ATOM      9  C   UNL     1       0.302  -0.842   3.417  0.00  0.00    +0.129 A 
ATOM     10  C   UNL     1       0.287  -2.295   3.587  0.00  0.00    +0.017 A 
ATOM     11  C   UNL     1       0.493  -3.102   2.471  0.00  0.00    +0.021 A 
ATOM     12  N   UNL     1       0.086  -0.023   4.510  0.00  0.00    -0.315 N 
ATOM     13  C   UNL     1       1.200   0.366   5.385  0.00  0.00    +0.106 C 
ATOM     14  C   UNL     1       1.228   1.894   5.500  0.00  0.00    +0.019 C 
ATOM     15  C   UNL     1      -0.142   2.391   5.967  0.00  0.00    +0.003 C 
ATOM     16  C   UNL     1      -1.206   2.002   4.938  0.00  0.00    +0.019 C 
ATOM     17  C   UNL     1      -1.260   0.481   4.814  0.00  0.00    +0.106 C 
ENDROOT
BRANCH  10  18
ATOM     18  C   UNL     1       0.046  -2.891   4.905  0.00  0.00    +0.031 C 
ATOM     19  C   UNL     1      -0.469  -4.144   5.000  0.00  0.00    +0.077 C 
ATOM     20  C   UNL     1      -0.664  -4.994   6.192  0.00  0.00    +0.259 C 
ATOM     21  O   UNL     1      -0.352  -4.615   7.305  0.00  0.00    -0.269 OA
ATOM     22  N   UNL     1      -1.195  -6.188   5.988  0.00  0.00    -0.252 N 
ATOM     23  C   UNL     1      -1.540  -6.604   4.752  0.00  0.00    +0.121 C 
ATOM     24  S   UNL     1      -2.233  -8.099   4.288  0.00  0.00    -0.027 S 
ATOM     25  S   UNL     1      -1.105  -5.215   3.717  0.00  0.00    -0.061 S 
BRANCH  22  26
ATOM     26  C   UNL     1      -1.413  -7.079   7.130  0.00  0.00    +0.083 C 
ATOM     27  C   UNL     1      -0.618  -8.371   6.928  0.00  0.00    +0.023 C 
ATOM     28  C   UNL     1      -0.846  -9.302   8.121  0.00  0.00    +0.002 C 
ATOM     29  C   UNL     1      -2.336  -9.631   8.233  0.00  0.00    +0.000 C 
ATOM     30  C   UNL     1      -3.131  -8.339   8.435  0.00  0.00    +0.002 C 
ATOM     31  C   UNL     1      -2.903  -7.409   7.242  0.00  0.00    +0.023 C 
ENDBRANCH  22  26
ENDBRANCH  10  18
TORSDOF 2
