REMARK  Name = ZINC08780028
REMARK  8 active torsions:
REMARK  status: ('A' for Active; 'I' for Inactive)
REMARK    1  A    between atoms: C_1  and  C_2
REMARK    2  A    between atoms: C_2  and  O_3
REMARK    3  A    between atoms: O_3  and  C_4
REMARK    4  A    between atoms: C_4  and  C_6
REMARK    5  A    between atoms: C_11  and  C_12
REMARK    6  A    between atoms: C_11  and  N_48
REMARK    7  A    between atoms: C_16  and  C_22
REMARK    8  A    between atoms: C_17  and  C_21
REMARK                            x       y       z     vdW  Elec       q    Type
REMARK                         _______ _______ _______ _____ _____    ______ ____
ROOT
ATOM      1  C   UNL     1      -0.038  -0.032   0.745  0.00  0.00    +0.116 A 
ATOM      2  N   UNL     1       1.094  -0.709   0.809  0.00  0.00    -0.219 NA
ATOM      3  C   UNL     1       2.274  -0.110   0.828  0.00  0.00    +0.128 A 
ATOM      4  C   UNL     1       2.330   1.311   0.779  0.00  0.00    +0.050 A 
ATOM      5  C   UNL     1       3.482   2.195   0.787  0.00  0.00    -0.028 A 
ATOM      6  C   UNL     1       3.290   3.522   0.732  0.00  0.00    -0.008 A 
ATOM      7  S   UNL     1       1.516   3.683   0.665  0.00  0.00    -0.074 S 
ATOM      8  C   UNL     1       1.081   1.964   0.711  0.00  0.00    +0.114 A 
ATOM      9  N   UNL     1      -0.050   1.286   0.697  0.00  0.00    -0.227 NA
ATOM     10  C   UNL     1       4.327   4.615   0.729  0.00  0.00    +0.052 C 
ATOM     11  C   UNL     1       4.878   1.630   0.857  0.00  0.00    +0.045 C 
ATOM     12  N   UNL     1       3.437  -0.855   0.896  0.00  0.00    -0.343 N 
ATOM     13  H   UNL     1       3.414  -1.758   1.250  0.00  0.00    +0.144 HD
ATOM     14  H   UNL     1       4.275  -0.475   0.590  0.00  0.00    +0.144 HD
ENDROOT
BRANCH   1  15
ATOM     15  C   UNL     1      -1.345  -0.781   0.727  0.00  0.00    -0.001 C 
BRANCH  15  21
ATOM     16  C   UNL     1      -2.151  -2.715  -3.001  0.00  0.00    +0.094 C 
ATOM     17  C   UNL     1      -3.314  -2.174  -2.165  0.00  0.00    -0.004 C 
ATOM     18  C   UNL     1      -2.858  -2.005  -0.714  0.00  0.00    -0.077 C 
ATOM     19  C   UNL     1      -0.576  -1.596  -1.419  0.00  0.00    -0.077 C 
ATOM     20  C   UNL     1      -0.964  -1.754  -2.891  0.00  0.00    -0.004 C 
ATOM     21  N   UNL     1      -1.730  -1.050  -0.674  0.00  0.00    +0.384 N 
ATOM     22  H   UNL     1      -2.023  -0.169  -1.114  0.00  0.00    -0.081 HD
BRANCH  16  23
ATOM     23  C   UNL     1      -2.576  -2.827  -4.442  0.00  0.00    +0.310 C 
ATOM     24  O   UNL     1      -3.695  -2.508  -4.769  0.00  0.00    -0.251 OA
BRANCH  23  25
ATOM     25  O   UNL     1      -1.712  -3.282  -5.363  0.00  0.00    -0.465 OA
BRANCH  25  27
ATOM     26  C   UNL     1      -1.073  -3.900  -7.630  0.00  0.00    +0.048 C 
ATOM     27  C   UNL     1      -2.190  -3.364  -6.732  0.00  0.00    +0.229 C 
ENDBRANCH  25  27
ENDBRANCH  23  25
ENDBRANCH  16  23
ENDBRANCH  15  21
ENDBRANCH   1  15
TORSDOF 5
