REMARK  Name = ZINC13097381
REMARK  9 active torsions:
REMARK  status: ('A' for Active; 'I' for Inactive)
REMARK    1  A    between atoms: C_1  and  C_2
REMARK    2  A    between atoms: C_4  and  C_32
REMARK    3  A    between atoms: C_9  and  C_11
REMARK    4  A    between atoms: C_11  and  O_13
REMARK    5  A    between atoms: O_13  and  C_14
REMARK    6  A    between atoms: C_14  and  C_15
REMARK    7  A    between atoms: N_17  and  C_18
REMARK    8  A    between atoms: C_19  and  C_29
REMARK    9  A    between atoms: C_24  and  C_28
REMARK                            x       y       z     vdW  Elec       q    Type
REMARK                         _______ _______ _______ _____ _____    ______ ____
ROOT
ATOM      1  C   UNL     1       4.873   5.030  -0.018  0.00  0.00    +0.255 C 
ATOM      2  O   UNL     1       5.566   4.034  -0.030  0.00  0.00    -0.272 OA
ATOM      3  N   UNL     1       5.446   6.250  -0.018  0.00  0.00    -0.277 N 
ATOM      4  H   UNL     1       4.892   7.046  -0.008  0.00  0.00    +0.155 HD
ENDROOT
BRANCH   3   5
ATOM      5  C   UNL     1       6.827   6.367  -0.030  0.00  0.00    +0.084 A 
ATOM      6  C   UNL     1       7.595   7.523  -0.031  0.00  0.00    +0.068 A 
ATOM      7  C   UNL     1       9.040   7.370  -0.045  0.00  0.00    -0.023 A 
ATOM      8  C   UNL     1       9.483   6.094  -0.055  0.00  0.00    -0.004 A 
ATOM      9  S   UNL     1       8.015   5.105  -0.040  0.00  0.00    -0.077 S 
ATOM     10  C   UNL     1      10.908   5.633  -0.071  0.00  0.00    +0.046 C 
ATOM     11  C   UNL     1      11.798   6.825  -0.452  0.00  0.00    -0.009 C 
ATOM     12  C   UNL     1      11.391   8.034   0.395  0.00  0.00    +0.008 C 
ATOM     13  C   UNL     1      10.016   8.540  -0.048  0.00  0.00    +0.037 C 
ATOM     14  C   UNL     1      13.263   6.477  -0.183  0.00  0.00    +0.008 C 
BRANCH   6  15
ATOM     15  C   UNL     1       6.971   8.849  -0.019  0.00  0.00    +0.244 C 
ATOM     16  O   UNL     1       6.721   9.395   1.040  0.00  0.00    -0.270 OA
ATOM     17  N   UNL     1       6.674   9.465  -1.181  0.00  0.00    -0.325 N 
ATOM     18  H   UNL     1       6.873   9.031  -2.025  0.00  0.00    +0.145 HD
ATOM     19  H   UNL     1       6.261  10.343  -1.172  0.00  0.00    +0.145 HD
ENDBRANCH   6  15
ENDBRANCH   3   5
BRANCH   1  20
ATOM     20  C   UNL     1       3.371   4.902  -0.005  0.00  0.00    +0.328 C 
BRANCH  20  21
ATOM     21  O   UNL     1       3.005   3.497  -0.008  0.00  0.00    -0.450 OA
BRANCH  21  22
ATOM     22  C   UNL     1       1.689   3.209   0.003  0.00  0.00    +0.379 C 
ATOM     23  O   UNL     1       0.871   4.106   0.015  0.00  0.00    -0.241 OA
BRANCH  22  32
ATOM     24  C   UNL     1       1.135  -4.059  -0.030  0.00  0.00    +0.066 C 
ATOM     25  C   UNL     1       0.731  -2.607  -0.018  0.00  0.00    +0.044 A 
ATOM     26  C   UNL     1      -0.627  -2.261  -0.003  0.00  0.00    +0.046 A 
ATOM     27  C   UNL     1      -0.977  -0.950   0.007  0.00  0.00    +0.045 A 
ATOM     28  N   UNL     1       0.002  -0.004   0.002  0.00  0.00    -0.200 N 
ATOM     29  C   UNL     1       1.319  -0.376  -0.013  0.00  0.00    +0.254 A 
ATOM     30  N   UNL     1       1.654  -1.673  -0.022  0.00  0.00    -0.216 NA
ATOM     31  N   UNL     1       2.045   0.733  -0.013  0.00  0.00    -0.183 NA
ATOM     32  C   UNL     1       1.241   1.798  -0.000  0.00  0.00    +0.261 A 
ATOM     33  N   UNL     1      -0.017   1.397   0.010  0.00  0.00    -0.137 NA
ATOM     34  C   UNL     1      -2.429  -0.547   0.023  0.00  0.00    +0.066 C 
ENDBRANCH  22  32
ENDBRANCH  21  22
ENDBRANCH  20  21
ENDBRANCH   1  20
TORSDOF 6
