REMARK  Name = ZINC36601187
REMARK  8 active torsions:
REMARK  status: ('A' for Active; 'I' for Inactive)
REMARK    1  A    between atoms: C_1  and  C_2
REMARK    2  A    between atoms: C_5  and  C_7
REMARK    3  A    between atoms: C_7  and  N_8
REMARK    4  A    between atoms: N_8  and  C_9
REMARK    5  A    between atoms: C_9  and  C_11
REMARK    6  A    between atoms: C_9  and  C_19
REMARK    7  A    between atoms: N_21  and  C_22
REMARK    8  A    between atoms: C_28  and  C_30
REMARK                            x       y       z     vdW  Elec       q    Type
REMARK                         _______ _______ _______ _____ _____    ______ ____
ROOT
ATOM      1  C   UNL     1       3.074  -3.271  -2.194  0.00  0.00    +0.195 C 
ENDROOT
BRANCH   1   2
ATOM      2  C   UNL     1       2.196  -2.873  -3.352  0.00  0.00    +0.018 A 
ATOM      3  C   UNL     1       2.384  -3.451  -4.595  0.00  0.00    +0.048 A 
ATOM      4  C   UNL     1       1.577  -3.085  -5.657  0.00  0.00    +0.020 A 
ATOM      5  C   UNL     1       0.584  -2.141  -5.478  0.00  0.00    +0.003 A 
ATOM      6  C   UNL     1       0.395  -1.563  -4.237  0.00  0.00    +0.020 A 
ATOM      7  C   UNL     1       1.197  -1.933  -3.172  0.00  0.00    +0.048 A 
ATOM      8 CL   UNL     1       0.955  -1.212  -1.611  0.00  0.00    -0.083 Cl
ATOM      9 CL   UNL     1       3.633  -4.636  -4.821  0.00  0.00    -0.083 Cl
ENDBRANCH   1   2
BRANCH   1  10
ATOM     10  C   UNL     1       4.098  -4.273  -2.662  0.00  0.00    +0.238 C 
ATOM     11  O   UNL     1       3.865  -5.461  -2.581  0.00  0.00    -0.273 OA
ATOM     12  N   UNL     1       5.273  -3.850  -3.170  0.00  0.00    -0.311 N 
ATOM     13  H   UNL     1       5.483  -2.903  -3.180  0.00  0.00    +0.149 HD
BRANCH  12  14
ATOM     14  C   UNL     1       6.231  -4.820  -3.706  0.00  0.00    +0.073 C 
ATOM     15  C   UNL     1       7.006  -5.462  -2.554  0.00  0.00    +0.022 C 
ATOM     16  C   UNL     1       8.006  -6.475  -3.114  0.00  0.00    +0.002 C 
ATOM     17  C   UNL     1       8.983  -5.762  -4.051  0.00  0.00    +0.000 C 
ATOM     18  C   UNL     1       8.208  -5.119  -5.203  0.00  0.00    +0.002 C 
ATOM     19  C   UNL     1       7.208  -4.107  -4.643  0.00  0.00    +0.022 C 
ENDBRANCH  12  14
ENDBRANCH   1  10
BRANCH   1  20
ATOM     20  N   UNL     1       2.252  -3.869  -1.140  0.00  0.00    -0.277 N 
ATOM     21  C   UNL     1       1.239  -4.698  -1.464  0.00  0.00    +0.237 C 
ATOM     22  O   UNL     1       0.932  -4.854  -2.627  0.00  0.00    -0.274 OA
BRANCH  21  23
ATOM     23  C   UNL     1       0.489  -5.431  -0.382  0.00  0.00    +0.159 C 
ATOM     24  C   UNL     1       1.275  -6.686   0.058  0.00  0.00    +0.041 C 
ATOM     25  C   UNL     1       0.650  -7.779  -0.840  0.00  0.00    +0.098 C 
ATOM     26  C   UNL     1      -0.726  -7.246  -1.170  0.00  0.00    +0.214 C 
ATOM     27  O   UNL     1      -1.640  -7.908  -1.614  0.00  0.00    -0.276 OA
ATOM     28  N   UNL     1      -0.791  -5.929  -0.898  0.00  0.00    -0.304 N 
ATOM     29  H   UNL     1      -1.580  -5.380  -1.027  0.00  0.00    +0.149 HD
ENDBRANCH  21  23
BRANCH  20  30
ATOM     30  C   UNL     1       2.529  -3.567   0.266  0.00  0.00    +0.183 C 
BRANCH  30  35
ATOM     31  C   UNL     1       1.224   1.144   1.511  0.00  0.00    +0.086 C 
ATOM     32  C   UNL     1       1.134  -0.336   1.240  0.00  0.00    +0.102 A 
ATOM     33  C   UNL     1       0.027  -1.091   1.357  0.00  0.00    +0.045 A 
ATOM     34  C   UNL     1       0.392  -2.411   1.008  0.00  0.00    +0.046 A 
ATOM     35  C   UNL     1       1.701  -2.384   0.698  0.00  0.00    +0.122 A 
ATOM     36  O   UNL     1       2.144  -1.123   0.835  0.00  0.00    -0.463 OA
ENDBRANCH  30  35
ENDBRANCH  20  30
ENDBRANCH   1  20
TORSDOF 7
