REMARK  Name = ZINC40563910
REMARK  14 active torsions:
REMARK  status: ('A' for Active; 'I' for Inactive)
REMARK    1  A    between atoms: C_1  and  C_2
REMARK    2  A    between atoms: C_2  and  C_3
REMARK    3  A    between atoms: C_3  and  C_4
REMARK    4  A    between atoms: C_4  and  C_6
REMARK    5  A    between atoms: C_4  and  C_37
REMARK    6  A    between atoms: C_6  and  C_8
REMARK    7  A    between atoms: C_6  and  C_12
REMARK    8  A    between atoms: C_8  and  C_9
REMARK    9  A    between atoms: C_9  and  C_10
REMARK   10  A    between atoms: C_9  and  C_11
REMARK   11  A    between atoms: N_14  and  C_15
REMARK   12  A    between atoms: N_21  and  C_24
REMARK   13  A    between atoms: C_24  and  C_25
REMARK   14  A    between atoms: C_27  and  C_31
REMARK                            x       y       z     vdW  Elec       q    Type
REMARK                         _______ _______ _______ _____ _____    ______ ____
ROOT
ATOM      1  C   UNL     1       5.205  -1.919   2.193  0.00  0.00    +0.159 C 
ATOM      2  C   UNL     1       6.205  -1.737   3.338  0.00  0.00    +0.032 C 
ATOM      3  C   UNL     1       7.372  -0.872   2.900  0.00  0.00    +0.004 C 
ATOM      4  C   UNL     1       8.251  -1.517   1.844  0.00  0.00    +0.019 C 
ATOM      5  C   UNL     1       7.492  -1.671   0.524  0.00  0.00    +0.108 C 
ATOM      6  N   UNL     1       6.747  -2.941   0.554  0.00  0.00    -0.296 N 
ATOM      7  C   UNL     1       5.668  -3.071   1.326  0.00  0.00    +0.236 C 
ATOM      8  O   UNL     1       5.057  -4.119   1.336  0.00  0.00    -0.274 OA
ENDROOT
BRANCH   1  11
ATOM      9  C   UNL     1       2.777  -1.985   1.998  0.00  0.00    +0.217 C 
ATOM     10  O   UNL     1       2.887  -1.587   0.858  0.00  0.00    -0.275 OA
ATOM     11  N   UNL     1       3.879  -2.216   2.740  0.00  0.00    -0.304 N 
ATOM     12  H   UNL     1       3.793  -2.579   3.635  0.00  0.00    +0.149 HD
BRANCH   9  13
ATOM     13  C   UNL     1       1.410  -2.222   2.586  0.00  0.00    +0.087 C 
BRANCH  13  14
ATOM     14  C   UNL     1       0.358  -1.508   1.734  0.00  0.00    +0.087 C 
BRANCH  14  15
ATOM     15  C   UNL     1      -0.975  -1.560   2.435  0.00  0.00    +0.214 C 
ATOM     16  O   UNL     1      -1.410  -0.571   2.984  0.00  0.00    -0.276 OA
ATOM     17  N   UNL     1      -1.683  -2.707   2.450  0.00  0.00    -0.329 N 
ATOM     18  H   UNL     1      -1.307  -3.515   2.068  0.00  0.00    +0.145 HD
ATOM     19  H   UNL     1      -2.569  -2.724   2.845  0.00  0.00    +0.145 HD
ENDBRANCH  14  15
BRANCH  14  20
ATOM     20  C   UNL     1       0.771  -0.049   1.531  0.00  0.00    +0.013 C 
BRANCH  20  22
ATOM     21  C   UNL     1       0.199   2.091   0.376  0.00  0.00    +0.004 C 
ATOM     22  C   UNL     1      -0.214   0.632   0.578  0.00  0.00    -0.003 C 
ENDBRANCH  20  22
ENDBRANCH  14  20
ENDBRANCH  13  14
BRANCH  13  23
ATOM     23  C   UNL     1       1.117  -3.724   2.606  0.00  0.00    +0.016 C 
BRANCH  23  24
ATOM     24  C   UNL     1       1.724  -4.378   1.364  0.00  0.00    -0.016 C 
ATOM     25  C   UNL     1       1.479  -5.888   1.411  0.00  0.00    +0.007 C 
ATOM     26  C   UNL     1       1.072  -3.795   0.109  0.00  0.00    +0.007 C 
ENDBRANCH  23  24
ENDBRANCH  13  23
ENDBRANCH   9  13
ENDBRANCH   1  11
BRANCH   6  27
ATOM     27  C   UNL     1       7.191  -4.065  -0.272  0.00  0.00    +0.144 C 
BRANCH  27  28
ATOM     28  C   UNL     1       8.166  -4.908   0.508  0.00  0.00    -0.011 A 
ATOM     29  C   UNL     1       9.523  -4.634   0.461  0.00  0.00    +0.018 A 
ATOM     30  C   UNL     1      10.389  -5.443   1.202  0.00  0.00    +0.019 A 
ATOM     31  C   UNL     1       9.856  -6.488   1.956  0.00  0.00    +0.120 A 
ATOM     32  N   UNL     1       8.558  -6.710   1.970  0.00  0.00    -0.262 NA
ATOM     33  C   UNL     1       7.716  -5.960   1.284  0.00  0.00    +0.116 A 
BRANCH  30  34
ATOM     34  C   UNL     1      11.851  -5.194   1.188  0.00  0.00    +0.072 A 
ATOM     35  C   UNL     1      12.699  -6.014   1.928  0.00  0.00    +0.028 A 
ATOM     36  C   UNL     1      14.061  -5.770   1.904  0.00  0.00    +0.004 A 
ATOM     37  C   UNL     1      14.531  -4.711   1.139  0.00  0.00    +0.020 A 
ATOM     38  C   UNL     1      13.632  -3.938   0.429  0.00  0.00    +0.111 A 
ATOM     39  N   UNL     1      12.341  -4.196   0.465  0.00  0.00    -0.255 NA
ENDBRANCH  30  34
ENDBRANCH  27  28
ENDBRANCH   6  27
TORSDOF 11
