REMARK  Name = ZINC60059132
REMARK  9 active torsions:
REMARK  status: ('A' for Active; 'I' for Inactive)
REMARK    1  A    between atoms: C_1  and  C_2
REMARK    2  A    between atoms: C_2  and  C_3
REMARK    3  A    between atoms: C_2  and  C_4
REMARK    4  A    between atoms: C_2  and  C_5
REMARK    5  A    between atoms: C_8  and  C_11
REMARK    6  A    between atoms: C_14  and  S_21
REMARK    7  A    between atoms: N_15  and  C_16
REMARK    8  A    between atoms: S_21  and  C_22
REMARK    9  A    between atoms: C_22  and  C_23
REMARK                            x       y       z     vdW  Elec       q    Type
REMARK                         _______ _______ _______ _____ _____    ______ ____
ROOT
ATOM      1  C   UNL     1       2.932  -2.079  -4.579  0.00  0.00    +0.165 A 
ATOM      2  N   UNL     1       2.480  -3.007  -5.391  0.00  0.00    -0.128 NA
ATOM      3  N   UNL     1       3.029  -2.884  -6.546  0.00  0.00    -0.122 NA
ATOM      4  C   UNL     1       3.866  -1.870  -6.543  0.00  0.00    +0.192 A 
ATOM      5  N   UNL     1       3.829  -1.319  -5.294  0.00  0.00    -0.299 N 
ENDROOT
BRANCH   1   9
ATOM      6  C   UNL     1       1.819  -1.519  -0.519  0.00  0.00    -0.042 A 
ATOM      7  C   UNL     1       0.882  -1.964  -1.434  0.00  0.00    +0.005 A 
ATOM      8  C   UNL     1       1.237  -2.148  -2.755  0.00  0.00    +0.012 A 
ATOM      9  C   UNL     1       2.544  -1.884  -3.166  0.00  0.00    +0.019 A 
ATOM     10  C   UNL     1       3.484  -1.434  -2.237  0.00  0.00    +0.012 A 
ATOM     11  C   UNL     1       3.115  -1.250  -0.921  0.00  0.00    +0.005 A 
BRANCH   6  13
ATOM     12  C   UNL     1       1.638   0.143   1.313  0.00  0.00    +0.015 C 
ATOM     13  C   UNL     1       1.424  -1.321   0.922  0.00  0.00    -0.013 C 
ATOM     14  C   UNL     1       2.284  -2.217   1.815  0.00  0.00    +0.015 C 
ATOM     15  C   UNL     1      -0.051  -1.687   1.102  0.00  0.00    +0.015 C 
ENDBRANCH   6  13
ENDBRANCH   1   9
BRANCH   5  16
ATOM     16  C   UNL     1       4.589  -0.163  -4.814  0.00  0.00    +0.091 C 
ATOM     17  C   UNL     1       5.749   0.146  -5.782  0.00  0.00    +0.025 C 
ATOM     18  C   UNL     1       5.183   1.246  -6.714  0.00  0.00    +0.002 C 
ATOM     19  C   UNL     1       4.336   2.111  -5.748  0.00  0.00    +0.002 C 
ATOM     20  C   UNL     1       3.690   1.086  -4.792  0.00  0.00    +0.025 C 
ENDBRANCH   5  16
BRANCH   4  21
ATOM     21  S   UNL     1       4.847  -1.320  -7.899  0.00  0.00    -0.080 S 
BRANCH  21  22
ATOM     22  C   UNL     1       4.421  -2.464  -9.241  0.00  0.00    +0.133 C 
BRANCH  22  23
ATOM     23  C   UNL     1       5.202  -2.100 -10.478  0.00  0.00    +0.061 A 
ATOM     24  C   UNL     1       5.034  -2.841 -11.646  0.00  0.00    +0.096 A 
ATOM     25  C   UNL     1       5.750  -2.499 -12.761  0.00  0.00    +0.276 A 
ATOM     26  O   UNL     1       5.609  -3.200 -13.910  0.00  0.00    -0.266 OA
ATOM     27  N   UNL     1       6.606  -1.442 -12.696  0.00  0.00    -0.158 N 
ATOM     28  C   UNL     1       6.743  -0.740 -11.532  0.00  0.00    +0.258 A 
ATOM     29  N   UNL     1       6.034  -1.080 -10.450  0.00  0.00    -0.214 NA
ATOM     30  N   UNL     1       7.632   0.223 -11.754  0.00  0.00    -0.176 NA
ATOM     31  C   UNL     1       8.062   0.156 -13.012  0.00  0.00    +0.234 A 
ATOM     32  N   UNL     1       7.465  -0.844 -13.627  0.00  0.00    -0.125 NA
ATOM     33  N   UNL     1       8.998   1.011 -13.589  0.00  0.00    -0.326 N 
ATOM     34  H   UNL     1       9.392   1.725 -13.063  0.00  0.00    +0.145 HD
ATOM     35  H   UNL     1       9.257   0.892 -14.516  0.00  0.00    +0.145 HD
ENDBRANCH  22  23
ENDBRANCH  21  22
ENDBRANCH   4  21
TORSDOF 6
