REMARK  Name = ZINC34066280
REMARK  6 active torsions:
REMARK  status: ('A' for Active; 'I' for Inactive)
REMARK    1  A    between atoms: C_6  and  C_7
REMARK    2  A    between atoms: C_7  and  S_8
REMARK    3  A    between atoms: S_8  and  C_9
REMARK    4  A    between atoms: C_10  and  C_21
REMARK    5  A    between atoms: C_11  and  N_14
REMARK    6  A    between atoms: N_14  and  C_15
REMARK                            x       y       z     vdW  Elec       q    Type
REMARK                         _______ _______ _______ _____ _____    ______ ____
ROOT
ATOM      1  C   UNL     1       1.297   1.978   0.384  0.00  0.00    +0.120 A 
ATOM      2  C   UNL     1      -0.002   1.380   0.190  0.00  0.00    +0.098 A 
ATOM      3  C   UNL     1       0.001  -0.018   0.172  0.00  0.00    +0.103 A 
ATOM      4  S   UNL     1       1.674  -0.394   0.407  0.00  0.00    +0.029 S 
ATOM      5  N   UNL     1       2.323   1.179   0.521  0.00  0.00    -0.202 NA
ENDROOT
BRANCH   2   6
ATOM      6  C   UNL     1      -1.222   2.172   0.019  0.00  0.00    +0.246 C 
ATOM      7  O   UNL     1      -1.884   2.488   0.991  0.00  0.00    -0.270 OA
ATOM      8  N   UNL     1      -1.612   2.552  -1.214  0.00  0.00    -0.325 N 
ATOM      9  H   UNL     1      -2.528   3.147  -1.342  0.00  0.00    +0.145 HD
ATOM     10  H   UNL     1      -1.014   2.267  -2.092  0.00  0.00    +0.145 HD
ENDBRANCH   2   6
BRANCH   3  11
ATOM     11  N   UNL     1      -1.064  -0.883   0.008  0.00  0.00    -0.307 N 
ATOM     12  H   UNL     1      -2.091  -0.489  -0.032  0.00  0.00    +0.153 HD
BRANCH  11  13
ATOM     13  C   UNL     1      -0.838  -2.253  -0.107  0.00  0.00    +0.034 A 
ATOM     14  C   UNL     1       0.310  -2.739  -0.731  0.00  0.00    +0.041 A 
ATOM     15  C   UNL     1       0.499  -4.102  -0.820  0.00  0.00    +0.084 A 
ATOM     16  N   UNL     1      -0.395  -4.942  -0.332  0.00  0.00    -0.367 N 
ATOM     17  C   UNL     1      -1.496  -4.521   0.261  0.00  0.00    +0.084 A 
ATOM     18  C   UNL     1      -1.757  -3.174   0.395  0.00  0.00    +0.041 A 
ATOM     19  H   UNL     1      -0.233  -6.027  -0.415  0.00  0.00    +0.165 HD
ENDBRANCH  11  13
ENDBRANCH   3  11
BRANCH   1  20
ATOM     20  S   UNL     1       1.494   3.728   0.435  0.00  0.00    -0.100 S 
BRANCH  20  21
ATOM     21  C   UNL     1       3.274   3.962   0.694  0.00  0.00    +0.111 C 
BRANCH  21  27
ATOM     22  C   UNL     1       3.901   6.125  -0.398  0.00  0.00    +0.006 A 
ATOM     23  C   UNL     1       4.179   7.478  -0.341  0.00  0.00    +0.020 A 
ATOM     24  C   UNL     1       4.151   8.139   0.874  0.00  0.00    +0.041 A 
ATOM     25  C   UNL     1       3.838   7.447   2.030  0.00  0.00    +0.020 A 
ATOM     26  C   UNL     1       3.555   6.096   1.971  0.00  0.00    +0.006 A 
ATOM     27  C   UNL     1       3.584   5.436   0.757  0.00  0.00    -0.037 A 
ATOM     28 CL   UNL     1       4.506   9.837   0.947  0.00  0.00    -0.084 Cl
ENDBRANCH  21  27
ENDBRANCH  20  21
ENDBRANCH   1  20
TORSDOF 6
