REMARK  Name = ZINC00241962
REMARK  5 active torsions:
REMARK  status: ('A' for Active; 'I' for Inactive)
REMARK    1  A    between atoms: C_4  and  C_7
REMARK    2  A    between atoms: C_10  and  C_13
REMARK    3  A    between atoms: C_18  and  N_27
REMARK    4  A    between atoms: C_22  and  N_26
REMARK    5  A    between atoms: C_23  and  C_24
REMARK                            x       y       z     vdW  Elec       q    Type
REMARK                         _______ _______ _______ _____ _____    ______ ____
ROOT
ATOM      1  C   UNL     1      -3.700   1.604   0.030  0.00  0.00    +0.098 C 
ATOM      2  C   UNL     1      -3.555   3.047  -0.374  0.00  0.00    +0.008 A 
ATOM      3  C   UNL     1      -4.675   3.760  -0.765  0.00  0.00    +0.010 A 
ATOM      4  C   UNL     1      -4.562   5.083  -1.140  0.00  0.00    +0.023 A 
ATOM      5  C   UNL     1      -3.319   5.705  -1.125  0.00  0.00    +0.028 A 
ATOM      6  C   UNL     1      -2.195   4.993  -0.733  0.00  0.00    +0.069 A 
ATOM      7  C   UNL     1      -2.313   3.662  -0.356  0.00  0.00    +0.136 A 
ATOM      8  O   UNL     1      -1.204   2.979   0.029  0.00  0.00    -0.441 OA
ATOM      9  C   UNL     1      -1.209   1.636   0.017  0.00  0.00    +0.199 C 
ATOM     10  C   UNL     1      -2.360   0.923   0.018  0.00  0.00    +0.098 C 
ENDROOT
BRANCH   1  14
ATOM     11  C   UNL     1      -5.359   1.395   3.965  0.00  0.00    -0.018 A 
ATOM     12  C   UNL     1      -6.037   0.824   2.890  0.00  0.00    +0.009 A 
ATOM     13  C   UNL     1      -5.497   0.895   1.621  0.00  0.00    +0.005 A 
ATOM     14  C   UNL     1      -4.285   1.530   1.417  0.00  0.00    -0.035 A 
ATOM     15  C   UNL     1      -3.606   2.094   2.482  0.00  0.00    +0.005 A 
ATOM     16  C   UNL     1      -4.139   2.034   3.754  0.00  0.00    +0.009 A 
BRANCH  11  20
ATOM     17  C   UNL     1      -7.009   1.188   7.879  0.00  0.00    +0.000 A 
ATOM     18  C   UNL     1      -5.797   1.823   7.675  0.00  0.00    +0.001 A 
ATOM     19  C   UNL     1      -5.257   1.893   6.407  0.00  0.00    +0.008 A 
ATOM     20  C   UNL     1      -5.935   1.323   5.331  0.00  0.00    -0.018 A 
ATOM     21  C   UNL     1      -7.158   0.689   5.542  0.00  0.00    +0.008 A 
ATOM     22  C   UNL     1      -7.686   0.621   6.815  0.00  0.00    +0.001 A 
ENDBRANCH  11  20
ENDBRANCH   1  14
BRANCH   9  23
ATOM     23  N   UNL     1      -0.011   0.966   0.007  0.00  0.00    -0.328 N 
ATOM     24  H   UNL     1       0.002  -0.004   0.002  0.00  0.00    +0.145 HD
ATOM     25  H   UNL     1       0.822   1.462   0.002  0.00  0.00    +0.145 HD
ENDBRANCH   9  23
BRANCH   5  26
ATOM     26  N   UNL     1      -3.202   7.045  -1.503  0.00  0.00    -0.358 N 
ATOM     27  H   UNL     1      -3.989   7.542  -1.776  0.00  0.00    +0.142 HD
ATOM     28  H   UNL     1      -2.334   7.478  -1.492  0.00  0.00    +0.142 HD
ENDBRANCH   5  26
BRANCH  10  29
ATOM     29  C   UNL     1      -2.300  -0.507   0.009  0.00  0.00    +0.101 C 
ATOM     30  N   UNL     1      -2.252  -1.642   0.001  0.00  0.00    -0.191 NA
ENDBRANCH  10  29
TORSDOF 5
