REMARK  Name = ZINC39218180
REMARK  8 active torsions:
REMARK  status: ('A' for Active; 'I' for Inactive)
REMARK    1  A    between atoms: C_1  and  O_2
REMARK    2  A    between atoms: O_2  and  C_3
REMARK    3  A    between atoms: C_6  and  C_9
REMARK    4  A    between atoms: C_9  and  C_10
REMARK    5  A    between atoms: N_12  and  N_13
REMARK    6  A    between atoms: C_14  and  C_16
REMARK    7  A    between atoms: C_16  and  S_17
REMARK    8  A    between atoms: S_17  and  C_18
REMARK                            x       y       z     vdW  Elec       q    Type
REMARK                         _______ _______ _______ _____ _____    ______ ____
ROOT
ATOM      1  C   UNL     1       8.384  -4.310  -5.292  0.00  0.00    +0.174 C 
ENDROOT
BRANCH   1   3
ATOM      2  N   UNL     1       6.122  -3.507  -4.692  0.00  0.00    -0.234 N 
ATOM      3  C   UNL     1       6.925  -4.094  -5.602  0.00  0.00    +0.239 C 
ATOM      4  O   UNL     1       6.474  -4.448  -6.670  0.00  0.00    -0.273 OA
ATOM      5  H   UNL     1       6.484  -3.224  -3.838  0.00  0.00    +0.173 HD
BRANCH   2   8
ATOM      6  C   UNL     1       3.963  -2.719  -4.071  0.00  0.00    +0.233 C 
ATOM      7  O   UNL     1       4.415  -2.365  -3.003  0.00  0.00    -0.274 OA
ATOM      8  N   UNL     1       4.766  -3.306  -4.981  0.00  0.00    -0.234 N 
ATOM      9  H   UNL     1       4.405  -3.590  -5.835  0.00  0.00    +0.173 HD
BRANCH   6  10
ATOM     10  C   UNL     1       2.505  -2.503  -4.381  0.00  0.00    +0.132 C 
BRANCH  10  14
ATOM     11  C   UNL     1       0.606  -0.607  -1.056  0.00  0.00    +0.120 A 
ATOM     12  C   UNL     1       1.173   0.161  -2.062  0.00  0.00    +0.046 A 
ATOM     13  C   UNL     1       1.786  -0.455  -3.136  0.00  0.00    +0.007 A 
ATOM     14  C   UNL     1       1.835  -1.835  -3.209  0.00  0.00    -0.038 A 
ATOM     15  C   UNL     1       1.270  -2.602  -2.207  0.00  0.00    +0.007 A 
ATOM     16  C   UNL     1       0.661  -1.992  -1.128  0.00  0.00    +0.046 A 
BRANCH  11  18
ATOM     17  C   UNL     1      -0.017   1.425   0.010  0.00  0.00    +0.277 C 
ATOM     18  O   UNL     1       0.002  -0.004   0.002  0.00  0.00    -0.495 OA
ENDBRANCH  11  18
ENDBRANCH  10  14
ENDBRANCH   6  10
ENDBRANCH   2   8
ENDBRANCH   1   3
BRANCH   1  19
ATOM     19  S   UNL     1       9.190  -5.115  -6.703  0.00  0.00    -0.079 S 
BRANCH  19  20
ATOM     20  C   UNL     1      10.865  -5.296  -6.191  0.00  0.00    +0.182 C 
ATOM     21  N   UNL     1      11.220  -4.836  -5.006  0.00  0.00    -0.151 NA
ATOM     22  C   UNL     1      12.455  -4.963  -4.522  0.00  0.00    +0.272 C 
ATOM     23  O   UNL     1      12.763  -4.393  -3.488  0.00  0.00    -0.268 OA
ATOM     24  C   UNL     1      13.444  -5.782  -5.299  0.00  0.00    +0.071 C 
ATOM     25  C   UNL     1      14.626  -6.258  -4.928  0.00  0.00    -0.042 C 
ATOM     26  C   UNL     1      15.293  -6.188  -3.532  0.00  0.00    +0.033 C 
ATOM     27  C   UNL     1      14.070  -6.600  -2.553  0.00  0.00    +0.004 C 
ATOM     28  C   UNL     1      13.964  -8.062  -3.227  0.00  0.00    +0.000 C 
ATOM     29  C   UNL     1      15.322  -8.656  -3.190  0.00  0.00    +0.000 C 
ATOM     30  C   UNL     1      16.074  -8.991  -4.419  0.00  0.00    +0.001 C 
ATOM     31  C   UNL     1      15.294  -8.543  -5.681  0.00  0.00    +0.019 C 
ATOM     32  C   UNL     1      15.423  -7.020  -5.980  0.00  0.00    +0.079 C 
ATOM     33  S   UNL     1      14.406  -6.733  -7.491  0.00  0.00    -0.097 S 
ATOM     34  C   UNL     1      12.969  -6.089  -6.673  0.00  0.00    +0.112 C 
ATOM     35  N   UNL     1      11.732  -5.866  -7.028  0.00  0.00    -0.217 NA
ENDBRANCH  19  20
ENDBRANCH   1  19
TORSDOF 7
