REMARK  Name = ZINC49043796
REMARK  7 active torsions:
REMARK  status: ('A' for Active; 'I' for Inactive)
REMARK    1  A    between atoms: C_1  and  N_2
REMARK    2  A    between atoms: C_5  and  C_8
REMARK    3  A    between atoms: C_5  and  N_11
REMARK    4  A    between atoms: C_8  and  N_10
REMARK    5  A    between atoms: N_11  and  S_12
REMARK    6  A    between atoms: S_12  and  C_15
REMARK    7  A    between atoms: C_15  and  C_16
REMARK                            x       y       z     vdW  Elec       q    Type
REMARK                         _______ _______ _______ _____ _____    ______ ____
ROOT
ATOM      1  C   UNL     1      -4.477  -4.193   0.039  0.00  0.00    -0.096 C 
ATOM      2  N   UNL     1      -3.158  -3.547  -0.008  0.00  0.00    +0.378 N 
ATOM      3  C   UNL     1      -2.260  -4.202   0.951  0.00  0.00    -0.077 C 
ATOM      4  C   UNL     1      -0.863  -3.586   0.849  0.00  0.00    +0.012 C 
ATOM      5  C   UNL     1      -0.946  -2.090   1.165  0.00  0.00    +0.080 C 
ATOM      6  C   UNL     1      -1.942  -1.431   0.207  0.00  0.00    +0.012 C 
ATOM      7  C   UNL     1      -3.299  -2.126   0.333  0.00  0.00    -0.077 C 
ATOM      8  H   UNL     1      -2.775  -3.633  -0.937  0.00  0.00    -0.082 HD
ENDROOT
BRANCH   5   9
ATOM      9  C   UNL     1       0.413  -1.462   0.991  0.00  0.00    +0.068 C 
ATOM     10  S   UNL     1       1.626  -2.329   0.414  0.00  0.00    -0.039 S 
BRANCH   9  11
ATOM     11  N   UNL     1       0.605  -0.170   1.321  0.00  0.00    -0.354 N 
ATOM     12  H   UNL     1      -0.111   0.337   1.736  0.00  0.00    +0.143 HD
ATOM     13  H   UNL     1       1.459   0.254   1.144  0.00  0.00    +0.143 HD
ENDBRANCH   9  11
ENDBRANCH   5   9
BRANCH   5  14
ATOM     14  N   UNL     1      -1.399  -1.906   2.546  0.00  0.00    -0.182 NA
ATOM     15  H   UNL     1      -2.217  -1.417   2.727  0.00  0.00    +0.149 HD
BRANCH  14  16
ATOM     16  S   UNL     1      -0.514  -2.531   3.799  0.00  0.00    +0.030 S 
ATOM     17  O   UNL     1      -1.227  -2.156   4.969  0.00  0.00    -0.158 OA
ATOM     18  O   UNL     1      -0.335  -3.901   3.467  0.00  0.00    -0.158 OA
BRANCH  16  19
ATOM     19  C   UNL     1       1.075  -1.658   3.728  0.00  0.00    +0.188 C 
BRANCH  19  20
ATOM     20  C   UNL     1       1.899  -1.998   4.971  0.00  0.00    +0.012 C 
ATOM     21  C   UNL     1       2.254  -3.486   4.956  0.00  0.00    +0.005 C 
ATOM     22  C   UNL     1       3.079  -3.826   6.199  0.00  0.00    +0.000 C 
ATOM     23  C   UNL     1       4.363  -2.995   6.202  0.00  0.00    +0.000 C 
ATOM     24  C   UNL     1       4.008  -1.507   6.217  0.00  0.00    +0.000 C 
ATOM     25  C   UNL     1       3.184  -1.167   4.974  0.00  0.00    +0.005 C 
ENDBRANCH  19  20
ENDBRANCH  16  19
ENDBRANCH  14  16
ENDBRANCH   5  14
TORSDOF 6
