REMARK  Name = ZINC09153976
REMARK  6 active torsions:
REMARK  status: ('A' for Active; 'I' for Inactive)
REMARK    1  A    between atoms: C_1  and  O_2
REMARK    2  A    between atoms: O_2  and  C_3
REMARK    3  A    between atoms: C_8  and  N_9
REMARK    4  A    between atoms: C_13  and  C_14
REMARK    5  A    between atoms: C_22  and  C_23
REMARK    6  A    between atoms: C_22  and  C_25
REMARK                            x       y       z     vdW  Elec       q    Type
REMARK                         _______ _______ _______ _____ _____    ______ ____
ROOT
ATOM      1  N   UNL     1      -0.101  -2.069   0.425  0.00  0.00    -0.265 N 
ATOM      2  C   UNL     1       0.685  -2.599   1.347  0.00  0.00    +0.271 A 
ATOM      3  O   UNL     1       1.813  -2.184   1.537  0.00  0.00    -0.266 OA
ATOM      4  C   UNL     1       0.131  -3.719   2.134  0.00  0.00    +0.079 A 
ATOM      5  C   UNL     1       0.706  -4.440   3.129  0.00  0.00    +0.028 C 
ATOM      6  S   UNL     1      -1.502  -3.868   1.422  0.00  0.00    -0.064 S 
ATOM      7  C   UNL     1      -1.374  -2.547   0.227  0.00  0.00    +0.116 A 
ATOM      8  C   UNL     1      -2.333  -2.108  -0.688  0.00  0.00    +0.159 C 
ENDROOT
BRANCH   1  14
ATOM      9  C   UNL     1       0.176   0.311   0.069  0.00  0.00    +0.144 A 
ATOM     10  C   UNL     1       0.646   1.361  -0.704  0.00  0.00    +0.048 A 
ATOM     11  C   UNL     1       1.298   1.104  -1.895  0.00  0.00    +0.004 A 
ATOM     12  C   UNL     1       1.484  -0.199  -2.320  0.00  0.00    +0.002 A 
ATOM     13  C   UNL     1       1.018  -1.251  -1.555  0.00  0.00    +0.030 A 
ATOM     14  C   UNL     1       0.367  -1.002  -0.355  0.00  0.00    +0.092 A 
BRANCH   9  16
ATOM     15  C   UNL     1      -0.622   1.931   1.616  0.00  0.00    +0.277 C 
ATOM     16  O   UNL     1      -0.466   0.561   1.241  0.00  0.00    -0.493 OA
ENDBRANCH   9  16
ENDBRANCH   1  14
BRANCH   5  17
ATOM     17  C   UNL     1       2.133  -4.264   3.434  0.00  0.00    -0.024 A 
ATOM     18  C   UNL     1       3.058  -4.091   2.398  0.00  0.00    +0.008 A 
ATOM     19  C   UNL     1       4.394  -3.920   2.694  0.00  0.00    +0.001 A 
ATOM     20  C   UNL     1       4.822  -3.931   4.010  0.00  0.00    +0.000 A 
ATOM     21  C   UNL     1       3.914  -4.107   5.040  0.00  0.00    +0.001 A 
ATOM     22  C   UNL     1       2.574  -4.273   4.762  0.00  0.00    +0.008 A 
ENDBRANCH   5  17
BRANCH   8  23
ATOM     23  C   UNL     1      -3.615  -2.744  -0.740  0.00  0.00    +0.113 C 
ATOM     24  N   UNL     1      -4.633  -3.247  -0.782  0.00  0.00    -0.190 NA
ENDBRANCH   8  23
BRANCH   8  25
ATOM     25  C   UNL     1      -2.034  -1.023  -1.573  0.00  0.00    +0.113 C 
ATOM     26  N   UNL     1      -1.798  -0.163  -2.276  0.00  0.00    -0.190 NA
ENDBRANCH   8  25
TORSDOF 5
