REMARK  Name = ZINC14893907
REMARK  5 active torsions:
REMARK  status: ('A' for Active; 'I' for Inactive)
REMARK    1  A    between atoms: N_7  and  C_12
REMARK    2  A    between atoms: C_12  and  C_13
REMARK    3  A    between atoms: C_13  and  C_14
REMARK    4  A    between atoms: N_19  and  S_22
REMARK    5  A    between atoms: S_22  and  C_25
REMARK                            x       y       z     vdW  Elec       q    Type
REMARK                         _______ _______ _______ _____ _____    ______ ____
ROOT
ATOM      1  C   UNL     1       1.161   4.319   5.582  0.00  0.00    +0.217 C 
ATOM      2  O   UNL     1       2.212   4.518   6.153  0.00  0.00    -0.276 OA
ATOM      3  N   UNL     1       1.159   3.925   4.293  0.00  0.00    -0.299 N 
ATOM      4  C   UNL     1       2.422   3.733   3.567  0.00  0.00    +0.125 C 
ATOM      5  C   UNL     1       2.394   4.593   2.297  0.00  0.00    +0.128 C 
ATOM      6  N   UNL     1       1.127   4.347   1.593  0.00  0.00    -0.174 NA
ATOM      7  C   UNL     1      -0.136   4.545   2.317  0.00  0.00    +0.128 C 
ATOM      8  C   UNL     1      -0.107   3.680   3.588  0.00  0.00    +0.125 C 
ENDROOT
BRANCH   6   9
ATOM      9  S   UNL     1       1.124   3.864   0.009  0.00  0.00    +0.061 S 
ATOM     10  O   UNL     1       2.356   4.298  -0.551  0.00  0.00    -0.153 OA
ATOM     11  O   UNL     1      -0.134   4.245  -0.530  0.00  0.00    -0.153 OA
BRANCH   9  12
ATOM     12  C   UNL     1       1.161   2.102   0.002  0.00  0.00    +0.106 A 
ATOM     13  C   UNL     1       2.372   1.434  -0.011  0.00  0.00    +0.029 A 
ATOM     14  C   UNL     1       2.393   0.055  -0.019  0.00  0.00    +0.006 A 
ATOM     15  C   UNL     1       1.207  -0.669  -0.015  0.00  0.00    -0.044 A 
ATOM     16  C   UNL     1       0.002  -0.004   0.002  0.00  0.00    -0.042 A 
ATOM     17  C   UNL     1      -0.017   1.385   0.010  0.00  0.00    +0.032 A 
ATOM     18  C   UNL     1      -1.321  -0.724   0.018  0.00  0.00    +0.035 C 
ATOM     19  C   UNL     1      -1.148  -2.176  -0.422  0.00  0.00    +0.005 C 
ATOM     20  C   UNL     1      -0.019  -2.800   0.405  0.00  0.00    +0.005 C 
ATOM     21  C   UNL     1       1.303  -2.173  -0.032  0.00  0.00    +0.035 C 
ENDBRANCH   9  12
ENDBRANCH   6   9
BRANCH   1  22
ATOM     22  C   UNL     1      -0.142   4.512   6.314  0.00  0.00    +0.115 C 
BRANCH  22  23
ATOM     23  C   UNL     1       0.140   4.957   7.750  0.00  0.00    +0.123 C 
BRANCH  23  30
ATOM     24  C   UNL     1      -2.047   8.596   7.563  0.00  0.00    +0.002 A 
ATOM     25  C   UNL     1      -3.048   8.845   8.484  0.00  0.00    +0.004 A 
ATOM     26  C   UNL     1      -3.420   7.870   9.386  0.00  0.00    +0.047 A 
ATOM     27  C   UNL     1      -2.779   6.643   9.382  0.00  0.00    +0.142 A 
ATOM     28  C   UNL     1      -1.766   6.393   8.458  0.00  0.00    +0.078 A 
ATOM     29  C   UNL     1      -1.405   7.372   7.548  0.00  0.00    +0.027 A 
ATOM     30  N   UNL     1      -1.127   5.145   8.461  0.00  0.00    -0.265 N 
ATOM     31  C   UNL     1      -1.694   4.120   9.134  0.00  0.00    +0.258 C 
ATOM     32  O   UNL     1      -1.141   3.041   9.178  0.00  0.00    -0.272 OA
ATOM     33  C   UNL     1      -3.017   4.322   9.828  0.00  0.00    +0.325 C 
ATOM     34  O   UNL     1      -3.123   5.677  10.274  0.00  0.00    -0.481 OA
ENDBRANCH  23  30
ENDBRANCH  22  23
ENDBRANCH   1  22
TORSDOF 5
