REMARK  Name = ZINC02438180
REMARK  4 active torsions:
REMARK  status: ('A' for Active; 'I' for Inactive)
REMARK    1  A    between atoms: C_1  and  C_2
REMARK    2  A    between atoms: N_17  and  C_18
REMARK    3  A    between atoms: C_18  and  C_19
REMARK    4  A    between atoms: C_19  and  C_20
REMARK                            x       y       z     vdW  Elec       q    Type
REMARK                         _______ _______ _______ _____ _____    ______ ____
ROOT
ATOM      1  C   UNL     1       4.122  -3.748  -1.503  0.00  0.00    +0.086 C 
ATOM      2  C   UNL     1       5.436  -3.010  -1.512  0.00  0.00    +0.113 A 
ATOM      3  N   UNL     1       6.543  -3.702  -1.527  0.00  0.00    -0.199 NA
ATOM      4  C   UNL     1       7.742  -3.104  -1.536  0.00  0.00    +0.238 A 
ATOM      5  C   UNL     1       7.792  -1.703  -1.529  0.00  0.00    +0.148 A 
ATOM      6  C   UNL     1       9.096  -1.033  -1.539  0.00  0.00    +0.207 A 
ATOM      7  O   UNL     1       9.193   0.181  -1.534  0.00  0.00    -0.286 OA
ATOM      8  C   UNL     1      10.289  -1.908  -1.556  0.00  0.00    +0.065 A 
ATOM      9  C   UNL     1      11.573  -1.367  -1.567  0.00  0.00    +0.015 A 
ATOM     10  C   UNL     1      12.666  -2.206  -1.583  0.00  0.00    +0.001 A 
ATOM     11  C   UNL     1      12.488  -3.582  -1.589  0.00  0.00    +0.004 A 
ATOM     12  C   UNL     1      11.222  -4.127  -1.577  0.00  0.00    +0.047 A 
ATOM     13  C   UNL     1      10.104  -3.299  -1.562  0.00  0.00    +0.141 A 
ATOM     14  O   UNL     1       8.867  -3.836  -1.552  0.00  0.00    -0.436 OA
ATOM     15  C   UNL     1       6.581  -0.969  -1.518  0.00  0.00    +0.269 A 
ATOM     16  O   UNL     1       6.585   0.249  -1.516  0.00  0.00    -0.267 OA
ATOM     17  N   UNL     1       5.420  -1.663  -1.505  0.00  0.00    -0.296 N 
ENDROOT
BRANCH  17  18
ATOM     18  C   UNL     1       4.142  -0.948  -1.488  0.00  0.00    +0.131 C 
BRANCH  18  19
ATOM     19  C   UNL     1       3.711  -0.707  -0.039  0.00  0.00    +0.057 C 
BRANCH  19  20
ATOM     20  C   UNL     1       2.396   0.029  -0.022  0.00  0.00    -0.046 A 
ATOM     21  C   UNL     1       1.208  -0.679  -0.014  0.00  0.00    +0.004 A 
ATOM     22  C   UNL     1       0.002  -0.004   0.002  0.00  0.00    +0.000 A 
ATOM     23  C   UNL     1      -0.017   1.378   0.010  0.00  0.00    +0.000 A 
ATOM     24  C   UNL     1       1.171   2.086   0.002  0.00  0.00    +0.000 A 
ATOM     25  C   UNL     1       2.377   1.411  -0.014  0.00  0.00    +0.004 A 
ENDBRANCH  19  20
ENDBRANCH  18  19
ENDBRANCH  17  18
TORSDOF 3
