REMARK  Name = ZINC14130008
REMARK  5 active torsions:
REMARK  status: ('A' for Active; 'I' for Inactive)
REMARK    1  A    between atoms: C_4  and  C_7
REMARK    2  A    between atoms: C_7  and  N_8
REMARK    3  A    between atoms: C_16  and  S_17
REMARK    4  A    between atoms: S_17  and  C_18
REMARK    5  A    between atoms: C_18  and  C_19
REMARK                            x       y       z     vdW  Elec       q    Type
REMARK                         _______ _______ _______ _____ _____    ______ ____
ROOT
ATOM      1  N   UNL     1      -0.984  -0.978   0.006  0.00  0.00    -0.314 N 
ATOM      2  C   UNL     1       0.002  -0.004   0.002  0.00  0.00    +0.070 A 
ATOM      3  C   UNL     1      -0.017   1.382   0.010  0.00  0.00    +0.029 A 
ATOM      4  C   UNL     1       1.170   2.086   0.002  0.00  0.00    +0.022 A 
ATOM      5  C   UNL     1       2.385   1.414  -0.013  0.00  0.00    +0.043 A 
ATOM      6  C   UNL     1       2.422   0.037  -0.021  0.00  0.00    +0.050 A 
ATOM      7  C   UNL     1       1.228  -0.689  -0.013  0.00  0.00    +0.092 A 
ATOM      8  N   UNL     1       0.944  -2.018  -0.018  0.00  0.00    -0.222 NA
ATOM      9  C   UNL     1      -0.355  -2.191  -0.007  0.00  0.00    +0.171 A 
ATOM     10 CL   UNL     1       3.868   2.316  -0.023  0.00  0.00    -0.083 Cl
ENDROOT
BRANCH   1  11
ATOM     11  C   UNL     1      -2.431  -0.750   0.021  0.00  0.00    +0.159 C 
BRANCH  11  15
ATOM     12  C   UNL     1      -3.878  -0.503  -3.990  0.00  0.00    +0.000 A 
ATOM     13  C   UNL     1      -3.830  -1.725  -3.347  0.00  0.00    +0.000 A 
ATOM     14  C   UNL     1      -3.362  -1.805  -2.049  0.00  0.00    +0.005 A 
ATOM     15  C   UNL     1      -2.941  -0.663  -1.394  0.00  0.00    -0.028 A 
ATOM     16  C   UNL     1      -2.994   0.561  -2.036  0.00  0.00    +0.005 A 
ATOM     17  C   UNL     1      -3.457   0.640  -3.336  0.00  0.00    +0.000 A 
ENDBRANCH  11  15
ENDBRANCH   1  11
BRANCH   9  18
ATOM     18  S   UNL     1      -1.169  -3.754  -0.008  0.00  0.00    -0.080 S 
BRANCH  18  19
ATOM     19  C   UNL     1       0.267  -4.856  -0.027  0.00  0.00    +0.151 C 
BRANCH  19  20
ATOM     20  C   UNL     1      -0.199  -6.288  -0.031  0.00  0.00    +0.121 A 
ATOM     21  N   UNL     1       0.738  -7.271  -0.050  0.00  0.00    -0.310 N 
ATOM     22  H   UNL     1       1.680  -7.037  -0.061  0.00  0.00    +0.170 HD
ATOM     23  C   UNL     1       0.371  -8.574  -0.049  0.00  0.00    +0.259 A 
ATOM     24  O   UNL     1       1.200  -9.465  -0.062  0.00  0.00    -0.267 OA
ATOM     25  C   UNL     1      -1.069  -8.871  -0.038  0.00  0.00    +0.065 A 
ATOM     26  C   UNL     1      -1.552 -10.178  -0.041  0.00  0.00    +0.015 A 
ATOM     27  C   UNL     1      -2.912 -10.399  -0.031  0.00  0.00    +0.001 A 
ATOM     28  C   UNL     1      -3.801  -9.332  -0.017  0.00  0.00    +0.002 A 
ATOM     29  C   UNL     1      -3.344  -8.034  -0.013  0.00  0.00    +0.028 A 
ATOM     30  C   UNL     1      -1.970  -7.784  -0.024  0.00  0.00    +0.078 A 
ATOM     31  N   UNL     1      -1.477  -6.520  -0.021  0.00  0.00    -0.233 NA
ENDBRANCH  19  20
ENDBRANCH  18  19
ENDBRANCH   9  18
TORSDOF 5
