REMARK  Name = ZINC39503709
REMARK  7 active torsions:
REMARK  status: ('A' for Active; 'I' for Inactive)
REMARK    1  A    between atoms: C_1  and  C_2
REMARK    2  A    between atoms: C_2  and  O_3
REMARK    3  A    between atoms: O_3  and  C_4
REMARK    4  A    between atoms: C_10  and  C_13
REMARK    5  A    between atoms: C_13  and  C_14
REMARK    6  A    between atoms: N_20  and  C_22
REMARK    7  A    between atoms: C_27  and  O_28
REMARK                            x       y       z     vdW  Elec       q    Type
REMARK                         _______ _______ _______ _____ _____    ______ ____
ROOT
ATOM      1  C   UNL     1      -1.542  -1.788   0.066  0.00  0.00    +0.137 C 
ATOM      2  C   UNL     1      -2.765  -2.537   0.663  0.00  0.00    +0.059 C 
ATOM      3  C   UNL     1      -3.779  -2.507  -0.493  0.00  0.00    +0.038 C 
ATOM      4  C   UNL     1      -4.564  -3.828  -0.541  0.00  0.00    +0.026 C 
ATOM      5  C   UNL     1      -5.997  -3.400  -0.949  0.00  0.00    +0.006 C 
ATOM      6  C   UNL     1      -6.184  -2.060  -0.194  0.00  0.00    -0.005 C 
ATOM      7  C   UNL     1      -4.799  -1.383  -0.276  0.00  0.00    +0.029 C 
ATOM      8  N   UNL     1      -3.036  -2.303  -1.738  0.00  0.00    -0.319 N 
ATOM      9  C   UNL     1      -1.596  -2.232  -1.417  0.00  0.00    +0.137 C 
ENDROOT
BRANCH   8  10
ATOM     10  C   UNL     1      -3.596  -2.194  -3.016  0.00  0.00    +0.072 A 
ATOM     11  C   UNL     1      -3.902  -3.336  -3.741  0.00  0.00    +0.027 A 
ATOM     12  C   UNL     1      -4.455  -3.225  -5.003  0.00  0.00    +0.002 A 
ATOM     13  C   UNL     1      -4.705  -1.978  -5.545  0.00  0.00    +0.004 A 
ATOM     14  C   UNL     1      -4.402  -0.835  -4.828  0.00  0.00    +0.047 A 
ATOM     15  C   UNL     1      -3.852  -0.938  -3.561  0.00  0.00    +0.138 A 
BRANCH  15  16
ATOM     16  O   UNL     1      -3.559   0.186  -2.853  0.00  0.00    -0.505 OA
ATOM     17  H   UNL     1      -2.694   0.566  -3.059  0.00  0.00    +0.292 HD
ENDBRANCH  15  16
ENDBRANCH   8  10
BRANCH   1  18
ATOM     18  O   UNL     1      -1.702  -0.373   0.183  0.00  0.00    -0.375 OA
BRANCH  18  20
ATOM     19  C   UNL     1      -0.761   1.846   0.365  0.00  0.00    +0.034 C 
ATOM     20  C   UNL     1      -0.470   0.349   0.241  0.00  0.00    +0.157 C 
ENDBRANCH  18  20
ENDBRANCH   1  18
BRANCH   6  21
ATOM     21  C   UNL     1      -7.245  -1.201  -0.883  0.00  0.00    +0.038 C 
BRANCH  21  22
ATOM     22  C   UNL     1      -8.590  -1.869  -0.761  0.00  0.00    -0.047 A 
ATOM     23  C   UNL     1      -9.009  -2.762  -1.729  0.00  0.00    +0.003 A 
ATOM     24  C   UNL     1     -10.243  -3.375  -1.616  0.00  0.00    +0.000 A 
ATOM     25  C   UNL     1     -11.058  -3.095  -0.535  0.00  0.00    +0.000 A 
ATOM     26  C   UNL     1     -10.639  -2.203   0.433  0.00  0.00    +0.000 A 
ATOM     27  C   UNL     1      -9.403  -1.593   0.323  0.00  0.00    +0.003 A 
ENDBRANCH  21  22
ENDBRANCH   6  21
TORSDOF 6
