REMARK  Name = ZINC67537157
REMARK  8 active torsions:
REMARK  status: ('A' for Active; 'I' for Inactive)
REMARK    1  A    between atoms: C_1  and  C_2
REMARK    2  A    between atoms: C_2  and  C_3
REMARK    3  A    between atoms: C_7  and  C_24
REMARK    4  A    between atoms: C_8  and  N_9
REMARK    5  A    between atoms: N_12  and  C_13
REMARK    6  A    between atoms: C_13  and  C_15
REMARK    7  A    between atoms: C_13  and  C_16
REMARK    8  A    between atoms: C_24  and  C_25
REMARK                            x       y       z     vdW  Elec       q    Type
REMARK                         _______ _______ _______ _____ _____    ______ ____
ROOT
ATOM      1  N   UNL     1       2.811  -2.417   0.383  0.00  0.00    -0.269 N 
ATOM      2  C   UNL     1       4.142  -2.632   0.374  0.00  0.00    +0.304 C 
ATOM      3  O   UNL     1       4.817  -2.226  -0.552  0.00  0.00    -0.252 OA
ATOM      4  N   UNL     1       4.724  -3.296   1.393  0.00  0.00    -0.288 N 
ATOM      5  H   UNL     1       2.279  -2.703   1.142  0.00  0.00    +0.156 HD
ATOM      6  H   UNL     1       4.186  -3.620   2.131  0.00  0.00    +0.151 HD
ENDROOT
BRANCH   1  12
ATOM      7  C   UNL     1       1.263  -0.779  -0.484  0.00  0.00    -0.026 A 
ATOM      8  C   UNL     1       0.663  -0.150  -1.558  0.00  0.00    +0.007 A 
ATOM      9  C   UNL     1       0.988  -0.522  -2.849  0.00  0.00    +0.020 A 
ATOM     10  C   UNL     1       1.914  -1.526  -3.071  0.00  0.00    +0.046 A 
ATOM     11  C   UNL     1       2.518  -2.159  -2.000  0.00  0.00    -0.008 A 
ATOM     12  C   UNL     1       2.198  -1.783  -0.703  0.00  0.00    +0.042 A 
ATOM     13 CL   UNL     1       2.318  -1.992  -4.694  0.00  0.00    -0.083 Cl
BRANCH   7  15
ATOM     14  C   UNL     1       1.919   0.662   1.424  0.00  0.00    +0.009 C 
ATOM     15  C   UNL     1       0.909  -0.372   0.923  0.00  0.00    +0.033 C 
ENDBRANCH   7  15
BRANCH  11  16
ATOM     16  C   UNL     1       3.527  -3.253  -2.241  0.00  0.00    +0.035 C 
ATOM     17  C   UNL     1       4.690  -2.700  -3.068  0.00  0.00    +0.009 C 
ENDBRANCH  11  16
ENDBRANCH   1  12
BRANCH   4  18
ATOM     18  C   UNL     1       6.170  -3.529   1.383  0.00  0.00    +0.157 C 
ATOM     19  C   UNL     1       6.888  -2.308   1.963  0.00  0.00    +0.038 C 
BRANCH  18  20
ATOM     20  C   UNL     1       6.489  -4.742   2.218  0.00  0.00    +0.236 C 
ATOM     21  O   UNL     1       5.745  -5.072   3.117  0.00  0.00    -0.274 OA
ATOM     22  N   UNL     1       7.601  -5.461   1.966  0.00  0.00    -0.300 N 
ATOM     23  C   UNL     1       8.572  -5.009   0.960  0.00  0.00    +0.108 C 
ATOM     24  C   UNL     1       9.960  -4.948   1.607  0.00  0.00    +0.019 C 
ATOM     25  C   UNL     1      10.288  -6.306   2.231  0.00  0.00    +0.003 C 
ATOM     26  C   UNL     1       9.261  -6.630   3.319  0.00  0.00    +0.019 C 
ATOM     27  C   UNL     1       7.869  -6.707   2.697  0.00  0.00    +0.108 C 
ENDBRANCH  18  20
ENDBRANCH   4  18
TORSDOF 5
