REMARK  Name = ZINC60455535
REMARK  10 active torsions:
REMARK  status: ('A' for Active; 'I' for Inactive)
REMARK    1  A    between atoms: C_1  and  O_2
REMARK    2  A    between atoms: O_2  and  C_3
REMARK    3  A    between atoms: C_3  and  C_5
REMARK    4  A    between atoms: C_5  and  O_6
REMARK    5  A    between atoms: O_6  and  C_7
REMARK    6  A    between atoms: C_10  and  N_13
REMARK    7  A    between atoms: C_14  and  C_16
REMARK    8  A    between atoms: C_17  and  C_18
REMARK    9  A    between atoms: C_21  and  S_24
REMARK   10  A    between atoms: S_24  and  N_27
REMARK                            x       y       z     vdW  Elec       q    Type
REMARK                         _______ _______ _______ _____ _____    ______ ____
ROOT
ATOM      1  N   UNL     1       1.908  -7.916  -3.224  0.00  0.00    -0.282 N 
ATOM      2  C   UNL     1       2.454  -8.353  -4.377  0.00  0.00    +0.241 C 
ATOM      3  O   UNL     1       2.902  -7.554  -5.178  0.00  0.00    -0.270 OA
ATOM      4  H   UNL     1       1.620  -8.554  -2.552  0.00  0.00    +0.155 HD
ENDROOT
BRANCH   1   8
ATOM      5  C   UNL     1       1.462  -3.827  -2.547  0.00  0.00    +0.121 A 
ATOM      6  C   UNL     1       1.728  -4.680  -1.486  0.00  0.00    +0.047 A 
ATOM      7  C   UNL     1       1.877  -6.035  -1.710  0.00  0.00    +0.027 A 
ATOM      8  C   UNL     1       1.758  -6.543  -2.997  0.00  0.00    +0.034 A 
ATOM      9  C   UNL     1       1.490  -5.688  -4.058  0.00  0.00    +0.027 A 
ATOM     10  C   UNL     1       1.337  -4.335  -3.832  0.00  0.00    +0.047 A 
BRANCH   5  11
ATOM     11  O   UNL     1       1.316  -2.493  -2.326  0.00  0.00    -0.481 OA
BRANCH  11  12
ATOM     12  C   UNL     1       1.457  -2.040  -0.978  0.00  0.00    +0.349 C 
BRANCH  12  13
ATOM     13  C   UNL     1       1.265  -0.546  -0.929  0.00  0.00    +0.345 C 
ATOM     14  O   UNL     1       1.031   0.067  -1.943  0.00  0.00    -0.247 OA
BRANCH  13  16
ATOM     15  C   UNL     1       1.160   1.519   0.216  0.00  0.00    +0.280 C 
ATOM     16  O   UNL     1       1.353   0.103   0.243  0.00  0.00    -0.466 OA
ENDBRANCH  13  16
ENDBRANCH  12  13
ENDBRANCH  11  12
ENDBRANCH   5  11
ENDBRANCH   1   8
BRANCH   2  17
ATOM     17  C   UNL     1       2.506  -9.787  -4.665  0.00  0.00    +0.068 C 
ATOM     18  C   UNL     1       3.051 -10.223  -5.818  0.00  0.00    +0.013 C 
BRANCH  18  19
ATOM     19  C   UNL     1       3.104 -11.666  -6.108  0.00  0.00    -0.025 A 
ATOM     20  C   UNL     1       2.584 -12.586  -5.192  0.00  0.00    +0.010 A 
ATOM     21  C   UNL     1       2.636 -13.935  -5.471  0.00  0.00    +0.029 A 
ATOM     22  C   UNL     1       3.201 -14.380  -6.653  0.00  0.00    +0.105 A 
ATOM     23  C   UNL     1       3.718 -13.475  -7.565  0.00  0.00    +0.029 A 
ATOM     24  C   UNL     1       3.668 -12.123  -7.303  0.00  0.00    +0.010 A 
BRANCH  22  25
ATOM     25  S   UNL     1       3.264 -16.106  -7.000  0.00  0.00    +0.056 S 
ATOM     26  O   UNL     1       4.331 -16.297  -7.919  0.00  0.00    -0.153 OA
ATOM     27  O   UNL     1       3.209 -16.774  -5.747  0.00  0.00    -0.153 OA
BRANCH  25  28
ATOM     28  N   UNL     1       1.870 -16.495  -7.806  0.00  0.00    -0.204 NA
ATOM     29  H   UNL     1       1.212 -15.808  -7.995  0.00  0.00    +0.144 HD
ATOM     30  H   UNL     1       1.712 -17.409  -8.088  0.00  0.00    +0.144 HD
ENDBRANCH  25  28
ENDBRANCH  22  25
ENDBRANCH  18  19
ENDBRANCH   2  17
TORSDOF 9
