REMARK  Name = ZINC14655891
REMARK  15 active torsions:
REMARK  status: ('A' for Active; 'I' for Inactive)
REMARK    1  A    between atoms: C_1  and  C_2
REMARK    2  A    between atoms: C_2  and  C_3
REMARK    3  A    between atoms: C_3  and  C_4
REMARK    4  A    between atoms: C_4  and  N_5
REMARK    5  A    between atoms: C_6  and  N_33
REMARK    6  A    between atoms: C_7  and  N_14
REMARK    7  A    between atoms: N_14  and  C_15
REMARK    8  A    between atoms: C_16  and  C_18
REMARK    9  A    between atoms: C_19  and  C_20
REMARK   10  A    between atoms: C_22  and  O_31
REMARK   11  A    between atoms: C_23  and  O_27
REMARK   12  A    between atoms: O_27  and  C_28
REMARK   13  A    between atoms: C_28  and  C_29
REMARK   14  A    between atoms: C_29  and  C_30
REMARK   15  A    between atoms: O_31  and  C_32
REMARK                            x       y       z     vdW  Elec       q    Type
REMARK                         _______ _______ _______ _____ _____    ______ ____
ROOT
ATOM      1  N   UNL     1       2.319   3.754  -0.188  0.00  0.00    -0.264 N 
ATOM      2  C   UNL     1       2.324   5.210  -0.350  0.00  0.00    +0.139 C 
ATOM      3  C   UNL     1       3.470   3.101   0.070  0.00  0.00    +0.244 C 
ATOM      4  O   UNL     1       3.482   1.885   0.117  0.00  0.00    -0.270 OA
ENDROOT
BRANCH   1   7
ATOM      5  N   UNL     1      -0.737   2.269  -1.584  0.00  0.00    -0.280 N 
ATOM      6  C   UNL     1       0.439   2.977  -1.505  0.00  0.00    +0.127 A 
ATOM      7  C   UNL     1       1.111   3.036  -0.301  0.00  0.00    +0.140 A 
ATOM      8  C   UNL     1       0.569   2.366   0.812  0.00  0.00    +0.277 A 
ATOM      9  O   UNL     1       1.142   2.401   1.888  0.00  0.00    -0.266 OA
ATOM     10  N   UNL     1      -0.587   1.686   0.681  0.00  0.00    -0.273 N 
ATOM     11  H   UNL     1      -0.975   1.213   1.472  0.00  0.00    +0.173 HD
ATOM     12  C   UNL     1      -1.224   1.636  -0.502  0.00  0.00    +0.331 A 
ATOM     13  O   UNL     1      -2.263   1.010  -0.594  0.00  0.00    -0.246 OA
BRANCH   6  14
ATOM     14  N   UNL     1       0.940   3.619  -2.613  0.00  0.00    -0.343 N 
ATOM     15  H   UNL     1       1.792   4.081  -2.562  0.00  0.00    +0.144 HD
ATOM     16  H   UNL     1       0.442   3.611  -3.445  0.00  0.00    +0.144 HD
ENDBRANCH   6  14
BRANCH   5  17
ATOM     17  C   UNL     1      -1.460   2.198  -2.856  0.00  0.00    +0.128 C 
BRANCH  17  18
ATOM     18  C   UNL     1      -0.973   0.987  -3.653  0.00  0.00    +0.021 C 
BRANCH  18  20
ATOM     19  C   UNL     1      -1.242  -0.299  -5.779  0.00  0.00    +0.004 C 
ATOM     20  C   UNL     1      -1.729   0.913  -4.982  0.00  0.00    -0.002 C 
ENDBRANCH  18  20
ENDBRANCH  17  18
ENDBRANCH   5  17
ENDBRANCH   1   7
BRANCH   3  21
ATOM     21  C   UNL     1       4.704   3.854   0.294  0.00  0.00    +0.068 C 
ATOM     22  C   UNL     1       5.856   3.200   0.552  0.00  0.00    +0.013 C 
BRANCH  22  23
ATOM     23  C   UNL     1       7.096   3.957   0.777  0.00  0.00    -0.020 A 
ATOM     24  C   UNL     1       8.292   3.281   1.045  0.00  0.00    +0.057 A 
ATOM     25  C   UNL     1       9.454   3.997   1.255  0.00  0.00    +0.164 A 
ATOM     26  C   UNL     1       9.435   5.390   1.200  0.00  0.00    +0.180 A 
ATOM     27  C   UNL     1       8.248   6.063   0.935  0.00  0.00    +0.087 A 
ATOM     28  C   UNL     1       7.085   5.355   0.718  0.00  0.00    +0.031 A 
ATOM     29 CL   UNL     1       8.232   7.797   0.870  0.00  0.00    -0.080 Cl
BRANCH  25  30
ATOM     30  O   UNL     1      10.617   3.343   1.516  0.00  0.00    -0.491 OA
ATOM     31  C   UNL     1      10.564   1.916   1.556  0.00  0.00    +0.277 C 
ENDBRANCH  25  30
BRANCH  26  32
ATOM     32  O   UNL     1      10.579   6.092   1.407  0.00  0.00    -0.487 OA
BRANCH  32  33
ATOM     33  C   UNL     1      11.380   6.382   0.260  0.00  0.00    +0.229 C 
BRANCH  33  34
ATOM     34  C   UNL     1      12.618   7.173   0.687  0.00  0.00    +0.038 C 
ATOM     35  C   UNL     1      13.474   7.483  -0.542  0.00  0.00    +0.007 C 
ENDBRANCH  33  34
ENDBRANCH  32  33
ENDBRANCH  26  32
ENDBRANCH  22  23
ENDBRANCH   3  21
TORSDOF 11
