REMARK  Name = ZINC21734696
REMARK  8 active torsions:
REMARK  status: ('A' for Active; 'I' for Inactive)
REMARK    1  A    between atoms: C_1  and  C_2
REMARK    2  A    between atoms: N_10  and  N_14
REMARK    3  A    between atoms: C_15  and  C_17
REMARK    4  A    between atoms: C_17  and  O_18
REMARK    5  A    between atoms: O_18  and  C_19
REMARK    6  A    between atoms: C_19  and  C_21
REMARK    7  A    between atoms: C_21  and  S_22
REMARK    8  A    between atoms: S_22  and  C_23
REMARK                            x       y       z     vdW  Elec       q    Type
REMARK                         _______ _______ _______ _____ _____    ______ ____
ROOT
ATOM      1  N   UNL     1      -1.156  -0.694   0.009  0.00  0.00    -0.221 N 
ATOM      2  C   UNL     1       0.002  -0.004   0.002  0.00  0.00    +0.267 C 
ATOM      3  O   UNL     1       1.060  -0.596  -0.011  0.00  0.00    -0.271 OA
ATOM      4  H   UNL     1      -2.116  -0.157   0.021  0.00  0.00    +0.174 HD
ENDROOT
BRANCH   1  14
ATOM      5  C   UNL     1      -1.195  -8.613   0.526  0.00  0.00    +0.007 C 
ATOM      6  C   UNL     1      -1.342  -7.177   1.032  0.00  0.00    -0.014 C 
ATOM      7  C   UNL     1      -0.015  -6.436   0.856  0.00  0.00    +0.006 C 
ATOM      8  C   UNL     1      -0.160  -5.002   1.372  0.00  0.00    +0.035 C 
ATOM      9  C   UNL     1      -1.265  -4.290   0.601  0.00  0.00    +0.114 C 
ATOM     10  C   UNL     1      -2.590  -5.031   0.746  0.00  0.00    +0.035 C 
ATOM     11  C   UNL     1      -2.435  -6.464   0.232  0.00  0.00    +0.006 C 
ATOM     12  C   UNL     1      -1.405  -2.862   1.078  0.00  0.00    +0.263 C 
ATOM     13  O   UNL     1      -1.697  -2.487   2.193  0.00  0.00    -0.271 OA
ATOM     14  N   UNL     1      -1.137  -2.095   0.002  0.00  0.00    -0.137 N 
ATOM     15  C   UNL     1      -0.856  -2.837  -1.076  0.00  0.00    +0.326 C 
ATOM     16  O   UNL     1      -0.587  -2.372  -2.166  0.00  0.00    -0.251 OA
ATOM     17  N   UNL     1      -0.902  -4.158  -0.816  0.00  0.00    -0.284 N 
ATOM     18  H   UNL     1      -0.730  -5.057  -1.426  0.00  0.00    +0.151 HD
ENDBRANCH   1  14
BRANCH   2  19
ATOM     19  C   UNL     1      -0.018   1.503   0.010  0.00  0.00    +0.329 C 
BRANCH  19  20
ATOM     20  O   UNL     1       1.344   2.005   0.000  0.00  0.00    -0.455 OA
BRANCH  20  21
ATOM     21  C   UNL     1       1.502   3.338   0.006  0.00  0.00    +0.318 C 
ATOM     22  O   UNL     1       0.534   4.061   0.019  0.00  0.00    -0.250 OA
BRANCH  21  23
ATOM     23  C   UNL     1       2.886   3.933  -0.004  0.00  0.00    +0.194 C 
BRANCH  23  24
ATOM     24  S   UNL     1       2.767   5.743   0.006  0.00  0.00    -0.113 S 
BRANCH  24  25
ATOM     25  C   UNL     1       4.444   6.281  -0.007  0.00  0.00    +0.017 A 
ATOM     26  C   UNL     1       5.471   5.359  -0.021  0.00  0.00    +0.015 A 
ATOM     27  C   UNL     1       6.799   5.774  -0.032  0.00  0.00    +0.002 A 
ATOM     28  C   UNL     1       7.122   7.098  -0.028  0.00  0.00    +0.008 A 
ATOM     29  C   UNL     1       6.107   8.069  -0.013  0.00  0.00    -0.015 A 
ATOM     30  C   UNL     1       4.751   7.659  -0.008  0.00  0.00    +0.014 A 
ATOM     31  C   UNL     1       3.737   8.631   0.013  0.00  0.00    +0.050 A 
ATOM     32  C   UNL     1       4.070   9.953   0.018  0.00  0.00    +0.020 A 
ATOM     33  C   UNL     1       5.404  10.355   0.007  0.00  0.00    +0.002 A 
ATOM     34  C   UNL     1       6.412   9.441  -0.008  0.00  0.00    +0.008 A 
ATOM     35 CL   UNL     1       2.069   8.151   0.026  0.00  0.00    -0.083 Cl
ENDBRANCH  24  25
ENDBRANCH  23  24
ENDBRANCH  21  23
ENDBRANCH  20  21
ENDBRANCH  19  20
ENDBRANCH   2  19
TORSDOF 7
