REMARK  Name = ZINC33812702
REMARK  15 active torsions:
REMARK  status: ('A' for Active; 'I' for Inactive)
REMARK    1  A    between atoms: C_1  and  C_2
REMARK    2  A    between atoms: C_2  and  C_3
REMARK    3  A    between atoms: C_3  and  C_4
REMARK    4  A    between atoms: C_4  and  C_5
REMARK    5  A    between atoms: C_5  and  C_6
REMARK    6  A    between atoms: C_6  and  N_7
REMARK    7  A    between atoms: C_11  and  C_12
REMARK    8  A    between atoms: C_13  and  C_32
REMARK    9  A    between atoms: C_14  and  C_30
REMARK   10  A    between atoms: N_17  and  C_26
REMARK   11  A    between atoms: C_18  and  N_19
REMARK   12  A    between atoms: N_22  and  C_25
REMARK   13  A    between atoms: C_26  and  C_27
REMARK   14  A    between atoms: C_27  and  C_28
REMARK   15  A    between atoms: C_28  and  C_29
REMARK                            x       y       z     vdW  Elec       q    Type
REMARK                         _______ _______ _______ _____ _____    ______ ____
ROOT
ATOM      1  C   UNL     1      -8.347  -6.028   1.817  0.00  0.00    +0.019 A 
ATOM      2  C   UNL     1      -8.705  -6.174   0.466  0.00  0.00    -0.017 A 
ATOM      3  C   UNL     1      -9.972  -6.659   0.154  0.00  0.00    +0.120 A 
ATOM      4  C   UNL     1     -10.867  -6.993   1.202  0.00  0.00    +0.270 A 
ATOM      5  O   UNL     1     -11.978  -7.418   0.935  0.00  0.00    -0.266 OA
ATOM      6  N   UNL     1     -10.501  -6.844   2.487  0.00  0.00    -0.295 N 
ATOM      7  C   UNL     1      -9.269  -6.378   2.817  0.00  0.00    +0.112 A 
ATOM      8  C   UNL     1      -7.733  -5.811  -0.627  0.00  0.00    +0.046 C 
ENDROOT
BRANCH   1  13
ATOM      9  N   UNL     1      -3.628  -6.802   1.681  0.00  0.00    -0.255 N 
ATOM     10  C   UNL     1      -4.533  -5.909   2.043  0.00  0.00    +0.258 C 
ATOM     11  O   UNL     1      -4.202  -4.829   2.497  0.00  0.00    -0.269 OA
ATOM     12  C   UNL     1      -5.911  -6.250   1.887  0.00  0.00    +0.077 C 
ATOM     13  C   UNL     1      -7.022  -5.521   2.179  0.00  0.00    +0.032 C 
ATOM     14  S   UNL     1      -5.779  -7.896   1.202  0.00  0.00    -0.061 S 
ATOM     15  C   UNL     1      -3.996  -7.998   1.172  0.00  0.00    +0.121 C 
ATOM     16  S   UNL     1      -3.004  -9.287   0.636  0.00  0.00    -0.027 S 
BRANCH   9  17
ATOM     17  C   UNL     1      -2.205  -6.486   1.827  0.00  0.00    +0.115 C 
BRANCH  17  18
ATOM     18  C   UNL     1      -1.697  -5.816   0.549  0.00  0.00    +0.019 C 
BRANCH  18  19
ATOM     19  C   UNL     1      -0.211  -5.487   0.703  0.00  0.00    +0.002 C 
BRANCH  19  20
ATOM     20  C   UNL     1       0.297  -4.816  -0.575  0.00  0.00    -0.000 C 
BRANCH  20  22
ATOM     21  C   UNL     1       2.292  -3.816  -1.700  0.00  0.00    +0.004 C 
ATOM     22  C   UNL     1       1.784  -4.487  -0.422  0.00  0.00    -0.003 C 
ENDBRANCH  20  22
ENDBRANCH  19  20
ENDBRANCH  18  19
ENDBRANCH  17  18
ENDBRANCH   9  17
ENDBRANCH   1  13
BRANCH   7  23
ATOM     23  N   UNL     1      -8.926  -6.244   4.131  0.00  0.00    -0.320 N 
ATOM     24  C   UNL     1      -8.262  -7.339   4.855  0.00  0.00    +0.088 C 
ATOM     25  C   UNL     1      -7.022  -6.776   5.557  0.00  0.00    -0.060 C 
ATOM     26  N   UNL     1      -7.413  -5.640   6.402  0.00  0.00    +0.380 N 
ATOM     27  C   UNL     1      -7.923  -4.547   5.565  0.00  0.00    -0.060 C 
ATOM     28  C   UNL     1      -9.203  -4.997   4.862  0.00  0.00    +0.088 C 
ATOM     29  C   UNL     1      -6.244  -5.171   7.159  0.00  0.00    -0.096 C 
ATOM     30  H   UNL     1      -8.132  -5.933   7.046  0.00  0.00    -0.082 HD
ENDBRANCH   7  23
BRANCH   3  31
ATOM     31  C   UNL     1     -10.367  -6.819  -1.213  0.00  0.00    +0.105 C 
ATOM     32  N   UNL     1     -10.681  -6.946  -2.297  0.00  0.00    -0.191 NA
ENDBRANCH   3  31
BRANCH   6  33
ATOM     33  C   UNL     1     -11.445  -7.196   3.550  0.00  0.00    +0.126 C 
BRANCH  33  34
ATOM     34  C   UNL     1     -11.356  -8.696   3.836  0.00  0.00    +0.021 C 
BRANCH  34  35
ATOM     35  C   UNL     1     -12.342  -9.064   4.946  0.00  0.00    -0.002 C 
ATOM     36  C   UNL     1     -12.252 -10.564   5.232  0.00  0.00    +0.004 C 
ENDBRANCH  34  35
ENDBRANCH  33  34
ENDBRANCH   6  33
TORSDOF 11
