REMARK  Name = ZINC00698149
REMARK  9 active torsions:
REMARK  status: ('A' for Active; 'I' for Inactive)
REMARK    1  A    between atoms: C_1  and  C_2
REMARK    2  A    between atoms: C_2  and  C_3
REMARK    3  A    between atoms: C_2  and  N_4
REMARK    4  A    between atoms: N_4  and  C_5
REMARK    5  A    between atoms: C_5  and  C_6
REMARK    6  A    between atoms: C_11  and  C_14
REMARK    7  A    between atoms: C_14  and  C_15
REMARK    8  A    between atoms: N_20  and  C_23
REMARK    9  A    between atoms: C_30  and  C_32
REMARK                            x       y       z     vdW  Elec       q    Type
REMARK                         _______ _______ _______ _____ _____    ______ ____
ROOT
ATOM      1  C   UNL     1      -6.954  10.933   0.680  0.00  0.00    +0.236 C 
ATOM      2  O   UNL     1      -6.153  11.814   0.448  0.00  0.00    -0.274 OA
ATOM      3  N   UNL     1      -6.672   9.660   0.337  0.00  0.00    -0.263 N 
ATOM      4  C   UNL     1      -5.465   9.358  -0.282  0.00  0.00    +0.165 A 
ATOM      5  N   UNL     1      -5.014   8.188  -0.693  0.00  0.00    -0.229 NA
ATOM      6  C   UNL     1      -3.830   8.074  -1.263  0.00  0.00    +0.059 A 
ATOM      7  C   UNL     1      -3.084   9.193  -1.431  0.00  0.00    +0.072 A 
ATOM      8  S   UNL     1      -4.165  10.424  -0.718  0.00  0.00    -0.060 S 
ATOM      9  H   UNL     1      -7.398   8.861   0.547  0.00  0.00    +0.157 HD
ENDROOT
BRANCH   1  10
ATOM     10  C   UNL     1      -8.263  11.260   1.351  0.00  0.00    +0.204 C 
BRANCH  10  11
ATOM     11  N   UNL     1      -8.327  12.699   1.619  0.00  0.00    -0.284 N 
ATOM     12  C   UNL     1      -7.865  13.189   2.786  0.00  0.00    +0.283 C 
ATOM     13  O   UNL     1      -7.260  12.463   3.553  0.00  0.00    -0.267 OA
BRANCH  12  14
ATOM     14  C   UNL     1      -8.092  14.595   3.133  0.00  0.00    +0.189 A 
ATOM     15  C   UNL     1      -7.522  15.267   4.176  0.00  0.00    +0.054 A 
ATOM     16  C   UNL     1      -8.018  16.579   4.131  0.00  0.00    +0.042 A 
ATOM     17  C   UNL     1      -8.858  16.651   3.075  0.00  0.00    +0.196 A 
ATOM     18  O   UNL     1      -8.896  15.455   2.473  0.00  0.00    -0.458 OA
ENDBRANCH  12  14
BRANCH  11  20
ATOM     19  C   UNL     1      -8.202  13.378  -0.728  0.00  0.00    +0.028 C 
ATOM     20  C   UNL     1      -8.895  13.606   0.618  0.00  0.00    +0.071 C 
ATOM     21  C   UNL     1     -10.393  13.333   0.473  0.00  0.00    +0.028 C 
ENDBRANCH  11  20
ENDBRANCH  10  11
ENDBRANCH   1  10
BRANCH   6  22
ATOM     22  C   UNL     1      -3.323   6.732  -1.723  0.00  0.00    +0.152 C 
BRANCH  22  23
ATOM     23  C   UNL     1      -3.349   5.763  -0.570  0.00  0.00    +0.221 C 
ATOM     24  O   UNL     1      -3.741   6.126   0.519  0.00  0.00    -0.275 OA
ATOM     25  N   UNL     1      -2.936   4.492  -0.748  0.00  0.00    -0.298 N 
ATOM     26  C   UNL     1      -2.953   3.530   0.364  0.00  0.00    +0.126 C 
ATOM     27  C   UNL     1      -1.573   2.871   0.460  0.00  0.00    +0.124 C 
ATOM     28  N   UNL     1      -1.214   2.304  -0.847  0.00  0.00    -0.325 N 
ATOM     29  C   UNL     1      -1.095   3.353  -1.869  0.00  0.00    +0.124 C 
ATOM     30  C   UNL     1      -2.456   4.031  -2.059  0.00  0.00    +0.126 C 
BRANCH  28  31
ATOM     31  C   UNL     1      -0.037   1.553  -0.761  0.00  0.00    +0.065 A 
ATOM     32  C   UNL     1       1.145   2.157  -0.353  0.00  0.00    +0.026 A 
ATOM     33  C   UNL     1       2.307   1.414  -0.275  0.00  0.00    +0.002 A 
ATOM     34  C   UNL     1       2.295   0.070  -0.601  0.00  0.00    +0.003 A 
ATOM     35  C   UNL     1       1.121  -0.535  -1.008  0.00  0.00    +0.040 A 
ATOM     36  C   UNL     1      -0.046   0.202  -1.089  0.00  0.00    +0.144 A 
ATOM     37  F   UNL     1      -1.194  -0.389  -1.488  0.00  0.00    -0.204 F 
ENDBRANCH  28  31
ENDBRANCH  22  23
ENDBRANCH   6  22
TORSDOF 7
