REMARK  Name = ZINC20616182
REMARK  16 active torsions:
REMARK  status: ('A' for Active; 'I' for Inactive)
REMARK    1  A    between atoms: C_1  and  C_2
REMARK    2  A    between atoms: C_6  and  O_39
REMARK    3  A    between atoms: C_7  and  O_37
REMARK    4  A    between atoms: N_12  and  C_13
REMARK    5  A    between atoms: C_13  and  C_14
REMARK    6  A    between atoms: C_16  and  C_22
REMARK    7  A    between atoms: C_19  and  O_20
REMARK    8  A    between atoms: O_20  and  C_21
REMARK    9  A    between atoms: N_23  and  N_24
REMARK   10  A    between atoms: C_25  and  C_27
REMARK   11  A    between atoms: C_29  and  C_33
REMARK   12  A    between atoms: C_33  and  C_34
REMARK   13  A    between atoms: C_33  and  C_35
REMARK   14  A    between atoms: C_33  and  C_36
REMARK   15  A    between atoms: O_37  and  C_38
REMARK   16  A    between atoms: O_39  and  C_40
REMARK                            x       y       z     vdW  Elec       q    Type
REMARK                         _______ _______ _______ _____ _____    ______ ____
ROOT
ATOM      1  C   UNL     1      -3.835   6.277  -0.320  0.00  0.00    -0.022 A 
ATOM      2  C   UNL     1      -2.619   5.634  -0.228  0.00  0.00    +0.014 A 
ATOM      3  C   UNL     1      -2.553   4.246  -0.374  0.00  0.00    -0.005 A 
ATOM      4  C   UNL     1      -3.719   3.516  -0.618  0.00  0.00    +0.013 A 
ATOM      5  C   UNL     1      -4.931   4.167  -0.703  0.00  0.00    +0.046 A 
ATOM      6  C   UNL     1      -4.992   5.547  -0.557  0.00  0.00    +0.121 A 
ENDROOT
BRANCH   6   7
ATOM      7  O   UNL     1      -6.188   6.184  -0.647  0.00  0.00    -0.495 OA
ATOM      8  C   UNL     1      -7.339   5.374  -0.893  0.00  0.00    +0.277 C 
ENDBRANCH   6   7
BRANCH   3   9
ATOM      9  C   UNL     1      -1.255   3.554  -0.276  0.00  0.00    +0.138 C 
ATOM     10  N   UNL     1      -1.195   2.264  -0.412  0.00  0.00    -0.187 NA
BRANCH  10  11
ATOM     11  N   UNL     1       0.039   1.606  -0.319  0.00  0.00    -0.202 N 
ATOM     12  C   UNL     1       0.101   0.267  -0.460  0.00  0.00    +0.283 C 
ATOM     13  O   UNL     1      -0.915  -0.371  -0.662  0.00  0.00    -0.267 OA
ATOM     14  H   UNL     1       0.957   2.183  -0.131  0.00  0.00    +0.178 HD
BRANCH  12  15
ATOM     15  C   UNL     1       1.397  -0.423  -0.368  0.00  0.00    +0.149 A 
ATOM     16  C   UNL     1       1.624  -1.784  -0.483  0.00  0.00    +0.058 A 
ATOM     17  C   UNL     1       3.001  -1.944  -0.319  0.00  0.00    +0.042 A 
ATOM     18  N   UNL     1       3.524  -0.759  -0.131  0.00  0.00    -0.280 N 
ATOM     19  N   UNL     1       2.618   0.151  -0.153  0.00  0.00    -0.169 NA
ATOM     20  H   UNL     1       4.609  -0.654   0.018  0.00  0.00    +0.189 HD
BRANCH  17  21
ATOM     21  C   UNL     1       3.753  -3.249  -0.359  0.00  0.00    +0.004 C 
ATOM     22  C   UNL     1       3.869  -3.728  -1.808  0.00  0.00    +0.017 C 
ATOM     23  C   UNL     1       5.153  -3.049   0.225  0.00  0.00    +0.017 C 
ATOM     24  C   UNL     1       3.002  -4.296   0.466  0.00  0.00    +0.017 C 
ENDBRANCH  17  21
ENDBRANCH  12  15
ENDBRANCH  10  11
ENDBRANCH   3   9
BRANCH   1  25
ATOM     25  C   UNL     1      -3.908   7.774  -0.163  0.00  0.00    -0.038 C 
BRANCH  25  36
ATOM     26  C   UNL     1      -2.853  10.146   1.144  0.00  0.00    -0.008 C 
ATOM     27  C   UNL     1      -4.235   9.558   1.438  0.00  0.00    -0.040 C 
ATOM     28  C   UNL     1      -4.624   9.886   2.855  0.00  0.00    -0.054 A 
ATOM     29  C   UNL     1      -4.365  11.164   3.330  0.00  0.00    +0.051 A 
ATOM     30  C   UNL     1      -4.713  11.514   4.622  0.00  0.00    +0.162 A 
ATOM     31  C   UNL     1      -5.325  10.578   5.450  0.00  0.00    +0.162 A 
ATOM     32  C   UNL     1      -5.580   9.305   4.973  0.00  0.00    +0.053 A 
ATOM     33  C   UNL     1      -5.228   8.958   3.677  0.00  0.00    -0.044 A 
ATOM     34  C   UNL     1      -5.523   7.557   3.204  0.00  0.00    +0.017 C 
ATOM     35  C   UNL     1      -5.459   7.496   1.678  0.00  0.00    -0.073 C 
ATOM     36  N   UNL     1      -4.194   8.105   1.239  0.00  0.00    +0.387 N 
ATOM     37  H   UNL     1      -3.377   7.697   1.851  0.00  0.00    -0.080 HD
BRANCH  31  38
ATOM     38  O   UNL     1      -5.673  10.913   6.722  0.00  0.00    -0.491 OA
ATOM     39  C   UNL     1      -6.298   9.900   7.512  0.00  0.00    +0.277 C 
ENDBRANCH  31  38
BRANCH  30  40
ATOM     40  O   UNL     1      -4.457  12.768   5.082  0.00  0.00    -0.491 OA
ATOM     41  C   UNL     1      -3.826  13.675   4.176  0.00  0.00    +0.277 C 
ENDBRANCH  30  40
ENDBRANCH  25  36
ENDBRANCH   1  25
TORSDOF 9
