REMARK  Name = ZINC60238959
REMARK  11 active torsions:
REMARK  status: ('A' for Active; 'I' for Inactive)
REMARK    1  A    between atoms: C_1  and  C_2
REMARK    2  A    between atoms: C_5  and  C_8
REMARK    3  A    between atoms: C_8  and  C_10
REMARK    4  A    between atoms: C_8  and  N_30
REMARK    5  A    between atoms: C_10  and  N_11
REMARK    6  A    between atoms: C_12  and  C_14
REMARK    7  A    between atoms: C_14  and  C_16
REMARK    8  A    between atoms: C_14  and  N_19
REMARK    9  A    between atoms: C_16  and  C_17
REMARK   10  A    between atoms: C_16  and  C_18
REMARK   11  A    between atoms: C_20  and  C_22
REMARK                            x       y       z     vdW  Elec       q    Type
REMARK                         _______ _______ _______ _____ _____    ______ ____
ROOT
ATOM      1  N   UNL     1      -1.243  -6.321   0.358  0.00  0.00    -0.315 N 
ATOM      2  C   UNL     1      -2.354  -7.052   0.573  0.00  0.00    +0.234 C 
ATOM      3  O   UNL     1      -3.414  -6.499   0.779  0.00  0.00    -0.274 OA
ATOM      4  H   UNL     1      -0.396  -6.763   0.193  0.00  0.00    +0.149 HD
ENDROOT
BRANCH   1   5
ATOM      5  C   UNL     1      -1.315  -4.857   0.372  0.00  0.00    +0.093 C 
BRANCH   5   6
ATOM      6  C   UNL     1       0.042  -4.276  -0.029  0.00  0.00    -0.020 C 
BRANCH   6  11
ATOM      7  C   UNL     1       1.182  -5.664  -5.521  0.00  0.00    +0.044 C 
ATOM      8  C   UNL     1       0.885  -5.302  -4.089  0.00  0.00    -0.050 A 
ATOM      9  C   UNL     1       1.461  -6.023  -3.060  0.00  0.00    +0.003 A 
ATOM     10  C   UNL     1       1.188  -5.691  -1.746  0.00  0.00    +0.002 A 
ATOM     11  C   UNL     1       0.340  -4.637  -1.461  0.00  0.00    -0.059 A 
ATOM     12  C   UNL     1      -0.235  -3.915  -2.490  0.00  0.00    +0.002 A 
ATOM     13  C   UNL     1       0.041  -4.245  -3.804  0.00  0.00    +0.003 A 
ENDBRANCH   6  11
BRANCH   6  14
ATOM     14  N   UNL     1       0.009  -2.814   0.111  0.00  0.00    +0.385 N 
ATOM     15  C   UNL     1      -0.207  -2.440   1.532  0.00  0.00    -0.078 C 
ATOM     16  C   UNL     1       0.334  -0.990   1.603  0.00  0.00    -0.020 C 
ATOM     17  C   UNL     1       1.563  -1.034   0.666  0.00  0.00    -0.020 C 
ATOM     18  C   UNL     1       1.317  -2.236  -0.264  0.00  0.00    -0.078 C 
ATOM     19  H   UNL     1      -0.721  -2.425  -0.468  0.00  0.00    -0.081 HD
ENDBRANCH   6  14
ENDBRANCH   5   6
ENDBRANCH   1   5
BRANCH   2  20
ATOM     20  C   UNL     1      -2.280  -8.557   0.558  0.00  0.00    +0.162 C 
BRANCH  20  21
ATOM     21  N   UNL     1      -3.610  -9.114   0.816  0.00  0.00    -0.300 N 
ATOM     22  C   UNL     1      -3.733 -10.349   1.342  0.00  0.00    +0.250 C 
ATOM     23  O   UNL     1      -2.740 -11.001   1.603  0.00  0.00    -0.270 OA
ATOM     24  H   UNL     1      -4.402  -8.595   0.608  0.00  0.00    +0.150 HD
BRANCH  22  25
ATOM     25  C   UNL     1      -5.073 -10.910   1.602  0.00  0.00    +0.107 A 
ATOM     26  C   UNL     1      -5.727 -11.655   0.615  0.00  0.00    +0.138 A 
ATOM     27  C   UNL     1      -6.982 -12.177   0.867  0.00  0.00    +0.039 A 
ATOM     28  C   UNL     1      -7.591 -11.965   2.090  0.00  0.00    +0.006 A 
ATOM     29  C   UNL     1      -6.951 -11.230   3.072  0.00  0.00    +0.039 A 
ATOM     30  C   UNL     1      -5.694 -10.705   2.839  0.00  0.00    +0.138 A 
ATOM     31  F   UNL     1      -5.069  -9.992   3.801  0.00  0.00    -0.205 F 
ATOM     32  F   UNL     1      -5.135 -11.863  -0.581  0.00  0.00    -0.205 F 
ENDBRANCH  22  25
ENDBRANCH  20  21
BRANCH  20  33
ATOM     33  C   UNL     1      -1.786  -9.030  -0.810  0.00  0.00    +0.012 C 
ATOM     34  C   UNL     1      -1.710 -10.558  -0.825  0.00  0.00    +0.009 C 
ATOM     35  C   UNL     1      -2.756  -8.557  -1.894  0.00  0.00    +0.009 C 
ENDBRANCH  20  33
ENDBRANCH   2  20
TORSDOF 8
