REMARK  Name = ZINC22024576
REMARK  13 active torsions:
REMARK  status: ('A' for Active; 'I' for Inactive)
REMARK    1  A    between atoms: C_1  and  C_2
REMARK    2  A    between atoms: C_2  and  N_3
REMARK    3  A    between atoms: N_3  and  C_4
REMARK    4  A    between atoms: N_3  and  S_6
REMARK    5  A    between atoms: C_4  and  C_5
REMARK    6  A    between atoms: S_6  and  C_9
REMARK    7  A    between atoms: C_12  and  O_32
REMARK    8  A    between atoms: C_13  and  N_15
REMARK    9  A    between atoms: C_16  and  C_18
REMARK   10  A    between atoms: C_18  and  C_19
REMARK   11  A    between atoms: C_19  and  N_20
REMARK   12  A    between atoms: N_20  and  S_21
REMARK   13  A    between atoms: S_21  and  C_24
REMARK                            x       y       z     vdW  Elec       q    Type
REMARK                         _______ _______ _______ _____ _____    ______ ____
ROOT
ATOM      1  N   UNL     1       2.356   3.900   0.001  0.00  0.00    -0.283 N 
ATOM      2  C   UNL     1       2.393   5.151   0.500  0.00  0.00    +0.219 C 
ATOM      3  O   UNL     1       1.411   5.618   1.038  0.00  0.00    -0.275 OA
ATOM      4  H   UNL     1       3.270   3.442  -0.405  0.00  0.00    +0.155 HD
ENDROOT
BRANCH   1   9
ATOM      5  C   UNL     1      -1.245   3.146   0.003  0.00  0.00    +0.107 A 
ATOM      6  C   UNL     1      -1.226   1.763  -0.013  0.00  0.00    +0.032 A 
ATOM      7  C   UNL     1      -0.022   1.084  -0.016  0.00  0.00    +0.049 A 
ATOM      8  C   UNL     1       1.171   1.789  -0.013  0.00  0.00    +0.138 A 
ATOM      9  C   UNL     1       1.153   3.182  -0.003  0.00  0.00    +0.077 A 
ATOM     10  C   UNL     1      -0.060   3.856   0.006  0.00  0.00    +0.055 A 
BRANCH   5  11
ATOM     11  S   UNL     1      -2.784   4.004   0.013  0.00  0.00    +0.061 S 
ATOM     12  O   UNL     1      -3.744   3.110   0.560  0.00  0.00    -0.153 OA
ATOM     13  O   UNL     1      -2.531   5.285   0.574  0.00  0.00    -0.153 OA
BRANCH  11  14
ATOM     14  N   UNL     1      -3.215   4.254  -1.565  0.00  0.00    -0.177 NA
BRANCH  14  16
ATOM     15  C   UNL     1      -5.502   3.647  -2.187  0.00  0.00    +0.022 C 
ATOM     16  C   UNL     1      -4.024   3.257  -2.271  0.00  0.00    +0.106 C 
ENDBRANCH  14  16
BRANCH  14  17
ATOM     17  C   UNL     1      -2.788   5.473  -2.257  0.00  0.00    +0.106 C 
ATOM     18  C   UNL     1      -1.501   5.194  -3.035  0.00  0.00    +0.022 C 
ENDBRANCH  14  17
ENDBRANCH  11  14
ENDBRANCH   5  11
BRANCH   8  19
ATOM     19  O   UNL     1       2.356   1.123  -0.022  0.00  0.00    -0.505 OA
ATOM     20  H   UNL     1       3.302   1.683  -0.020  0.00  0.00    +0.292 HD
ENDBRANCH   8  19
ENDBRANCH   1   9
BRANCH   2  21
ATOM     21  C   UNL     1       3.654   5.969   0.391  0.00  0.00    +0.113 C 
BRANCH  21  22
ATOM     22  C   UNL     1       3.429   7.340   1.032  0.00  0.00    +0.115 C 
BRANCH  22  23
ATOM     23  N   UNL     1       4.655   8.135   0.926  0.00  0.00    -0.189 NA
ATOM     24  H   UNL     1       5.629   7.634   0.834  0.00  0.00    +0.148 HD
BRANCH  23  25
ATOM     25  S   UNL     1       4.607   9.769   1.190  0.00  0.00    +0.059 S 
ATOM     26  O   UNL     1       5.938  10.244   1.042  0.00  0.00    -0.153 OA
ATOM     27  O   UNL     1       3.527  10.275   0.416  0.00  0.00    -0.153 OA
BRANCH  25  28
ATOM     28  C   UNL     1       4.171  10.011   2.880  0.00  0.00    +0.108 A 
ATOM     29  C   UNL     1       2.842  10.126   3.241  0.00  0.00    +0.031 A 
ATOM     30  C   UNL     1       2.497  10.310   4.567  0.00  0.00    +0.043 A 
ATOM     31  C   UNL     1       3.485  10.391   5.534  0.00  0.00    +0.159 A 
ATOM     32  C   UNL     1       4.819  10.281   5.171  0.00  0.00    +0.160 A 
ATOM     33  C   UNL     1       5.160  10.091   3.843  0.00  0.00    +0.069 A 
ATOM     34  F   UNL     1       5.784  10.359   6.113  0.00  0.00    -0.202 F 
ATOM     35  F   UNL     1       3.149  10.575   6.829  0.00  0.00    -0.202 F 
ENDBRANCH  25  28
ENDBRANCH  23  25
ENDBRANCH  22  23
ENDBRANCH  21  22
ENDBRANCH   2  21
TORSDOF 11
