REMARK  Name = ZINC46130274
REMARK  9 active torsions:
REMARK  status: ('A' for Active; 'I' for Inactive)
REMARK    1  A    between atoms: C_1  and  C_2
REMARK    2  A    between atoms: C_5  and  C_27
REMARK    3  A    between atoms: N_8  and  C_10
REMARK    4  A    between atoms: C_10  and  C_11
REMARK    5  A    between atoms: C_16  and  C_17
REMARK    6  A    between atoms: C_17  and  N_18
REMARK    7  A    between atoms: N_21  and  N_22
REMARK    8  A    between atoms: C_23  and  O_25
REMARK    9  A    between atoms: O_25  and  C_26
REMARK                            x       y       z     vdW  Elec       q    Type
REMARK                         _______ _______ _______ _____ _____    ______ ____
ROOT
ATOM      1  C   UNL     1       3.041  -2.188   2.520  0.00  0.00    -0.059 A 
ATOM      2  C   UNL     1       3.941  -3.113   2.025  0.00  0.00    +0.002 A 
ATOM      3  C   UNL     1       5.246  -2.739   1.766  0.00  0.00    +0.000 A 
ATOM      4  C   UNL     1       5.651  -1.438   2.002  0.00  0.00    +0.000 A 
ATOM      5  C   UNL     1       4.752  -0.513   2.497  0.00  0.00    +0.005 A 
ATOM      6  C   UNL     1       3.445  -0.886   2.751  0.00  0.00    -0.029 A 
ENDROOT
BRANCH   1   7
ATOM      7  C   UNL     1       1.618  -2.596   2.802  0.00  0.00    -0.043 C 
BRANCH   7  13
ATOM      8  C   UNL     1       1.374  -5.328  -1.253  0.00  0.00    +0.005 C 
ATOM      9  C   UNL     1       1.299  -5.353   0.275  0.00  0.00    -0.031 C 
ATOM     10  C   UNL     1      -0.060  -5.909   0.711  0.00  0.00    +0.003 C 
ATOM     11  C   UNL     1      -0.155  -5.856   2.239  0.00  0.00    -0.031 C 
ATOM     12  C   UNL     1       0.060  -4.415   2.708  0.00  0.00    -0.075 C 
ATOM     13  N   UNL     1       1.386  -3.951   2.283  0.00  0.00    +0.383 N 
ATOM     14  C   UNL     1       1.461  -3.931   0.817  0.00  0.00    -0.075 C 
ATOM     15  C   UNL     1       0.918  -6.758   2.849  0.00  0.00    +0.005 C 
ATOM     16  H   UNL     1       2.091  -4.574   2.646  0.00  0.00    -0.081 HD
ENDBRANCH   7  13
ENDBRANCH   1   7
BRANCH   6  17
ATOM     17  C   UNL     1       2.463   0.124   3.285  0.00  0.00    +0.141 C 
BRANCH  17  18
ATOM     18  N   UNL     1       2.228  -0.129   4.709  0.00  0.00    -0.294 N 
ATOM     19  C   UNL     1       1.379   0.656   5.402  0.00  0.00    +0.316 C 
ATOM     20  O   UNL     1       0.808   1.574   4.845  0.00  0.00    -0.251 OA
ATOM     21  N   UNL     1       1.163   0.424   6.712  0.00  0.00    -0.216 N 
ATOM     22  H   UNL     1       2.684  -0.861   5.154  0.00  0.00    +0.151 HD
ATOM     23  H   UNL     1       0.552   0.989   7.210  0.00  0.00    +0.174 HD
BRANCH  21  24
ATOM     24  N   UNL     1       1.821  -0.633   7.354  0.00  0.00    -0.198 N 
ATOM     25  C   UNL     1       1.605  -0.866   8.663  0.00  0.00    +0.417 C 
ATOM     26  O   UNL     1       2.176  -1.783   9.220  0.00  0.00    -0.225 OA
ATOM     27  H   UNL     1       2.432  -1.198   6.855  0.00  0.00    +0.176 HD
BRANCH  25  28
ATOM     28  O   UNL     1       0.757  -0.082   9.355  0.00  0.00    -0.453 OA
ATOM     29  C   UNL     1       0.576  -0.385  10.740  0.00  0.00    +0.282 C 
ENDBRANCH  25  28
ENDBRANCH  21  24
ENDBRANCH  17  18
ENDBRANCH   6  17
TORSDOF 6
