REMARK  Name = ZINC00309343
REMARK  6 active torsions:
REMARK  status: ('A' for Active; 'I' for Inactive)
REMARK    1  A    between atoms: C_1  and  C_2
REMARK    2  A    between atoms: C_4  and  C_20
REMARK    3  A    between atoms: C_5  and  S_9
REMARK    4  A    between atoms: C_7  and  C_8
REMARK    5  A    between atoms: S_9  and  N_12
REMARK    6  A    between atoms: C_17  and  C_19
REMARK                            x       y       z     vdW  Elec       q    Type
REMARK                         _______ _______ _______ _____ _____    ______ ____
ROOT
ATOM      1  S   UNL     1      -2.656   0.822  -0.050  0.00  0.00    +0.061 S 
ATOM      2  O   UNL     1      -3.548   1.002  -1.141  0.00  0.00    -0.153 OA
ATOM      3  O   UNL     1      -1.907  -0.372   0.133  0.00  0.00    -0.153 OA
ENDROOT
BRANCH   1   8
ATOM      4  C   UNL     1       1.335   5.337  -0.334  0.00  0.00    +0.044 C 
ATOM      5  C   UNL     1       0.338   4.210  -0.260  0.00  0.00    -0.047 A 
ATOM      6  C   UNL     1      -1.012   4.470  -0.409  0.00  0.00    +0.009 A 
ATOM      7  C   UNL     1      -1.926   3.436  -0.341  0.00  0.00    -0.024 A 
ATOM      8  C   UNL     1      -1.491   2.141  -0.129  0.00  0.00    +0.109 A 
ATOM      9  C   UNL     1      -0.142   1.882   0.025  0.00  0.00    +0.032 A 
ATOM     10  C   UNL     1       0.773   2.916  -0.043  0.00  0.00    -0.046 A 
ATOM     11  C   UNL     1       2.244   2.632   0.120  0.00  0.00    +0.044 C 
ATOM     12  C   UNL     1      -3.397   3.720  -0.503  0.00  0.00    +0.046 C 
ENDBRANCH   1   8
BRANCH   1  13
ATOM     13  N   UNL     1      -3.547   1.038   1.330  0.00  0.00    -0.174 NA
ATOM     14  C   UNL     1      -4.936   1.512   1.258  0.00  0.00    +0.110 C 
ATOM     15  C   UNL     1      -5.090   2.738   2.156  0.00  0.00    +0.017 C 
ATOM     16  C   UNL     1      -4.615   2.394   3.570  0.00  0.00    +0.003 C 
ATOM     17  C   UNL     1      -3.136   2.004   3.533  0.00  0.00    +0.020 C 
ATOM     18  C   UNL     1      -2.961   0.764   2.649  0.00  0.00    +0.077 C 
ATOM     19  C   UNL     1      -1.472   0.451   2.494  0.00  0.00    +0.026 C 
ENDBRANCH   1  13
TORSDOF 2
