REMARK  Name = ZINC14650731
REMARK  12 active torsions:
REMARK  status: ('A' for Active; 'I' for Inactive)
REMARK    1  A    between atoms: C_1  and  C_2
REMARK    2  A    between atoms: C_2  and  C_4
REMARK    3  A    between atoms: C_2  and  O_23
REMARK    4  A    between atoms: N_6  and  N_7
REMARK    5  A    between atoms: C_8  and  C_10
REMARK    6  A    between atoms: C_15  and  O_16
REMARK    7  A    between atoms: O_16  and  C_17
REMARK    8  A    between atoms: C_17  and  C_18
REMARK    9  A    between atoms: C_18  and  C_19
REMARK   10  A    between atoms: C_19  and  C_20
REMARK   11  A    between atoms: C_19  and  C_21
REMARK   12  A    between atoms: O_23  and  C_24
REMARK                            x       y       z     vdW  Elec       q    Type
REMARK                         _______ _______ _______ _____ _____    ______ ____
ROOT
ATOM      1  N   UNL     1       2.616  -1.144   2.606  0.00  0.00    -0.230 N 
ATOM      2  C   UNL     1       3.953  -1.089   2.765  0.00  0.00    +0.264 C 
ATOM      3  O   UNL     1       4.652  -0.633   1.880  0.00  0.00    -0.269 OA
ATOM      4  H   UNL     1       2.058  -1.508   3.311  0.00  0.00    +0.173 HD
ENDROOT
BRANCH   2   5
ATOM      5  C   UNL     1       4.569  -1.582   4.011  0.00  0.00    +0.081 A 
ATOM      6  C   UNL     1       3.770  -2.112   5.028  0.00  0.00    +0.032 A 
ATOM      7  C   UNL     1       4.352  -2.571   6.190  0.00  0.00    +0.019 A 
ATOM      8  C   UNL     1       5.727  -2.509   6.356  0.00  0.00    +0.019 A 
ATOM      9  C   UNL     1       6.527  -1.987   5.359  0.00  0.00    +0.047 A 
ATOM     10  C   UNL     1       5.959  -1.526   4.181  0.00  0.00    +0.133 A 
ATOM     11 BR   UNL     1       3.270  -3.288   7.565  0.00  0.00    -0.050 Br
BRANCH  10  12
ATOM     12  O   UNL     1       6.745  -1.018   3.198  0.00  0.00    -0.491 OA
BRANCH  12  13
ATOM     13  C   UNL     1       8.153  -0.994   3.441  0.00  0.00    +0.229 C 
BRANCH  13  14
ATOM     14  C   UNL     1       8.869  -0.392   2.231  0.00  0.00    +0.044 C 
BRANCH  14  15
ATOM     15  C   UNL     1      10.376  -0.365   2.491  0.00  0.00    -0.014 C 
ATOM     16  C   UNL     1      10.900  -1.799   2.600  0.00  0.00    +0.007 C 
ATOM     17  C   UNL     1      11.081   0.349   1.336  0.00  0.00    +0.007 C 
ENDBRANCH  14  15
ENDBRANCH  13  14
ENDBRANCH  12  13
ENDBRANCH  10  12
ENDBRANCH   2   5
BRANCH   1  20
ATOM     18  C   UNL     1       0.694  -0.732   1.263  0.00  0.00    +0.270 C 
ATOM     19  O   UNL     1      -0.004  -1.187   2.145  0.00  0.00    -0.270 OA
ATOM     20  N   UNL     1       2.031  -0.676   1.422  0.00  0.00    -0.231 N 
ATOM     21  H   UNL     1       2.588  -0.312   0.716  0.00  0.00    +0.173 HD
BRANCH  18  23
ATOM     22  C   UNL     1       0.291   1.280  -0.130  0.00  0.00    +0.062 C 
ATOM     23  C   UNL     1       0.064  -0.228  -0.010  0.00  0.00    +0.257 C 
BRANCH  23  24
ATOM     24  O   UNL     1      -1.339  -0.499   0.012  0.00  0.00    -0.478 OA
BRANCH  24  25
ATOM     25  C   UNL     1      -1.966  -0.607  -1.189  0.00  0.00    +0.140 A 
ATOM     26  C   UNL     1      -1.272  -0.344  -2.361  0.00  0.00    +0.048 A 
ATOM     27  C   UNL     1      -1.911  -0.454  -3.581  0.00  0.00    +0.023 A 
ATOM     28  C   UNL     1      -3.242  -0.827  -3.635  0.00  0.00    +0.043 A 
ATOM     29  C   UNL     1      -3.937  -1.090  -2.468  0.00  0.00    +0.043 A 
ATOM     30  C   UNL     1      -3.300  -0.986  -1.245  0.00  0.00    +0.084 A 
ATOM     31 CL   UNL     1      -4.169  -1.323   0.219  0.00  0.00    -0.080 Cl
ATOM     32 CL   UNL     1      -4.042  -0.964  -5.170  0.00  0.00    -0.083 Cl
ENDBRANCH  24  25
ENDBRANCH  23  24
ENDBRANCH  18  23
ENDBRANCH   1  20
TORSDOF 9
