REMARK  Name = ZINC59421150
REMARK  6 active torsions:
REMARK  status: ('A' for Active; 'I' for Inactive)
REMARK    1  A    between atoms: C_4  and  C_7
REMARK    2  A    between atoms: N_10  and  C_12
REMARK    3  A    between atoms: C_12  and  C_13
REMARK    4  A    between atoms: N_15  and  N_16
REMARK    5  A    between atoms: C_17  and  C_18
REMARK    6  A    between atoms: C_23  and  O_24
REMARK                            x       y       z     vdW  Elec       q    Type
REMARK                         _______ _______ _______ _____ _____    ______ ____
ROOT
ATOM      1  C   UNL     1       5.986  -4.022   1.331  0.00  0.00    +0.255 C 
ATOM      2  O   UNL     1       5.659  -3.318   2.263  0.00  0.00    -0.272 OA
ATOM      3  N   UNL     1       6.550  -5.224   1.560  0.00  0.00    -0.205 N 
ATOM      4  H   UNL     1       6.811  -5.787   0.815  0.00  0.00    +0.177 HD
ENDROOT
BRANCH   3   5
ATOM      5  N   UNL     1       6.758  -5.661   2.875  0.00  0.00    -0.188 NA
ATOM      6  C   UNL     1       7.301  -6.819   3.095  0.00  0.00    +0.142 C 
BRANCH   6   7
ATOM      7  C   UNL     1       7.520  -7.279   4.479  0.00  0.00    +0.038 A 
ATOM      8  C   UNL     1       8.109  -8.522   4.721  0.00  0.00    +0.033 A 
ATOM      9  C   UNL     1       8.312  -8.946   6.018  0.00  0.00    +0.043 A 
ATOM     10  C   UNL     1       7.933  -8.144   7.082  0.00  0.00    +0.039 A 
ATOM     11  C   UNL     1       7.348  -6.912   6.855  0.00  0.00    +0.061 A 
ATOM     12  C   UNL     1       7.143  -6.468   5.558  0.00  0.00    +0.139 A 
ATOM     13 BR   UNL     1       6.835  -5.827   8.316  0.00  0.00    -0.046 Br
ATOM     14 CL   UNL     1       9.043 -10.492   6.318  0.00  0.00    -0.083 Cl
BRANCH  12  15
ATOM     15  O   UNL     1       6.574  -5.255   5.334  0.00  0.00    -0.505 OA
ATOM     16  H   UNL     1       5.609  -5.279   5.271  0.00  0.00    +0.292 HD
ENDBRANCH  12  15
ENDBRANCH   6   7
ENDBRANCH   3   5
BRANCH   1  17
ATOM     17  C   UNL     1       5.762  -3.552  -0.084  0.00  0.00    +0.265 C 
BRANCH  17  21
ATOM     18  C   UNL     1       3.699  -0.690  -0.038  0.00  0.00    +0.205 A 
ATOM     19  N   UNL     1       4.921  -0.140  -0.042  0.00  0.00    -0.108 NA
ATOM     20  N   UNL     1       5.776  -1.106  -0.059  0.00  0.00    -0.045 NA
ATOM     21  N   UNL     1       5.141  -2.225  -0.065  0.00  0.00    -0.154 N 
ATOM     22  N   UNL     1       3.873  -1.996  -0.047  0.00  0.00    -0.130 NA
BRANCH  18  26
ATOM     23  C   UNL     1      -0.017   1.379   0.010  0.00  0.00    +0.000 A 
ATOM     24  C   UNL     1       1.169   2.092   0.002  0.00  0.00    +0.001 A 
ATOM     25  C   UNL     1       2.377   1.425  -0.013  0.00  0.00    +0.012 A 
ATOM     26  C   UNL     1       2.402   0.033  -0.021  0.00  0.00    +0.023 A 
ATOM     27  C   UNL     1       1.205  -0.680  -0.013  0.00  0.00    +0.012 A 
ATOM     28  C   UNL     1       0.002  -0.004   0.002  0.00  0.00    +0.001 A 
ENDBRANCH  18  26
ENDBRANCH  17  21
ENDBRANCH   1  17
TORSDOF 6
