REMARK  Name = ZINC41259650
REMARK  4 active torsions:
REMARK  status: ('A' for Active; 'I' for Inactive)
REMARK    1  A    between atoms: C_4  and  N_7
REMARK    2  A    between atoms: N_13  and  C_16
REMARK    3  A    between atoms: C_16  and  C_18
REMARK    4  A    between atoms: C_16  and  C_20
REMARK                            x       y       z     vdW  Elec       q    Type
REMARK                         _______ _______ _______ _____ _____    ______ ____
ROOT
ATOM      1  N   UNL     1       3.623  -0.656  -0.098  0.00  0.00    -0.269 N 
ATOM      2  C   UNL     1       3.645  -1.995   0.058  0.00  0.00    +0.307 C 
ATOM      3  O   UNL     1       2.602  -2.617   0.121  0.00  0.00    -0.252 OA
ATOM      4  N   UNL     1       4.823  -2.644   0.144  0.00  0.00    -0.283 N 
ATOM      5  C   UNL     1       6.088  -1.902   0.254  0.00  0.00    +0.124 C 
ATOM      6  C   UNL     1       6.875  -2.455   1.446  0.00  0.00    +0.105 C 
ATOM      7  N   UNL     1       7.019  -3.910   1.301  0.00  0.00    -0.281 NA
ATOM      8  C   UNL     1       5.713  -4.580   1.329  0.00  0.00    +0.105 C 
ATOM      9  C   UNL     1       4.877  -4.114   0.138  0.00  0.00    +0.124 C 
ATOM     10  H   UNL     1       4.446  -0.176  -0.278  0.00  0.00    +0.156 HD
ENDROOT
BRANCH   1  14
ATOM     11  C   UNL     1       0.021   1.416   0.190  0.00  0.00    +0.000 A 
ATOM     12  C   UNL     1       1.216   2.078   0.404  0.00  0.00    +0.002 A 
ATOM     13  C   UNL     1       2.412   1.393   0.309  0.00  0.00    +0.023 A 
ATOM     14  C   UNL     1       2.413   0.040  -0.001  0.00  0.00    +0.035 A 
ATOM     15  C   UNL     1       1.211  -0.622  -0.215  0.00  0.00    +0.023 A 
ATOM     16  C   UNL     1       0.018   0.069  -0.119  0.00  0.00    +0.002 A 
ENDBRANCH   1  14
BRANCH   7  17
ATOM     17  C   UNL     1       7.913  -4.456   2.331  0.00  0.00    +0.192 C 
BRANCH  17  18
ATOM     18  C   UNL     1       8.036  -5.947   2.150  0.00  0.00    +0.002 A 
ATOM     19  C   UNL     1       7.826  -6.513   0.907  0.00  0.00    +0.007 A 
ATOM     20  C   UNL     1       7.938  -7.880   0.741  0.00  0.00    +0.000 A 
ATOM     21  C   UNL     1       8.262  -8.683   1.819  0.00  0.00    +0.001 A 
ATOM     22  C   UNL     1       8.473  -8.119   3.063  0.00  0.00    +0.020 A 
ATOM     23  C   UNL     1       8.366  -6.749   3.228  0.00  0.00    +0.047 A 
ATOM     24 CL   UNL     1       8.637  -6.039   4.788  0.00  0.00    -0.083 Cl
ENDBRANCH  17  18
BRANCH  17  25
ATOM     25  C   UNL     1       9.242  -3.835   2.206  0.00  0.00    +0.086 C 
ATOM     26  N   UNL     1      10.268  -3.356   2.110  0.00  0.00    -0.195 NA
ENDBRANCH  17  25
ENDBRANCH   7  17
TORSDOF 4
