REMARK  Name = ZINC16042592
REMARK  8 active torsions:
REMARK  status: ('A' for Active; 'I' for Inactive)
REMARK    1  A    between atoms: C_1  and  O_2
REMARK    2  A    between atoms: O_2  and  C_3
REMARK    3  A    between atoms: C_5  and  C_13
REMARK    4  A    between atoms: C_7  and  O_11
REMARK    5  A    between atoms: C_8  and  O_9
REMARK    6  A    between atoms: O_9  and  C_10
REMARK    7  A    between atoms: O_11  and  C_12
REMARK    8  A    between atoms: N_32  and  C_35
REMARK                            x       y       z     vdW  Elec       q    Type
REMARK                         _______ _______ _______ _____ _____    ______ ____
ROOT
ATOM      1  C   UNL     1      -4.871   0.264   0.051  0.00  0.00    +0.154 C 
ATOM      2  C   UNL     1      -5.095   0.899  -1.302  0.00  0.00    +0.046 A 
ATOM      3  C   UNL     1      -4.943   2.219  -1.541  0.00  0.00    -0.015 A 
ATOM      4  C   UNL     1      -5.242   2.434  -2.942  0.00  0.00    +0.003 A 
ATOM      5  C   UNL     1      -5.251   3.578  -3.745  0.00  0.00    +0.010 A 
ATOM      6  C   UNL     1      -5.594   3.408  -5.064  0.00  0.00    +0.001 A 
ATOM      7  C   UNL     1      -5.919   2.167  -5.586  0.00  0.00    +0.002 A 
ATOM      8  C   UNL     1      -5.919   1.018  -4.814  0.00  0.00    +0.026 A 
ATOM      9  C   UNL     1      -5.573   1.160  -3.472  0.00  0.00    +0.047 A 
ATOM     10  N   UNL     1      -5.474   0.258  -2.452  0.00  0.00    -0.356 N 
ATOM     11  H   UNL     1      -5.645  -0.694  -2.530  0.00  0.00    +0.166 HD
ATOM     12  C   UNL     1      -4.537   3.237  -0.506  0.00  0.00    +0.069 C 
ATOM     13  C   UNL     1      -3.922   2.506   0.695  0.00  0.00    +0.167 C 
ATOM     14  N   UNL     1      -4.760   1.358   1.040  0.00  0.00    -0.276 N 
ATOM     15  C   UNL     1      -5.423   1.259   2.193  0.00  0.00    +0.234 C 
ATOM     16  O   UNL     1      -6.144   0.296   2.350  0.00  0.00    -0.274 OA
ATOM     17  C   UNL     1      -5.337   2.253   3.305  0.00  0.00    +0.204 C 
ATOM     18  N   UNL     1      -4.415   3.334   3.000  0.00  0.00    -0.288 N 
ATOM     19  C   UNL     1      -3.774   3.456   1.839  0.00  0.00    +0.237 C 
ATOM     20  O   UNL     1      -3.023   4.398   1.702  0.00  0.00    -0.274 OA
ENDROOT
BRANCH   1  23
ATOM     21  C   UNL     1      -2.444  -2.609   0.429  0.00  0.00    +0.165 A 
ATOM     22  C   UNL     1      -3.614  -1.865   0.439  0.00  0.00    +0.055 A 
ATOM     23  C   UNL     1      -3.598  -0.543   0.035  0.00  0.00    -0.014 A 
ATOM     24  C   UNL     1      -2.419   0.040  -0.390  0.00  0.00    +0.055 A 
ATOM     25  C   UNL     1      -1.245  -0.699  -0.407  0.00  0.00    +0.165 A 
ATOM     26  C   UNL     1      -1.256  -2.027   0.003  0.00  0.00    +0.204 A 
BRANCH  21  28
ATOM     27  C   UNL     1      -3.716  -4.440   1.257  0.00  0.00    +0.277 C 
ATOM     28  O   UNL     1      -2.460  -3.908   0.832  0.00  0.00    -0.491 OA
ENDBRANCH  21  28
BRANCH  26  29
ATOM     29  O   UNL     1      -0.106  -2.755  -0.012  0.00  0.00    -0.488 OA
ATOM     30  C   UNL     1       0.193  -3.469  -1.212  0.00  0.00    +0.277 C 
ENDBRANCH  26  29
BRANCH  25  31
ATOM     31  O   UNL     1      -0.085  -0.125  -0.825  0.00  0.00    -0.491 OA
ATOM     32  C   UNL     1      -0.149   1.244  -1.232  0.00  0.00    +0.277 C 
ENDBRANCH  25  31
ENDBRANCH   1  23
BRANCH  18  33
ATOM     33  C   UNL     1      -4.177   4.349   4.030  0.00  0.00    +0.077 C 
ATOM     34  C   UNL     1      -3.605   3.681   5.282  0.00  0.00    +0.022 C 
ATOM     35  C   UNL     1      -3.356   4.740   6.357  0.00  0.00    +0.002 C 
ATOM     36  C   UNL     1      -4.675   5.432   6.706  0.00  0.00    +0.000 C 
ATOM     37  C   UNL     1      -5.248   6.100   5.455  0.00  0.00    +0.002 C 
ATOM     38  C   UNL     1      -5.497   5.041   4.379  0.00  0.00    +0.022 C 
ENDBRANCH  18  33
TORSDOF 5
