REMARK  Name = ZINC09601921
REMARK  5 active torsions:
REMARK  status: ('A' for Active; 'I' for Inactive)
REMARK    1  A    between atoms: C_1  and  C_2
REMARK    2  A    between atoms: C_6  and  C_8
REMARK    3  A    between atoms: C_20  and  S_23
REMARK    4  A    between atoms: S_23  and  C_24
REMARK    5  A    between atoms: C_24  and  C_25
REMARK                            x       y       z     vdW  Elec       q    Type
REMARK                         _______ _______ _______ _____ _____    ______ ____
ROOT
ATOM      1  C   UNL     1       1.020   3.528   0.011  0.00  0.00    +0.312 C 
ATOM      2  N   UNL     1      -0.230   3.945  -0.616  0.00  0.00    -0.304 N 
ATOM      3  C   UNL     1      -0.332   3.898  -2.010  0.00  0.00    +0.040 A 
ATOM      4  C   UNL     1      -1.147   2.978  -2.642  0.00  0.00    +0.025 A 
ATOM      5  C   UNL     1      -1.198   2.936  -4.024  0.00  0.00    +0.017 A 
ATOM      6  C   UNL     1      -0.438   3.812  -4.779  0.00  0.00    +0.019 A 
ATOM      7  C   UNL     1       0.378   4.742  -4.162  0.00  0.00    +0.027 A 
ATOM      8  C   UNL     1       0.434   4.798  -2.775  0.00  0.00    +0.029 A 
ATOM      9  C   UNL     1       1.281   5.785  -2.074  0.00  0.00    +0.156 A 
ATOM     10  C   UNL     1       2.120   5.361  -1.020  0.00  0.00    +0.248 A 
ATOM     11  N   UNL     1       2.861   6.261  -0.396  0.00  0.00    -0.184 NA
ATOM     12  C   UNL     1       2.799   7.533  -0.779  0.00  0.00    +0.213 A 
ATOM     13  N   UNL     1       2.008   7.910  -1.776  0.00  0.00    -0.122 NA
ATOM     14  N   UNL     1       1.268   7.066  -2.409  0.00  0.00    -0.141 NA
ATOM     15  O   UNL     1       2.155   4.054  -0.669  0.00  0.00    -0.447 OA
ATOM     16 BR   UNL     1      -0.514   3.735  -6.667  0.00  0.00    -0.050 Br
ATOM     17  H   UNL     1      -0.976   4.249  -0.076  0.00  0.00    +0.150 HD
ENDROOT
BRANCH   1  23
ATOM     18  C   UNL     1      -1.298  -0.767   0.011  0.00  0.00    +0.065 C 
ATOM     19  C   UNL     1       0.002  -0.004   0.002  0.00  0.00    +0.039 A 
ATOM     20  C   UNL     1       1.199  -0.695  -0.013  0.00  0.00    +0.023 A 
ATOM     21  C   UNL     1       2.389   0.016  -0.021  0.00  0.00    +0.004 A 
ATOM     22  C   UNL     1       2.330   1.402  -0.013  0.00  0.00    +0.029 A 
ATOM     23  C   UNL     1       1.096   2.023   0.003  0.00  0.00    +0.100 A 
ATOM     24  N   UNL     1      -0.016   1.314   0.009  0.00  0.00    -0.251 NA
ENDBRANCH   1  23
BRANCH  12  25
ATOM     25  S   UNL     1       3.783   8.738   0.049  0.00  0.00    -0.080 S 
BRANCH  25  26
ATOM     26  C   UNL     1       3.301  10.222  -0.868  0.00  0.00    +0.104 C 
BRANCH  26  27
ATOM     27  C   UNL     1       4.040  11.414  -0.317  0.00  0.00    -0.023 C 
ATOM     28  C   UNL     1       4.906  12.051  -1.065  0.00  0.00    +0.005 C 
ENDBRANCH  26  27
ENDBRANCH  25  26
ENDBRANCH  12  25
TORSDOF 4
