REMARK  Name = ZINC08426093
REMARK  4 active torsions:
REMARK  status: ('A' for Active; 'I' for Inactive)
REMARK    1  A    between atoms: C_4  and  N_7
REMARK    2  A    between atoms: C_13  and  C_14
REMARK    3  A    between atoms: C_17  and  S_19
REMARK    4  A    between atoms: S_19  and  C_20
REMARK                            x       y       z     vdW  Elec       q    Type
REMARK                         _______ _______ _______ _____ _____    ______ ____
ROOT
ATOM      1  C   UNL     1       0.968   5.537   2.315  0.00  0.00    +0.131 A 
ATOM      2  C   UNL     1      -0.222   6.154   2.660  0.00  0.00    +0.050 A 
ATOM      3  C   UNL     1      -1.126   5.136   2.975  0.00  0.00    +0.057 A 
ATOM      4  C   UNL     1      -0.470   3.950   2.815  0.00  0.00    +0.169 A 
ATOM      5  O   UNL     1       0.790   4.201   2.424  0.00  0.00    -0.449 OA
ENDROOT
BRANCH   1  12
ATOM      6  N   UNL     1       1.304  11.427   1.315  0.00  0.00    -0.226 NA
ATOM      7  C   UNL     1       1.733  10.188   1.423  0.00  0.00    +0.166 C 
ATOM      8  N   UNL     1       3.017   9.701   1.286  0.00  0.00    -0.260 N 
ATOM      9  C   UNL     1       3.254   8.409   1.432  0.00  0.00    +0.257 C 
ATOM     10  O   UNL     1       4.383   7.966   1.313  0.00  0.00    -0.269 OA
ATOM     11  C   UNL     1       2.163   7.549   1.730  0.00  0.00    +0.081 C 
ATOM     12  C   UNL     1       2.155   6.185   1.926  0.00  0.00    +0.066 C 
ATOM     13  S   UNL     1       0.801   8.706   1.776  0.00  0.00    -0.049 S 
ATOM     14  H   UNL     1       3.746  10.308   1.082  0.00  0.00    +0.157 HD
BRANCH   6  18
ATOM     15  C   UNL     1      -2.725  12.267   1.746  0.00  0.00    +0.000 A 
ATOM     16  C   UNL     1      -1.800  12.892   2.563  0.00  0.00    +0.002 A 
ATOM     17  C   UNL     1      -0.456  12.617   2.425  0.00  0.00    +0.028 A 
ATOM     18  C   UNL     1      -0.028  11.705   1.457  0.00  0.00    +0.067 A 
ATOM     19  C   UNL     1      -0.967  11.081   0.632  0.00  0.00    +0.028 A 
ATOM     20  C   UNL     1      -2.309  11.361   0.785  0.00  0.00    +0.002 A 
ENDBRANCH   6  18
ENDBRANCH   1  12
BRANCH   4  21
ATOM     21  S   UNL     1      -1.161   2.352   3.085  0.00  0.00    -0.014 S 
BRANCH  21  22
ATOM     22  C   UNL     1       0.275   1.356   2.861  0.00  0.00    +0.175 A 
ATOM     23  N   UNL     1       0.333   0.005   3.058  0.00  0.00    -0.333 N 
ATOM     24  H   UNL     1      -0.420  -0.584   3.354  0.00  0.00    +0.168 HD
ATOM     25  C   UNL     1       1.626  -0.397   2.772  0.00  0.00    +0.067 A 
ATOM     26  C   UNL     1       2.279  -1.620   2.788  0.00  0.00    +0.028 A 
ATOM     27  C   UNL     1       3.612  -1.692   2.438  0.00  0.00    +0.002 A 
ATOM     28  C   UNL     1       4.304  -0.548   2.070  0.00  0.00    +0.002 A 
ATOM     29  C   UNL     1       3.673   0.674   2.048  0.00  0.00    +0.030 A 
ATOM     30  C   UNL     1       2.323   0.765   2.400  0.00  0.00    +0.090 A 
ATOM     31  N   UNL     1       1.446   1.799   2.474  0.00  0.00    -0.222 NA
ENDBRANCH  21  22
ENDBRANCH   4  21
TORSDOF 4
