REMARK  Name = ZINC41321889
REMARK  12 active torsions:
REMARK  status: ('A' for Active; 'I' for Inactive)
REMARK    1  A    between atoms: C_1  and  C_2
REMARK    2  A    between atoms: C_5  and  N_9
REMARK    3  A    between atoms: C_10  and  C_12
REMARK    4  A    between atoms: N_14  and  C_15
REMARK    5  A    between atoms: C_15  and  C_16
REMARK    6  A    between atoms: C_16  and  C_18
REMARK    7  A    between atoms: C_16  and  N_22
REMARK    8  A    between atoms: C_18  and  C_19
REMARK    9  A    between atoms: C_19  and  C_20
REMARK   10  A    between atoms: C_19  and  C_21
REMARK   11  A    between atoms: N_22  and  C_23
REMARK   12  A    between atoms: N_22  and  C_24
REMARK                            x       y       z     vdW  Elec       q    Type
REMARK                         _______ _______ _______ _____ _____    ______ ____
ROOT
ATOM      1  C   UNL     1       0.328  -6.140  -1.138  0.00  0.00    +0.299 C 
ATOM      2  O   UNL     1       0.285  -6.736  -0.082  0.00  0.00    -0.265 OA
ATOM      3  N   UNL     1       0.100  -6.798  -2.292  0.00  0.00    -0.309 N 
ATOM      4  H   UNL     1       0.134  -6.322  -3.137  0.00  0.00    +0.149 HD
ENDROOT
BRANCH   1   6
ATOM      5  N   UNL     1       0.861  -4.020  -0.005  0.00  0.00    -0.277 N 
ATOM      6  C   UNL     1       0.633  -4.678  -1.159  0.00  0.00    +0.303 C 
ATOM      7  O   UNL     1       0.676  -4.082  -2.216  0.00  0.00    -0.265 OA
ATOM      8  H   UNL     1       0.900  -4.509   0.832  0.00  0.00    +0.155 HD
BRANCH   5  13
ATOM      9  C   UNL     1       1.587   1.605  -0.043  0.00  0.00    +0.044 C 
ATOM     10  C   UNL     1       1.394   0.110  -0.032  0.00  0.00    -0.049 A 
ATOM     11  C   UNL     1       0.731  -0.507  -1.077  0.00  0.00    +0.005 A 
ATOM     12  C   UNL     1       0.553  -1.876  -1.072  0.00  0.00    +0.025 A 
ATOM     13  C   UNL     1       1.040  -2.635  -0.015  0.00  0.00    +0.048 A 
ATOM     14  C   UNL     1       1.706  -2.011   1.034  0.00  0.00    +0.039 A 
ATOM     15  C   UNL     1       1.886  -0.641   1.019  0.00  0.00    +0.020 A 
ATOM     16 BR   UNL     1       2.372  -3.038   2.476  0.00  0.00    -0.048 Br
ENDBRANCH   5  13
ENDBRANCH   1   6
BRANCH   3  17
ATOM     17  C   UNL     1      -0.199  -8.232  -2.272  0.00  0.00    +0.089 C 
BRANCH  17  18
ATOM     18  C   UNL     1      -0.305  -8.752  -3.707  0.00  0.00    -0.052 C 
BRANCH  18  19
ATOM     19  N   UNL     1      -1.311  -7.970  -4.438  0.00  0.00    +0.379 N 
ATOM     20  C   UNL     1      -1.382  -8.441  -5.827  0.00  0.00    -0.096 C 
ATOM     21  C   UNL     1      -2.622  -8.137  -3.796  0.00  0.00    -0.096 C 
ATOM     22  H   UNL     1      -1.052  -6.994  -4.426  0.00  0.00    -0.082 HD
ENDBRANCH  18  19
BRANCH  18  23
ATOM     23  C   UNL     1      -0.719 -10.224  -3.686  0.00  0.00    -0.011 C 
BRANCH  23  24
ATOM     24  C   UNL     1       0.395 -11.059  -3.052  0.00  0.00    -0.019 C 
ATOM     25  C   UNL     1      -0.057 -12.517  -2.947  0.00  0.00    +0.007 C 
ATOM     26  C   UNL     1       1.652 -10.976  -3.921  0.00  0.00    +0.007 C 
ENDBRANCH  23  24
ENDBRANCH  18  23
ENDBRANCH  17  18
ENDBRANCH   3  17
TORSDOF 7
