REMARK  Name = ZINC59160540
REMARK  10 active torsions:
REMARK  status: ('A' for Active; 'I' for Inactive)
REMARK    1  A    between atoms: C_4  and  C_7
REMARK    2  A    between atoms: C_7  and  N_8
REMARK    3  A    between atoms: N_8  and  C_9
REMARK    4  A    between atoms: N_8  and  C_16
REMARK    5  A    between atoms: C_9  and  C_10
REMARK    6  A    between atoms: C_16  and  C_17
REMARK    7  A    between atoms: N_19  and  N_20
REMARK    8  A    between atoms: N_28  and  C_31
REMARK    9  A    between atoms: C_31  and  C_32
REMARK   10  A    between atoms: C_33  and  C_34
REMARK                            x       y       z     vdW  Elec       q    Type
REMARK                         _______ _______ _______ _____ _____    ______ ____
ROOT
ATOM      1  C   UNL     1       6.436  -0.260   0.968  0.00  0.00    +0.216 C 
ATOM      2  O   UNL     1       5.977   0.711   0.405  0.00  0.00    -0.276 OA
ATOM      3  N   UNL     1       7.770  -0.446   1.011  0.00  0.00    -0.208 N 
ATOM      4  H   UNL     1       8.137  -1.223   1.462  0.00  0.00    +0.177 HD
ENDROOT
BRANCH   3   5
ATOM      5  N   UNL     1       8.627   0.482   0.405  0.00  0.00    -0.175 NA
ATOM      6  C   UNL     1       9.915   0.247   0.353  0.00  0.00    +0.153 C 
ATOM      7  C   UNL     1      10.623  -0.996   0.741  0.00  0.00    +0.028 A 
ATOM      8  C   UNL     1      10.193  -2.218   1.245  0.00  0.00    +0.012 A 
ATOM      9  C   UNL     1      11.115  -3.209   1.516  0.00  0.00    +0.001 A 
ATOM     10  C   UNL     1      12.462  -2.986   1.286  0.00  0.00    +0.002 A 
ATOM     11  C   UNL     1      12.898  -1.775   0.786  0.00  0.00    +0.024 A 
ATOM     12  C   UNL     1      11.984  -0.765   0.507  0.00  0.00    +0.046 A 
ATOM     13  N   UNL     1      12.154   0.522   0.007  0.00  0.00    -0.262 N 
ATOM     14  C   UNL     1      10.978   1.162  -0.111  0.00  0.00    +0.272 C 
ATOM     15  O   UNL     1      10.818   2.295  -0.525  0.00  0.00    -0.268 OA
BRANCH  13  16
ATOM     16  C   UNL     1      13.450   1.103  -0.351  0.00  0.00    +0.141 C 
BRANCH  16  17
ATOM     17  C   UNL     1      13.751   0.808  -1.798  0.00  0.00    -0.007 C 
ATOM     18  C   UNL     1      14.026   1.799  -2.633  0.00  0.00    +0.005 C 
BRANCH  18  19
ATOM     19  C   UNL     1      14.321   1.509  -4.052  0.00  0.00    -0.025 A 
ATOM     20  C   UNL     1      14.305   0.193  -4.517  0.00  0.00    +0.008 A 
ATOM     21  C   UNL     1      14.581  -0.071  -5.842  0.00  0.00    +0.001 A 
ATOM     22  C   UNL     1      14.874   0.966  -6.711  0.00  0.00    +0.000 A 
ATOM     23  C   UNL     1      14.892   2.272  -6.256  0.00  0.00    +0.001 A 
ATOM     24  C   UNL     1      14.611   2.550  -4.935  0.00  0.00    +0.008 A 
ENDBRANCH  18  19
ENDBRANCH  16  17
ENDBRANCH  13  16
ENDBRANCH   3   5
BRANCH   1  25
ATOM     25  C   UNL     1       5.514  -1.258   1.620  0.00  0.00    +0.021 C 
BRANCH  25  26
ATOM     26  N   UNL     1       4.120  -0.831   1.435  0.00  0.00    +0.391 N 
ATOM     27  H   UNL     1       4.007   0.109   1.784  0.00  0.00    -0.080 HD
BRANCH  26  28
ATOM     28  C   UNL     1       3.783  -0.866   0.006  0.00  0.00    -0.042 C 
BRANCH  28  32
ATOM     29  C   UNL     1      -0.125   0.756  -0.577  0.00  0.00    +0.000 A 
ATOM     30  C   UNL     1       0.969   1.598  -0.506  0.00  0.00    +0.000 A 
ATOM     31  C   UNL     1       2.234   1.073  -0.317  0.00  0.00    +0.002 A 
ATOM     32  C   UNL     1       2.404  -0.294  -0.199  0.00  0.00    -0.064 A 
ATOM     33  C   UNL     1       1.310  -1.136  -0.269  0.00  0.00    +0.002 A 
ATOM     34  C   UNL     1       0.045  -0.611  -0.460  0.00  0.00    +0.000 A 
ENDBRANCH  28  32
ENDBRANCH  26  28
BRANCH  26  35
ATOM     35  C   UNL     1       3.229  -1.738   2.171  0.00  0.00    -0.042 C 
BRANCH  35  36
ATOM     36  C   UNL     1       3.482  -1.599   3.650  0.00  0.00    -0.064 A 
ATOM     37  C   UNL     1       4.345  -2.470   4.289  0.00  0.00    +0.002 A 
ATOM     38  C   UNL     1       4.576  -2.343   5.646  0.00  0.00    +0.000 A 
ATOM     39  C   UNL     1       3.946  -1.345   6.364  0.00  0.00    +0.000 A 
ATOM     40  C   UNL     1       3.083  -0.473   5.726  0.00  0.00    +0.000 A 
ATOM     41  C   UNL     1       2.855  -0.598   4.368  0.00  0.00    +0.002 A 
ENDBRANCH  35  36
ENDBRANCH  26  35
ENDBRANCH  25  26
ENDBRANCH   1  25
TORSDOF 10
