REMARK  Name = ZINC39559254
REMARK  11 active torsions:
REMARK  status: ('A' for Active; 'I' for Inactive)
REMARK    1  A    between atoms: C_1  and  C_2
REMARK    2  A    between atoms: C_2  and  C_3
REMARK    3  A    between atoms: C_3  and  C_4
REMARK    4  A    between atoms: C_7  and  S_10
REMARK    5  A    between atoms: S_10  and  C_11
REMARK    6  A    between atoms: C_11  and  C_12
REMARK    7  A    between atoms: N_14  and  C_15
REMARK    8  A    between atoms: C_16  and  C_24
REMARK    9  A    between atoms: N_26  and  C_27
REMARK   10  A    between atoms: C_30  and  O_33
REMARK   11  A    between atoms: O_33  and  C_34
REMARK                            x       y       z     vdW  Elec       q    Type
REMARK                         _______ _______ _______ _____ _____    ______ ____
ROOT
ATOM      1  C   UNL     1      -1.277  -6.545   6.766  0.00  0.00    +0.084 A 
ATOM      2  C   UNL     1      -1.277  -6.407   8.146  0.00  0.00    +0.069 A 
ATOM      3  C   UNL     1      -1.258  -7.626   8.935  0.00  0.00    -0.023 A 
ATOM      4  C   UNL     1      -1.242  -8.760   8.201  0.00  0.00    -0.004 A 
ATOM      5  S   UNL     1      -1.260  -8.207   6.521  0.00  0.00    -0.077 S 
ATOM      6  C   UNL     1      -1.218 -10.165   8.717  0.00  0.00    +0.043 C 
ATOM      7  C   UNL     1      -0.835 -10.127  10.204  0.00  0.00    +0.005 C 
ATOM      8  C   UNL     1      -1.686  -9.066  10.908  0.00  0.00    +0.005 C 
ATOM      9  C   UNL     1      -1.255  -7.669  10.456  0.00  0.00    +0.037 C 
ENDROOT
BRANCH   1  12
ATOM     10  C   UNL     1      -1.297  -5.861   4.500  0.00  0.00    +0.228 C 
ATOM     11  O   UNL     1      -1.286  -7.025   4.158  0.00  0.00    -0.275 OA
ATOM     12  N   UNL     1      -1.294  -5.543   5.809  0.00  0.00    -0.279 N 
ATOM     13  H   UNL     1      -1.303  -4.612   6.082  0.00  0.00    +0.155 HD
BRANCH  10  14
ATOM     14  C   UNL     1      -1.316  -4.771   3.459  0.00  0.00    +0.173 C 
BRANCH  14  15
ATOM     15  S   UNL     1      -1.316  -5.514   1.804  0.00  0.00    -0.077 S 
BRANCH  15  19
ATOM     16  C   UNL     1      -1.365  -2.090  -0.015  0.00  0.00    +0.152 A 
ATOM     17  N   UNL     1      -1.351  -2.863   1.072  0.00  0.00    -0.206 NA
ATOM     18  H   UNL     1      -1.338  -4.977  -1.187  0.00  0.00    +0.191 HD
ATOM     19  C   UNL     1      -1.338  -4.130   0.715  0.00  0.00    +0.185 A 
ATOM     20  N   UNL     1      -1.344  -4.179  -0.635  0.00  0.00    -0.254 N 
ATOM     21  N   UNL     1      -1.367  -2.848  -1.079  0.00  0.00    -0.157 NA
BRANCH  16  22
ATOM     22  C   UNL     1      -1.383  -0.583  -0.016  0.00  0.00    +0.078 C 
BRANCH  22  24
ATOM     23  C   UNL     1       0.036   1.473  -0.023  0.00  0.00    +0.004 C 
ATOM     24  C   UNL     1       0.054  -0.057  -0.023  0.00  0.00    +0.004 C 
ENDBRANCH  22  24
ENDBRANCH  16  22
ENDBRANCH  15  19
ENDBRANCH  14  15
ENDBRANCH  10  14
ENDBRANCH   1  12
BRANCH   2  25
ATOM     25  C   UNL     1      -1.295  -5.086   8.781  0.00  0.00    +0.251 C 
ATOM     26  O   UNL     1      -2.356  -4.553   9.047  0.00  0.00    -0.270 OA
ATOM     27  N   UNL     1      -0.136  -4.462   9.070  0.00  0.00    -0.281 N 
ATOM     28  H   UNL     1       0.709  -4.914   8.921  0.00  0.00    +0.155 HD
BRANCH  27  29
ATOM     29  C   UNL     1      -0.152  -3.160   9.588  0.00  0.00    +0.034 A 
ATOM     30  C   UNL     1       0.843  -2.259   9.232  0.00  0.00    +0.027 A 
ATOM     31  C   UNL     1       0.826  -0.976   9.743  0.00  0.00    +0.047 A 
ATOM     32  C   UNL     1      -0.183  -0.588  10.611  0.00  0.00    +0.120 A 
ATOM     33  C   UNL     1      -1.177  -1.487  10.966  0.00  0.00    +0.047 A 
ATOM     34  C   UNL     1      -1.166  -2.769  10.452  0.00  0.00    +0.027 A 
BRANCH  32  35
ATOM     35  O   UNL     1      -0.198   0.676  11.114  0.00  0.00    -0.495 OA
ATOM     36  C   UNL     1      -1.267   1.008  12.002  0.00  0.00    +0.277 C 
ENDBRANCH  32  35
ENDBRANCH  27  29
ENDBRANCH   2  25
TORSDOF 9
