REMARK  Name = ZINC13642536
REMARK  5 active torsions:
REMARK  status: ('A' for Active; 'I' for Inactive)
REMARK    1  A    between atoms: C_1  and  C_2
REMARK    2  A    between atoms: C_2  and  N_3
REMARK    3  A    between atoms: C_14  and  C_16
REMARK    4  A    between atoms: C_27  and  S_32
REMARK    5  A    between atoms: S_32  and  N_35
REMARK                            x       y       z     vdW  Elec       q    Type
REMARK                         _______ _______ _______ _____ _____    ______ ____
ROOT
ATOM      1  C   UNL     1      -0.013   1.086   0.008  0.00  0.00    +0.105 C 
ATOM      2  C   UNL     1      -0.740   1.596  -1.239  0.00  0.00    +0.029 C 
ATOM      3  C   UNL     1      -2.050   0.765  -1.383  0.00  0.00    +0.033 C 
ATOM      4  C   UNL     1      -1.585  -0.507  -2.066  0.00  0.00    -0.030 C 
ATOM      5  C   UNL     1      -0.451  -0.304  -2.691  0.00  0.00    -0.023 C 
ATOM      6  C   UNL     1      -0.001   1.126  -2.507  0.00  0.00    +0.049 C 
ATOM      7  C   UNL     1       1.486   1.219  -2.384  0.00  0.00    -0.018 A 
ATOM      8  C   UNL     1       2.260   1.072  -3.527  0.00  0.00    +0.034 A 
ATOM      9  C   UNL     1       3.636   1.155  -3.458  0.00  0.00    +0.106 A 
ATOM     10  C   UNL     1       4.261   1.384  -2.246  0.00  0.00    +0.030 A 
ATOM     11  C   UNL     1       3.503   1.531  -1.102  0.00  0.00    +0.025 A 
ATOM     12  C   UNL     1       2.118   1.447  -1.171  0.00  0.00    +0.031 A 
ATOM     13  N   UNL     1       1.362   1.596  -0.002  0.00  0.00    -0.336 N 
ATOM     14  H   UNL     1       1.739   2.025   0.782  0.00  0.00    +0.147 HD
ENDROOT
BRANCH   1  26
ATOM     15  N   UNL     1      -2.783   2.686   4.662  0.00  0.00    -0.340 N 
ATOM     16  C   UNL     1      -3.484   1.534   4.970  0.00  0.00    +0.050 A 
ATOM     17  C   UNL     1      -4.369   1.222   5.998  0.00  0.00    +0.026 A 
ATOM     18  C   UNL     1      -4.934  -0.033   6.066  0.00  0.00    +0.002 A 
ATOM     19  C   UNL     1      -4.630  -0.995   5.115  0.00  0.00    +0.001 A 
ATOM     20  C   UNL     1      -3.756  -0.705   4.089  0.00  0.00    +0.010 A 
ATOM     21  C   UNL     1      -3.177   0.559   4.009  0.00  0.00    +0.008 A 
ATOM     22  C   UNL     1      -2.228   1.183   3.069  0.00  0.00    +0.008 A 
ATOM     23  C   UNL     1      -2.022   2.495   3.523  0.00  0.00    +0.050 A 
ATOM     24  C   UNL     1      -1.161   3.332   2.821  0.00  0.00    +0.027 A 
ATOM     25  C   UNL     1      -0.518   2.870   1.692  0.00  0.00    +0.007 A 
ATOM     26  C   UNL     1      -0.723   1.574   1.244  0.00  0.00    -0.026 A 
ATOM     27  C   UNL     1      -1.578   0.732   1.923  0.00  0.00    +0.016 A 
BRANCH  15  29
ATOM     28  C   UNL     1      -3.960   4.818   4.889  0.00  0.00    +0.027 C 
ATOM     29  C   UNL     1      -2.838   3.931   5.433  0.00  0.00    +0.119 C 
ENDBRANCH  15  29
ENDBRANCH   1  26
BRANCH   9  30
ATOM     30  S   UNL     1       4.601   0.966  -4.920  0.00  0.00    +0.061 S 
ATOM     31  O   UNL     1       5.891   0.541  -4.504  0.00  0.00    -0.153 OA
ATOM     32  O   UNL     1       3.811   0.217  -5.834  0.00  0.00    -0.153 OA
BRANCH  30  33
ATOM     33  N   UNL     1       4.788   2.473  -5.581  0.00  0.00    -0.177 NA
ATOM     34  C   UNL     1       3.820   2.987  -6.560  0.00  0.00    +0.109 C 
ATOM     35  C   UNL     1       3.313   4.353  -6.074  0.00  0.00    +0.017 C 
ATOM     36  C   UNL     1       4.509   5.276  -5.828  0.00  0.00    +0.003 C 
ATOM     37  C   UNL     1       5.401   4.679  -4.738  0.00  0.00    +0.017 C 
ATOM     38  C   UNL     1       5.929   3.318  -5.205  0.00  0.00    +0.109 C 
ENDBRANCH  30  33
ENDBRANCH   9  30
TORSDOF 4
