REMARK  Name = ZINC03006895
REMARK  8 active torsions:
REMARK  status: ('A' for Active; 'I' for Inactive)
REMARK    1  A    between atoms: C_1  and  N_62
REMARK    2  A    between atoms: C_7  and  N_13
REMARK    3  A    between atoms: C_8  and  C_9
REMARK    4  A    between atoms: C_9  and  O_11
REMARK    5  A    between atoms: O_11  and  C_12
REMARK    6  A    between atoms: C_14  and  C_16
REMARK    7  A    between atoms: C_19  and  S_22
REMARK    8  A    between atoms: S_22  and  N_25
REMARK                            x       y       z     vdW  Elec       q    Type
REMARK                         _______ _______ _______ _____ _____    ______ ____
ROOT
ATOM      1  N   UNL     1       1.468   2.083   2.486  0.00  0.00    -0.275 N 
ATOM      2  C   UNL     1       2.215   2.522   3.518  0.00  0.00    +0.249 C 
ATOM      3  O   UNL     1       3.244   3.135   3.307  0.00  0.00    -0.270 OA
ATOM      4  H   UNL     1       0.648   1.594   2.655  0.00  0.00    +0.156 HD
ENDROOT
BRANCH   1  11
ATOM      5  C   UNL     1       4.162   3.494  -4.630  0.00  0.00    -0.096 C 
ATOM      6  C   UNL     1       2.016   2.977  -3.634  0.00  0.00    -0.074 C 
ATOM      7  C   UNL     1       1.329   2.045  -2.631  0.00  0.00    +0.018 C 
ATOM      8  C   UNL     1       1.879   2.354  -1.243  0.00  0.00    -0.025 A 
ATOM      9  C   UNL     1       3.036   3.041  -1.109  0.00  0.00    -0.021 A 
ATOM     10  S   UNL     1       3.285   3.171   0.637  0.00  0.00    -0.079 S 
ATOM     11  C   UNL     1       1.872   2.330   1.185  0.00  0.00    +0.086 A 
ATOM     12  C   UNL     1       1.244   1.962   0.001  0.00  0.00    +0.091 A 
ATOM     13  C   UNL     1       3.894   3.562  -2.220  0.00  0.00    -0.036 C 
ATOM     14  N   UNL     1       3.481   2.879  -3.470  0.00  0.00    +0.381 N 
ATOM     15  H   UNL     1       3.746   1.889  -3.414  0.00  0.00    -0.082 HD
BRANCH  12  16
ATOM     16  C   UNL     1      -0.014   1.212   0.009  0.00  0.00    +0.342 C 
ATOM     17  O   UNL     1       0.002  -0.004   0.002  0.00  0.00    -0.245 OA
BRANCH  16  18
ATOM     18  O   UNL     1      -1.192   1.871   0.018  0.00  0.00    -0.464 OA
ATOM     19  C   UNL     1      -2.398   1.063   0.019  0.00  0.00    +0.280 C 
ENDBRANCH  16  18
ENDBRANCH  12  16
ENDBRANCH   1  11
BRANCH   2  20
ATOM     20  C   UNL     1       1.784   2.259   4.907  0.00  0.00    +0.037 A 
ATOM     21  C   UNL     1       0.601   1.560   5.154  0.00  0.00    +0.015 A 
ATOM     22  C   UNL     1       0.207   1.313   6.452  0.00  0.00    +0.029 A 
ATOM     23  C   UNL     1       0.977   1.765   7.510  0.00  0.00    +0.106 A 
ATOM     24  C   UNL     1       2.148   2.463   7.273  0.00  0.00    +0.029 A 
ATOM     25  C   UNL     1       2.556   2.712   5.979  0.00  0.00    +0.015 A 
BRANCH  23  26
ATOM     26  S   UNL     1       0.463   1.451   9.166  0.00  0.00    +0.061 S 
ATOM     27  O   UNL     1      -0.380   0.308   9.119  0.00  0.00    -0.153 OA
ATOM     28  O   UNL     1       1.633   1.502   9.970  0.00  0.00    -0.153 OA
BRANCH  26  29
ATOM     29  N   UNL     1      -0.488   2.723   9.633  0.00  0.00    -0.177 NA
ATOM     30  C   UNL     1       0.138   3.861  10.268  0.00  0.00    +0.109 C 
ATOM     31  C   UNL     1       0.196   3.645  11.795  0.00  0.00    +0.017 C 
ATOM     32  C   UNL     1      -1.151   3.754  12.376  0.00  0.00    +0.001 C 
ATOM     33  C   UNL     1      -2.136   2.699  11.881  0.00  0.00    +0.001 C 
ATOM     34  C   UNL     1      -2.759   3.165  10.588  0.00  0.00    +0.017 C 
ATOM     35  C   UNL     1      -1.942   2.645   9.390  0.00  0.00    +0.109 C 
ENDBRANCH  26  29
ENDBRANCH  23  26
ENDBRANCH   2  20
TORSDOF 6
