REMARK  Name = ZINC18197750
REMARK  8 active torsions:
REMARK  status: ('A' for Active; 'I' for Inactive)
REMARK    1  A    between atoms: C_1  and  O_2
REMARK    2  A    between atoms: O_2  and  C_3
REMARK    3  A    between atoms: C_6  and  C_11
REMARK    4  A    between atoms: C_8  and  O_9
REMARK    5  A    between atoms: O_9  and  C_10
REMARK    6  A    between atoms: C_16  and  C_26
REMARK    7  A    between atoms: C_23  and  O_24
REMARK    8  A    between atoms: C_31  and  O_32
REMARK                            x       y       z     vdW  Elec       q    Type
REMARK                         _______ _______ _______ _____ _____    ______ ____
ROOT
ATOM      1  C   UNL     1      -2.285   4.468   3.497  0.00  0.00    +0.032 C 
ATOM      2  C   UNL     1      -1.344   5.140   2.495  0.00  0.00    +0.059 C 
ATOM      3  C   UNL     1      -1.283   4.322   1.226  0.00  0.00    +0.017 C 
ATOM      4  C   UNL     1      -1.417   2.979   1.262  0.00  0.00    +0.024 C 
ATOM      5  C   UNL     1      -1.332   2.119   0.020  0.00  0.00    +0.096 C 
ATOM      6  C   UNL     1      -1.429   2.986  -1.203  0.00  0.00    +0.067 A 
ATOM      7  C   UNL     1      -1.302   4.349  -1.149  0.00  0.00    +0.126 A 
ATOM      8  N   UNL     1      -1.433   4.824  -2.401  0.00  0.00    -0.260 N 
ATOM      9  H   UNL     1      -1.385   5.785  -2.675  0.00  0.00    +0.190 HD
ATOM     10  N   UNL     1      -1.650   3.730  -3.254  0.00  0.00    -0.134 NA
ATOM     11  C   UNL     1      -1.647   2.631  -2.531  0.00  0.00    +0.237 A 
ATOM     12  N   UNL     1      -1.081   5.008   0.055  0.00  0.00    -0.303 N 
ATOM     13  C   UNL     1      -1.649   2.310   2.478  0.00  0.00    +0.162 C 
ATOM     14  O   UNL     1      -1.762   1.100   2.478  0.00  0.00    -0.292 OA
ATOM     15  C   UNL     1      -1.760   3.056   3.778  0.00  0.00    +0.088 C 
ATOM     16  H   UNL     1      -0.789   5.933   0.067  0.00  0.00    +0.153 HD
ENDROOT
BRANCH   5  17
ATOM     17  C   UNL     1      -0.017   1.383   0.010  0.00  0.00    +0.008 A 
ATOM     18  C   UNL     1       1.171   2.089   0.002  0.00  0.00    +0.028 A 
ATOM     19  C   UNL     1       2.378   1.414  -0.013  0.00  0.00    +0.041 A 
ATOM     20  C   UNL     1       2.399   0.030  -0.021  0.00  0.00    +0.023 A 
ATOM     21  C   UNL     1       1.214  -0.680  -0.013  0.00  0.00    +0.047 A 
ATOM     22  C   UNL     1       0.002  -0.004   0.002  0.00  0.00    +0.121 A 
ATOM     23 CL   UNL     1       3.869   2.303  -0.022  0.00  0.00    -0.084 Cl
BRANCH  22  24
ATOM     24  O   UNL     1      -1.165  -0.701   0.009  0.00  0.00    -0.506 OA
ATOM     25  H   UNL     1      -1.511  -0.897  -0.872  0.00  0.00    +0.292 HD
ENDBRANCH  22  24
ENDBRANCH   5  17
BRANCH   1  29
ATOM     26  C   UNL     1      -2.365   6.723   7.130  0.00  0.00    +0.161 A 
ATOM     27  C   UNL     1      -1.173   6.186   6.670  0.00  0.00    +0.049 A 
ATOM     28  C   UNL     1      -1.151   5.453   5.498  0.00  0.00    +0.008 A 
ATOM     29  C   UNL     1      -2.315   5.263   4.777  0.00  0.00    -0.040 A 
ATOM     30  C   UNL     1      -3.508   5.795   5.230  0.00  0.00    +0.053 A 
ATOM     31  C   UNL     1      -3.538   6.526   6.407  0.00  0.00    +0.162 A 
BRANCH  26  33
ATOM     32  C   UNL     1      -1.148   7.600   8.975  0.00  0.00    +0.277 C 
ATOM     33  O   UNL     1      -2.389   7.439   8.286  0.00  0.00    -0.491 OA
ENDBRANCH  26  33
BRANCH  31  34
ATOM     34  O   UNL     1      -4.710   7.050   6.854  0.00  0.00    -0.491 OA
ATOM     35  C   UNL     1      -5.874   6.808   6.061  0.00  0.00    +0.277 C 
ENDBRANCH  31  34
ENDBRANCH   1  29
BRANCH  11  36
ATOM     36  O   UNL     1      -1.825   1.368  -3.000  0.00  0.00    -0.491 OA
ATOM     37  H   UNL     1      -1.962   1.396  -3.990  0.00  0.00    +0.294 HD
ENDBRANCH  11  36
TORSDOF 6
